# generated using pymatgen
data_HfZrTaTiMo
_symmetry_space_group_name_H-M   'P 1'
_cell_length_a   15.83018911
_cell_length_b   15.84626455
_cell_length_c   15.40846997
_cell_angle_alpha   89.98112644
_cell_angle_beta   90.00773789
_cell_angle_gamma   90.14959728
_symmetry_Int_Tables_number   1
_chemical_formula_structural   HfZrTaTiMo
_chemical_formula_sum   'Hf40 Zr40 Ta40 Ti40 Mo40'
_cell_volume   3865.19148111
_cell_formula_units_Z   40
loop_
 _symmetry_equiv_pos_site_id
 _symmetry_equiv_pos_as_xyz
  1  'x, y, z'
loop_
 _atom_site_type_symbol
 _atom_site_label
 _atom_site_symmetry_multiplicity
 _atom_site_fract_x
 _atom_site_fract_y
 _atom_site_fract_z
 _atom_site_occupancy
  Hf  Hf0  1  0.59282137  0.79004498  0.25051285  1
  Hf  Hf1  1  0.00523556  -0.00017397  0.51006599  1
  Hf  Hf2  1  0.40137178  0.61024147  0.23845768  1
  Hf  Hf3  1  0.11482193  0.10533887  0.63325967  1
  Hf  Hf4  1  0.70615266  0.10388276  0.86490341  1
  Hf  Hf5  1  0.19702136  0.60203182  0.49847615  1
  Hf  Hf6  1  0.89801420  0.88730261  0.39217580  1
  Hf  Hf7  1  0.80909172  0.00233392  0.00807007  1
  Hf  Hf8  1  0.10046617  0.89983372  0.12028391  1
  Hf  Hf9  1  0.20189775  0.20960943  0.24164508  1
  Hf  Hf10  1  0.80069610  0.78304860  0.72835048  1
  Hf  Hf11  1  0.29584592  0.71127411  0.87158273  1
  Hf  Hf12  1  0.60161982  0.00497564  0.49288199  1
  Hf  Hf13  1  0.39273120  0.19953367  0.22865260  1
  Hf  Hf14  1  0.89894083  0.30483406  0.88150935  1
  Hf  Hf15  1  0.19940453  0.80064347  0.24964623  1
  Hf  Hf16  1  0.70605323  0.29871124  0.87632891  1
  Hf  Hf17  1  0.00122187  0.00179777  -0.01131204  1
  Hf  Hf18  1  0.88902361  0.69293230  0.87793212  1
  Hf  Hf19  1  0.88872933  0.69529706  0.11181617  1
  Hf  Hf20  1  0.60899369  0.01326963  0.01499991  1
  Hf  Hf21  1  -0.01583951  0.40064153  0.72788848  1
  Hf  Hf22  1  0.49891490  0.90613299  0.36871562  1
  Hf  Hf23  1  0.71460404  0.89370509  0.12862867  1
  Hf  Hf24  1  0.89402321  0.89480617  0.86377594  1
  Hf  Hf25  1  -0.00226299  0.79989193  -0.00782622  1
  Hf  Hf26  1  0.39691982  0.59846249  -0.00457751  1
  Hf  Hf27  1  0.60835239  0.40108190  0.74776573  1
  Hf  Hf28  1  0.21980970  0.39262257  0.49885428  1
  Hf  Hf29  1  0.40660515  0.81530637  0.75088401  1
  Hf  Hf30  1  0.50854985  0.50177498  0.87684831  1
  Hf  Hf31  1  0.08628999  0.48474531  0.87133681  1
  Hf  Hf32  1  0.70184765  0.89223979  0.88066426  1
  Hf  Hf33  1  0.11082017  0.29704603  0.62312352  1
  Hf  Hf34  1  0.19583208  0.59553090  0.25782625  1
  Hf  Hf35  1  0.20806820  0.00795127  0.50597182  1
  Hf  Hf36  1  0.11293200  0.29661924  0.38549444  1
  Hf  Hf37  1  -0.00554725  -0.01097158  0.25073850  1
  Hf  Hf38  1  0.61379568  0.40418771  0.00288615  1
  Hf  Hf39  1  0.68787410  0.10516643  0.62748558  1
  Zr  Zr40  1  0.29640808  0.70882764  0.63356695  1
  Zr  Zr41  1  -0.01287725  0.59645287  0.26426552  1
  Zr  Zr42  1  0.30783672  0.90955139  0.88643168  1
  Zr  Zr43  1  0.90118773  0.10067346  0.63233759  1
  Zr  Zr44  1  0.70065652  0.68886589  0.87417486  1
  Zr  Zr45  1  0.31446379  0.50342246  0.37332005  1
  Zr  Zr46  1  0.49848434  0.31020314  0.12155758  1
  Zr  Zr47  1  0.19144329  0.59873994  0.76155632  1
  Zr  Zr48  1  0.19624044  0.20710586  -0.00902949  1
  Zr  Zr49  1  0.30967158  0.50681283  0.63156906  1
  Zr  Zr50  1  0.49251345  0.28765129  0.62836286  1
  Zr  Zr51  1  0.50288228  0.50552207  0.12972831  1
  Zr  Zr52  1  0.09353905  0.10565006  0.12823759  1
  Zr  Zr53  1  -0.00416678  0.19785199  -0.00772525  1
  Zr  Zr54  1  0.09023919  0.70496347  0.38237585  1
  Zr  Zr55  1  -0.00065885  0.20520478  0.75139693  1
  Zr  Zr56  1  0.42666106  0.41367557  0.50277553  1
  Zr  Zr57  1  0.79734127  0.19489347  0.49460601  1
  Zr  Zr58  1  0.00303932  0.79733817  0.52041315  1
  Zr  Zr59  1  0.39366111  0.80296429  0.23918038  1
  Zr  Zr60  1  -0.01458038  0.59994829  0.74274912  1
  Zr  Zr61  1  0.89357985  0.09116547  0.36902179  1
  Zr  Zr62  1  0.30596169  0.91428744  0.37447691  1
  Zr  Zr63  1  0.09406055  0.69258161  0.12398022  1
  Zr  Zr64  1  0.39769293  0.40133394  0.76596285  1
  Zr  Zr65  1  0.31599452  0.12042994  0.64938192  1
  Zr  Zr66  1  0.69514298  0.68311901  0.13635839  1
  Zr  Zr67  1  0.49506586  0.68468542  0.61725813  1
  Zr  Zr68  1  0.69896037  0.69365902  0.38439003  1
  Zr  Zr69  1  0.59069450  -0.00845435  0.74422169  1
  Zr  Zr70  1  0.49894143  0.90509657  0.12214905  1
  Zr  Zr71  1  0.81307675  0.79451988  0.25610688  1
  Zr  Zr72  1  0.59975135  0.79136950  0.74284616  1
  Zr  Zr73  1  0.21420246  0.00979116  0.24207871  1
  Zr  Zr74  1  0.10338820  0.49250206  0.11225550  1
  Zr  Zr75  1  0.00671466  0.40753811  0.27187909  1
  Zr  Zr76  1  0.81127346  0.39451726  0.26694850  1
  Zr  Zr77  1  0.60693942  0.40212341  0.26393204  1
  Zr  Zr78  1  0.41056278  0.02349879  0.51237900  1
  Zr  Zr79  1  0.50111577  0.10191053  0.87358227  1
  Ta  Ta80  1  0.60099723  0.60033221  -0.00096537  1
  Ta  Ta81  1  0.48974690  0.69540011  0.38638114  1
  Ta  Ta82  1  0.69334870  0.30165566  0.60472826  1
  Ta  Ta83  1  0.89033804  0.09973475  0.85875960  1
  Ta  Ta84  1  0.88424134  0.49164503  0.88269837  1
  Ta  Ta85  1  0.20182692  0.81090979  0.50720969  1
  Ta  Ta86  1  0.60486881  0.00623151  0.24367697  1
  Ta  Ta87  1  0.89396573  0.09931281  0.14256482  1
  Ta  Ta88  1  0.10187201  0.90398929  0.37659735  1
  Ta  Ta89  1  0.29690857  0.90561426  0.10729265  1
  Ta  Ta90  1  0.50241446  0.90082288  0.89438980  1
  Ta  Ta91  1  0.79483576  0.19673285  0.01813023  1
  Ta  Ta92  1  0.79705281  -0.00682431  0.73698642  1
  Ta  Ta93  1  0.00392008  -0.00652102  0.75269536  1
  Ta  Ta94  1  0.79705050  -0.00703476  0.51018246  1
  Ta  Ta95  1  0.10014541  0.49639781  0.61852473  1
  Ta  Ta96  1  0.39791576  0.20750795  0.00065984  1
  Ta  Ta97  1  0.69544845  0.49120845  0.59939215  1
  Ta  Ta98  1  0.29129955  0.69957657  0.10923890  1
  Ta  Ta99  1  0.30226158  0.70839430  0.38720180  1
  Ta  Ta100  1  0.90255972  0.49703124  0.11529278  1
  Ta  Ta101  1  0.60501105  0.20251567  0.24916073  1
  Ta  Ta102  1  0.59965258  0.79197218  0.00787454  1
  Ta  Ta103  1  0.58279887  0.57541163  0.48684798  1
  Ta  Ta104  1  0.59540948  0.79892078  0.49710185  1
  Ta  Ta105  1  -0.00472815  0.40009368  0.49854120  1
  Ta  Ta106  1  0.49258522  0.10283240  0.35206425  1
  Ta  Ta107  1  0.30586630  0.10504473  0.87248723  1
  Ta  Ta108  1  0.90867295  0.29888231  0.12669030  1
  Ta  Ta109  1  0.79926856  0.39296456  0.01673305  1
  Ta  Ta110  1  0.58154361  0.19730332  0.48237229  1
  Ta  Ta111  1  0.09755760  0.31021623  0.12532632  1
  Ta  Ta112  1  0.10439389  0.09971783  0.37592257  1
  Ta  Ta113  1  -0.00486107  0.20837290  0.26302362  1
  Ta  Ta114  1  0.39760941  0.80868047  0.50576529  1
  Ta  Ta115  1  -0.00241637  0.59473682  -0.01325303  1
  Ta  Ta116  1  0.00221836  0.20045160  0.49537786  1
  Ta  Ta117  1  0.19545000  0.59934039  -0.01770885  1
  Ta  Ta118  1  0.20580956  -0.00037259  0.75797772  1
  Ta  Ta119  1  0.69879217  0.89149362  0.61457507  1
  Ti  Ti120  1  0.40423225  0.79547182  0.00715340  1
  Ti  Ti121  1  0.30155536  0.90987681  0.63504792  1
  Ti  Ti122  1  0.69846623  0.09463164  0.36466159  1
  Ti  Ti123  1  0.79972744  0.58416502  0.27124235  1
  Ti  Ti124  1  0.60771188  0.20066780  0.02348147  1
  Ti  Ti125  1  0.00580222  0.79296505  0.74952340  1
  Ti  Ti126  1  0.50214362  0.29895609  0.88789907  1
  Ti  Ti127  1  0.10835376  0.89032219  0.86375897  1
  Ti  Ti128  1  0.60715611  0.59150177  0.74251493  1
  Ti  Ti129  1  0.48773676  0.30385339  0.36135548  1
  Ti  Ti130  1  0.89450839  0.68951139  0.40181288  1
  Ti  Ti131  1  -0.00323839  0.79851656  0.24607154  1
  Ti  Ti132  1  0.10926362  0.89772021  0.63999049  1
  Ti  Ti133  1  0.69749810  0.29721255  0.38841065  1
  Ti  Ti134  1  0.69703815  0.68648728  0.60224358  1
  Ti  Ti135  1  0.40484172  0.60147793  0.76399500  1
  Ti  Ti136  1  0.70527560  0.89999167  0.37741252  1
  Ti  Ti137  1  0.50316600  0.70555288  0.87825002  1
  Ti  Ti138  1  0.59668473  0.20664793  0.74989830  1
  Ti  Ti139  1  0.49928414  0.90486537  0.61646077  1
  Ti  Ti140  1  0.40372728  0.01737918  0.01621199  1
  Ti  Ti141  1  0.10313965  0.10087690  0.86113897  1
  Ti  Ti142  1  0.79948001  0.21407648  0.73318290  1
  Ti  Ti143  1  0.30134423  0.11475907  0.37444686  1
  Ti  Ti144  1  0.19376546  0.79645210  -0.00437050  1
  Ti  Ti145  1  0.19808260  0.00673922  -0.00777896  1
  Ti  Ti146  1  0.29683986  0.29989750  0.64878255  1
  Ti  Ti147  1  0.20825867  0.40267958  0.25765553  1
  Ti  Ti148  1  0.29664338  0.31746198  0.11308582  1
  Ti  Ti149  1  0.10218729  0.69790229  0.63018701  1
  Ti  Ti150  1  0.79899125  0.39948710  0.72827412  1
  Ti  Ti151  1  0.79279679  0.58018546  0.73416282  1
  Ti  Ti152  1  0.70493866  0.49902296  0.14045125  1
  Ti  Ti153  1  0.38768787  0.21599464  0.48822500  1
  Ti  Ti154  1  0.89931019  0.89518208  0.62888817  1
  Ti  Ti155  1  0.78743107  0.58372981  -0.00040156  1
  Ti  Ti156  1  0.79611813  0.20501581  0.24985996  1
  Ti  Ti157  1  0.20726063  0.40043571  -0.02240848  1
  Ti  Ti158  1  0.29810039  0.49621711  0.11690567  1
  Ti  Ti159  1  0.89169066  0.68303016  0.60512673  1
  Mo  Mo160  1  0.29709696  0.50296055  0.87616316  1
  Mo  Mo161  1  0.19381600  0.39800827  0.75248121  1
  Mo  Mo162  1  0.39963516  0.60644712  0.49787252  1
  Mo  Mo163  1  0.10134747  0.30395601  0.86139959  1
  Mo  Mo164  1  0.50132030  0.50437492  0.35446597  1
  Mo  Mo165  1  0.40639703  0.20747980  0.77760066  1
  Mo  Mo166  1  0.79463817  0.59296882  0.49913540  1
  Mo  Mo167  1  0.90552007  0.89798612  0.11792091  1
  Mo  Mo168  1  0.70777306  0.30007314  0.13041526  1
  Mo  Mo169  1  0.39283158  0.40091698  -0.01203571  1
  Mo  Mo170  1  0.29768718  0.10528565  0.09924590  1
  Mo  Mo171  1  0.70638370  0.10332819  0.14537891  1
  Mo  Mo172  1  0.90240890  0.29422606  0.38540631  1
  Mo  Mo173  1  0.79969718  0.39500849  0.49037760  1
  Mo  Mo174  1  0.59808425  0.38994425  0.48618001  1
  Mo  Mo175  1  0.50956910  0.50151402  0.64221525  1
  Mo  Mo176  1  0.89085326  0.49827645  0.60797073  1
  Mo  Mo177  1  0.50228929  0.10708022  0.13205485  1
  Mo  Mo178  1  0.39009781  0.40006912  0.24574838  1
  Mo  Mo179  1  0.79781595  -0.00307782  0.25106653  1
  Mo  Mo180  1  0.09436352  0.70314897  0.87206648  1
  Mo  Mo181  1  0.49795650  0.69994505  0.11075888  1
  Mo  Mo182  1  0.89929006  0.50352777  0.39998436  1
  Mo  Mo183  1  0.79754199  0.79410990  0.00601509  1
  Mo  Mo184  1  -0.00244610  0.39655641  0.00292488  1
  Mo  Mo185  1  0.40175297  0.01060804  0.22886815  1
  Mo  Mo186  1  0.59931506  0.59892479  0.26714211  1
  Mo  Mo187  1  0.20327637  0.20638015  0.77304524  1
  Mo  Mo188  1  0.20934957  0.19693415  0.49159006  1
  Mo  Mo189  1  0.30128625  0.30275867  0.87573838  1
  Mo  Mo190  1  0.19494238  0.80776986  0.74602854  1
  Mo  Mo191  1  0.50313255  0.10860731  0.63056069  1
  Mo  Mo192  1  0.89468004  0.30112428  0.60466390  1
  Mo  Mo193  1  0.79405341  0.79687057  0.51152581  1
  Mo  Mo194  1  0.10352376  0.49715232  0.39834881  1
  Mo  Mo195  1  0.71087441  0.49619508  0.87009309  1
  Mo  Mo196  1  0.00031436  0.59343527  0.51275028  1
  Mo  Mo197  1  0.30983558  0.30108277  0.36379748  1
  Mo  Mo198  1  0.70146069  0.49404157  0.38761689  1
  Mo  Mo199  1  0.40273093  0.00068634  0.74630589  1
