# generated using pymatgen
data_HfZrTaTiMo
_symmetry_space_group_name_H-M   'P 1'
_cell_length_a   15.84283282
_cell_length_b   15.83429729
_cell_length_c   15.39191449
_cell_angle_alpha   90.03157615
_cell_angle_beta   89.96034479
_cell_angle_gamma   90.17870525
_symmetry_Int_Tables_number   1
_chemical_formula_structural   HfZrTaTiMo
_chemical_formula_sum   'Hf40 Zr40 Ta40 Ti40 Mo40'
_cell_volume   3861.19730141
_cell_formula_units_Z   40
loop_
 _symmetry_equiv_pos_site_id
 _symmetry_equiv_pos_as_xyz
  1  'x, y, z'
loop_
 _atom_site_type_symbol
 _atom_site_label
 _atom_site_symmetry_multiplicity
 _atom_site_fract_x
 _atom_site_fract_y
 _atom_site_fract_z
 _atom_site_occupancy
  Hf  Hf0  1  0.41570563  0.59589282  0.25750432  1
  Hf  Hf1  1  0.60604917  0.41739886  0.74594691  1
  Hf  Hf2  1  0.40309286  0.40223969  0.74487224  1
  Hf  Hf3  1  0.80081828  0.80919580  0.51481759  1
  Hf  Hf4  1  0.89396961  0.89413137  0.12566130  1
  Hf  Hf5  1  0.80049374  0.60006074  0.73720540  1
  Hf  Hf6  1  0.19695836  0.80461250  0.76304214  1
  Hf  Hf7  1  0.30892405  0.08705704  0.62117440  1
  Hf  Hf8  1  0.71257897  0.70887434  0.36665009  1
  Hf  Hf9  1  0.20158866  0.79729485  0.49102179  1
  Hf  Hf10  1  -0.01052380  0.80176767  0.75131965  1
  Hf  Hf11  1  0.08982859  0.67645270  0.85581107  1
  Hf  Hf12  1  0.89835839  0.10310160  0.86783710  1
  Hf  Hf13  1  0.19606126  0.59432501  0.00419670  1
  Hf  Hf14  1  0.29902073  0.08745267  0.38571381  1
  Hf  Hf15  1  0.50067516  0.51685050  0.61606882  1
  Hf  Hf16  1  0.30993470  0.89285434  0.63107320  1
  Hf  Hf17  1  0.00276827  0.39685825  -0.01658776  1
  Hf  Hf18  1  0.79454188  0.39179258  0.49736231  1
  Hf  Hf19  1  0.50419707  0.09309154  0.37089476  1
  Hf  Hf20  1  0.89566358  0.89663190  0.36936255  1
  Hf  Hf21  1  0.89698456  0.09056865  0.37808510  1
  Hf  Hf22  1  0.49548472  0.30312144  0.88167222  1
  Hf  Hf23  1  0.19316407  0.00127983  0.74679070  1
  Hf  Hf24  1  0.80643528  0.59590399  0.24477430  1
  Hf  Hf25  1  0.30344022  0.69303210  0.87489997  1
  Hf  Hf26  1  0.40211464  0.40775844  0.48884496  1
  Hf  Hf27  1  0.90305821  0.70710785  0.11635142  1
  Hf  Hf28  1  0.69869167  0.30065235  0.13507568  1
  Hf  Hf29  1  0.79410169  0.20415572  -0.01037914  1
  Hf  Hf30  1  0.70124544  0.91260416  0.36097284  1
  Hf  Hf31  1  0.40773180  0.81336600  0.47859638  1
  Hf  Hf32  1  0.09148473  0.48691152  0.14354759  1
  Hf  Hf33  1  0.09618366  0.90220303  0.37151649  1
  Hf  Hf34  1  -0.01472452  0.39024598  0.27547552  1
  Hf  Hf35  1  0.50728473  0.89830041  0.11665607  1
  Hf  Hf36  1  0.39837775  0.00189323  0.23371468  1
  Hf  Hf37  1  0.50014891  0.71658869  0.62000848  1
  Hf  Hf38  1  0.39348229  0.19930724  0.74333477  1
  Hf  Hf39  1  0.79355641  0.79711753  0.74795639  1
  Zr  Zr40  1  0.19238181  0.39730427  -0.00598711  1
  Zr  Zr41  1  0.50291118  0.51208956  0.89056847  1
  Zr  Zr42  1  0.10782974  0.10391842  0.38914088  1
  Zr  Zr43  1  0.20570250  0.40153098  0.74686664  1
  Zr  Zr44  1  -0.00427020  0.59922881  0.25438184  1
  Zr  Zr45  1  0.29411291  0.70117330  0.35230756  1
  Zr  Zr46  1  0.50037135  0.30044646  0.12234645  1
  Zr  Zr47  1  0.50754419  0.50401202  0.11411663  1
  Zr  Zr48  1  0.59279744  0.19897372  0.75217134  1
  Zr  Zr49  1  0.00313095  0.59448645  0.01101258  1
  Zr  Zr50  1  0.41962927  0.80316773  0.77456691  1
  Zr  Zr51  1  0.41203094  0.19372847  0.50971627  1
  Zr  Zr52  1  0.30673572  0.69423932  0.62809849  1
  Zr  Zr53  1  0.20300737  0.39995078  0.49877539  1
  Zr  Zr54  1  0.18714729  0.37729392  0.26280550  1
  Zr  Zr55  1  0.60170388  0.81446717  0.49356214  1
  Zr  Zr56  1  0.39643069  0.39951104  0.27066612  1
  Zr  Zr57  1  0.29618164  0.49966268  0.13726004  1
  Zr  Zr58  1  0.10365585  0.69419937  0.62421415  1
  Zr  Zr59  1  0.90434170  0.10441740  0.11306908  1
  Zr  Zr60  1  0.89741157  0.90383304  0.88395266  1
  Zr  Zr61  1  0.61501573  0.39995134  -0.00582365  1
  Zr  Zr62  1  0.89063384  0.29268694  0.63743192  1
  Zr  Zr63  1  0.69976935  0.10125556  0.63931714  1
  Zr  Zr64  1  0.60036589  0.41208834  0.26395310  1
  Zr  Zr65  1  0.08794776  0.09573758  0.87300154  1
  Zr  Zr66  1  0.48755942  0.09027048  0.87766072  1
  Zr  Zr67  1  0.80333499  0.20556562  0.26187518  1
  Zr  Zr68  1  0.09349607  0.50927067  0.62154384  1
  Zr  Zr69  1  0.19160784  -0.00954450  -0.00021981  1
  Zr  Zr70  1  0.19169266  0.79564849  -0.01028757  1
  Zr  Zr71  1  0.60226920  0.62039563  0.75931120  1
  Zr  Zr72  1  0.90186567  0.31062716  0.11956568  1
  Zr  Zr73  1  0.28707631  0.27645303  0.38477183  1
  Zr  Zr74  1  0.60700345  0.40336788  0.49861299  1
  Zr  Zr75  1  0.01606359  0.20310163  0.25344379  1
  Zr  Zr76  1  0.09585733  0.29334812  0.62689023  1
  Zr  Zr77  1  0.39497146  0.19551250  0.23937381  1
  Zr  Zr78  1  0.09991039  0.28049984  0.85407256  1
  Zr  Zr79  1  0.29236970  0.88604509  0.13036938  1
  Ta  Ta80  1  0.60245592  0.00710573  0.23275924  1
  Ta  Ta81  1  0.91287060  0.69739097  0.60995336  1
  Ta  Ta82  1  0.59518734  0.00603319  0.50115905  1
  Ta  Ta83  1  -0.00453667  0.40992687  0.75488916  1
  Ta  Ta84  1  0.79978934  0.40346423  0.27290323  1
  Ta  Ta85  1  0.30259111  0.69773829  0.13581896  1
  Ta  Ta86  1  -0.00936568  -0.00596110  0.51622379  1
  Ta  Ta87  1  0.79431874  0.60093462  0.51221518  1
  Ta  Ta88  1  0.80648449  0.40633656  -0.01433910  1
  Ta  Ta89  1  0.40374267  0.79827649  -0.00242460  1
  Ta  Ta90  1  0.19406324  0.00676127  0.23321899  1
  Ta  Ta91  1  0.70644188  0.71410514  0.12147485  1
  Ta  Ta92  1  0.61032153  0.20127343  0.50584652  1
  Ta  Ta93  1  0.90087252  0.29716131  0.86051962  1
  Ta  Ta94  1  0.29677620  0.90443457  0.35923323  1
  Ta  Ta95  1  0.78542835  -0.00652035  0.00525598  1
  Ta  Ta96  1  0.61269934  0.80947367  -0.00678233  1
  Ta  Ta97  1  0.29907590  0.50041586  0.87296038  1
  Ta  Ta98  1  0.70774525  0.30195822  0.85875817  1
  Ta  Ta99  1  -0.00825178  0.19282298  0.50913959  1
  Ta  Ta100  1  0.40624581  0.59988800  0.75879305  1
  Ta  Ta101  1  0.18731522  0.19546286  0.01374432  1
  Ta  Ta102  1  0.79310847  0.00168242  0.51304563  1
  Ta  Ta103  1  0.09690769  0.50041412  0.38154740  1
  Ta  Ta104  1  0.29439890  0.29893562  0.11639997  1
  Ta  Ta105  1  0.50512358  0.30202129  0.62040079  1
  Ta  Ta106  1  0.60699177  0.00097264  -0.00245295  1
  Ta  Ta107  1  0.41328195  0.79975414  0.25020657  1
  Ta  Ta108  1  0.90006098  0.50512303  0.39843242  1
  Ta  Ta109  1  0.29799176  0.29258640  0.88188684  1
  Ta  Ta110  1  0.90288198  0.51093949  0.87162341  1
  Ta  Ta111  1  0.50853942  0.70183070  0.11554666  1
  Ta  Ta112  1  0.09338901  0.89030806  0.61902013  1
  Ta  Ta113  1  0.49785695  0.92377721  0.63676696  1
  Ta  Ta114  1  -0.00577012  -0.00034561  0.72793485  1
  Ta  Ta115  1  0.51390905  0.28877650  0.37457406  1
  Ta  Ta116  1  0.28977373  0.10771780  0.87693632  1
  Ta  Ta117  1  0.60505088  0.19597184  -0.01158315  1
  Ta  Ta118  1  0.19907218  -0.00946232  0.51097463  1
  Ta  Ta119  1  0.20798064  0.59630677  0.48237061  1
  Ti  Ti120  1  0.70173877  0.51126009  0.37934719  1
  Ti  Ti121  1  0.69630447  0.10720377  0.12298773  1
  Ti  Ti122  1  0.60731256  0.60550470  0.24437198  1
  Ti  Ti123  1  0.11434560  0.70290519  0.14516465  1
  Ti  Ti124  1  0.00291276  -0.00579718  0.00551046  1
  Ti  Ti125  1  0.70787467  0.70140885  0.89412433  1
  Ti  Ti126  1  0.31000032  0.91289868  0.87387778  1
  Ti  Ti127  1  0.39978010  0.60256393  0.47905755  1
  Ti  Ti128  1  0.51448574  0.70239702  0.37022993  1
  Ti  Ti129  1  0.00939027  0.80225050  -0.01050816  1
  Ti  Ti130  1  0.69466832  0.10527057  0.36986823  1
  Ti  Ti131  1  0.09518355  0.69853087  0.37470705  1
  Ti  Ti132  1  0.39112916  0.40329428  -0.00005561  1
  Ti  Ti133  1  0.80255386  -0.00674960  0.74063934  1
  Ti  Ti134  1  0.60506991  0.80435178  0.24313391  1
  Ti  Ti135  1  0.29779862  0.29475673  0.61904223  1
  Ti  Ti136  1  0.70138395  0.30127117  0.64121615  1
  Ti  Ti137  1  0.90375011  0.70079655  0.39142712  1
  Ti  Ti138  1  0.79565409  0.00317008  0.23242860  1
  Ti  Ti139  1  0.90482533  0.50050320  0.61269254  1
  Ti  Ti140  1  0.80026020  0.41208500  0.75005283  1
  Ti  Ti141  1  0.39474997  0.00112806  0.00837648  1
  Ti  Ti142  1  0.68533686  0.90439821  0.63944628  1
  Ti  Ti143  1  0.00309620  0.00672634  0.24096058  1
  Ti  Ti144  1  0.80215684  0.59657973  0.01005150  1
  Ti  Ti145  1  -0.00454984  0.79455297  0.25601435  1
  Ti  Ti146  1  0.09157990  0.88952027  0.13689094  1
  Ti  Ti147  1  0.89430387  0.69735485  0.88613230  1
  Ti  Ti148  1  0.70156221  0.09154025  0.86414852  1
  Ti  Ti149  1  0.39129532  0.19810166  0.00603203  1
  Ti  Ti150  1  0.70968263  0.49925854  0.12452247  1
  Ti  Ti151  1  0.30134293  0.51182399  0.62731258  1
  Ti  Ti152  1  0.20037985  0.18573120  0.22365317  1
  Ti  Ti153  1  0.69208252  0.70326740  0.62262783  1
  Ti  Ti154  1  0.60121356  0.81183680  0.77772860  1
  Ti  Ti155  1  0.79492041  0.19627490  0.49460249  1
  Ti  Ti156  1  0.70765001  0.51124782  0.88120087  1
  Ti  Ti157  1  0.60520321  0.60627755  0.49621306  1
  Ti  Ti158  1  0.39876522  0.60466157  0.00461447  1
  Ti  Ti159  1  0.50623297  0.10700930  0.11404875  1
  Mo  Mo160  1  -0.00448849  0.19021058  0.72845409  1
  Mo  Mo161  1  0.00192295  0.60282103  0.48826923  1
  Mo  Mo162  1  0.19709894  0.18988628  0.52067959  1
  Mo  Mo163  1  0.50813010  0.70124204  0.90266834  1
  Mo  Mo164  1  0.89342225  0.89774435  0.62408370  1
  Mo  Mo165  1  0.20963489  0.59431044  0.75229782  1
  Mo  Mo166  1  0.09920123  0.09382859  0.61679291  1
  Mo  Mo167  1  0.61633180  0.60838934  0.01143529  1
  Mo  Mo168  1  0.39692411  0.00071946  0.76422809  1
  Mo  Mo169  1  0.08958831  0.29776499  0.40626808  1
  Mo  Mo170  1  0.09013154  0.89812123  0.86322073  1
  Mo  Mo171  1  0.20500742  0.19582038  0.73846689  1
  Mo  Mo172  1  -0.00096779  0.20125272  0.00388646  1
  Mo  Mo173  1  0.70400320  0.50675950  0.61969082  1
  Mo  Mo174  1  0.89281460  0.09830462  0.62430293  1
  Mo  Mo175  1  0.00002623  0.80089226  0.49269794  1
  Mo  Mo176  1  0.80579716  0.79509564  0.25196124  1
  Mo  Mo177  1  0.59883504  -0.00730367  0.76613879  1
  Mo  Mo178  1  0.50448187  0.90381349  0.35065608  1
  Mo  Mo179  1  0.10005444  0.49698043  0.85631175  1
  Mo  Mo180  1  0.09491594  0.09004909  0.11719031  1
  Mo  Mo181  1  0.59954293  0.19426869  0.24707714  1
  Mo  Mo182  1  0.79786432  0.19814470  0.76312037  1
  Mo  Mo183  1  0.79874502  0.80058602  -0.00662179  1
  Mo  Mo184  1  0.19130843  0.80130272  0.25416857  1
  Mo  Mo185  1  0.40532996  -0.01227235  0.48758463  1
  Mo  Mo186  1  0.29768229  0.50102355  0.36567249  1
  Mo  Mo187  1  0.50892465  0.51527668  0.38813076  1
  Mo  Mo188  1  0.50095986  0.90400807  0.89805516  1
  Mo  Mo189  1  0.19509751  0.59489204  0.26034698  1
  Mo  Mo190  1  0.69764131  0.29196168  0.36878703  1
  Mo  Mo191  1  0.09417247  0.29220771  0.12021333  1
  Mo  Mo192  1  -0.00454575  0.39639372  0.49589736  1
  Mo  Mo193  1  0.50424657  0.09588610  0.62408204  1
  Mo  Mo194  1  0.70219333  0.90275179  0.13416324  1
  Mo  Mo195  1  0.89701369  0.29495384  0.39759007  1
  Mo  Mo196  1  0.70267855  0.90777352  0.86581559  1
  Mo  Mo197  1  0.88983725  0.49464890  0.11908191  1
  Mo  Mo198  1  -0.01554758  0.59808365  0.74581339  1
  Mo  Mo199  1  0.29919253  0.09847448  0.10515709  1
