# generated using pymatgen
data_HfZrTaTiMo
_symmetry_space_group_name_H-M   'P 1'
_cell_length_a   16.37512289
_cell_length_b   16.32856227
_cell_length_c   14.37390139
_cell_angle_alpha   89.92453892
_cell_angle_beta   89.99572346
_cell_angle_gamma   89.72897357
_symmetry_Int_Tables_number   1
_chemical_formula_structural   HfZrTaTiMo
_chemical_formula_sum   'Hf40 Zr40 Ta40 Ti40 Mo40'
_cell_volume   3843.27923327
_cell_formula_units_Z   40
loop_
 _symmetry_equiv_pos_site_id
 _symmetry_equiv_pos_as_xyz
  1  'x, y, z'
loop_
 _atom_site_type_symbol
 _atom_site_label
 _atom_site_symmetry_multiplicity
 _atom_site_fract_x
 _atom_site_fract_y
 _atom_site_fract_z
 _atom_site_occupancy
  Hf  Hf0  1  0.49811131  0.90066653  0.86820333  1
  Hf  Hf1  1  0.69856316  0.10201840  0.62068434  1
  Hf  Hf2  1  0.68590300  0.49664646  0.87875494  1
  Hf  Hf3  1  0.20780814  0.60463528  0.00056037  1
  Hf  Hf4  1  0.50198228  0.30596406  0.12787011  1
  Hf  Hf5  1  0.61687478  0.39911664  0.50528784  1
  Hf  Hf6  1  -0.00557941  0.38458268  0.74996164  1
  Hf  Hf7  1  0.51402643  0.31421544  0.88175483  1
  Hf  Hf8  1  0.10183406  0.10999886  0.85705632  1
  Hf  Hf9  1  0.60133811  -0.00180057  0.24660186  1
  Hf  Hf10  1  -0.00378252  -0.01033684  0.50810611  1
  Hf  Hf11  1  0.50440395  0.50552122  0.88045380  1
  Hf  Hf12  1  0.80208658  -0.00991607  0.73653612  1
  Hf  Hf13  1  0.10715109  0.29487939  0.38093338  1
  Hf  Hf14  1  0.09599146  0.49455182  0.62771198  1
  Hf  Hf15  1  0.69284648  0.89392659  0.87690814  1
  Hf  Hf16  1  0.89790096  0.90322073  0.88551826  1
  Hf  Hf17  1  0.30564774  0.50924701  0.37977695  1
  Hf  Hf18  1  0.81198832  0.20628010  0.74020285  1
  Hf  Hf19  1  0.28854668  0.90814805  0.39417922  1
  Hf  Hf20  1  0.49134843  0.70003024  0.37405767  1
  Hf  Hf21  1  -0.00477385  0.59771021  -0.00573145  1
  Hf  Hf22  1  0.19372645  0.81696617  0.24958146  1
  Hf  Hf23  1  0.90503490  0.10024544  0.88044203  1
  Hf  Hf24  1  0.88917127  0.68952054  0.38688239  1
  Hf  Hf25  1  -0.00618634  0.79821555  0.26186713  1
  Hf  Hf26  1  0.50729464  0.50817180  0.11898498  1
  Hf  Hf27  1  0.09744230  0.70193203  0.12485808  1
  Hf  Hf28  1  0.89014405  0.49822532  0.60459847  1
  Hf  Hf29  1  0.00689043  0.19367223  0.26037654  1
  Hf  Hf30  1  0.09984375  0.48720701  0.87567962  1
  Hf  Hf31  1  0.39741384  0.61875831  -0.00411221  1
  Hf  Hf32  1  0.90316854  0.09183797  0.13281063  1
  Hf  Hf33  1  0.29785210  0.10502102  0.10804165  1
  Hf  Hf34  1  0.49221453  0.50082932  0.38283771  1
  Hf  Hf35  1  0.59985465  0.59931988  0.51164015  1
  Hf  Hf36  1  -0.01026086  0.59913393  0.75418848  1
  Hf  Hf37  1  0.40701903  0.40608693  0.74440035  1
  Hf  Hf38  1  0.10659606  0.70300641  0.37757173  1
  Hf  Hf39  1  0.28782418  0.91477033  0.10636531  1
  Zr  Zr40  1  0.19530738  0.39667404  0.00606452  1
  Zr  Zr41  1  0.09889406  0.70443875  0.86586200  1
  Zr  Zr42  1  0.50242058  0.30275453  0.61743388  1
  Zr  Zr43  1  0.69567612  0.69167008  0.10776268  1
  Zr  Zr44  1  0.39777276  0.79724370  -0.00640906  1
  Zr  Zr45  1  0.00058547  0.40391814  0.25324633  1
  Zr  Zr46  1  0.89830297  0.50016162  0.12169120  1
  Zr  Zr47  1  0.69443526  0.29744908  0.87175377  1
  Zr  Zr48  1  0.09206919  0.90666235  0.09782761  1
  Zr  Zr49  1  0.69765648  0.10068797  0.85881258  1
  Zr  Zr50  1  0.40958992  0.19570975  -0.00760939  1
  Zr  Zr51  1  0.12229495  0.08476281  0.38904447  1
  Zr  Zr52  1  -0.00397992  -0.00281056  0.73146679  1
  Zr  Zr53  1  0.70001174  0.90427368  0.38303821  1
  Zr  Zr54  1  0.59396242  0.00481286  0.00505267  1
  Zr  Zr55  1  0.89552726  0.69658577  0.62126635  1
  Zr  Zr56  1  0.61167179  0.40838694  0.25830784  1
  Zr  Zr57  1  0.89262778  0.89652573  0.12142168  1
  Zr  Zr58  1  0.20892627  0.60475397  0.75296015  1
  Zr  Zr59  1  0.10197920  0.91007855  0.87152588  1
  Zr  Zr60  1  0.38638669  0.00708051  0.25611576  1
  Zr  Zr61  1  0.20648141  0.40377906  0.24929910  1
  Zr  Zr62  1  0.39170731  0.80406591  0.24421213  1
  Zr  Zr63  1  0.60494114  0.20104506  0.48966961  1
  Zr  Zr64  1  0.19832126  0.61002087  0.51612802  1
  Zr  Zr65  1  0.30024363  0.30243528  0.87605959  1
  Zr  Zr66  1  0.80033735  0.39504609  0.00611836  1
  Zr  Zr67  1  0.61612080  0.60566057  0.26448268  1
  Zr  Zr68  1  0.30616522  0.49562107  0.62448330  1
  Zr  Zr69  1  0.88677168  0.09330703  0.37571922  1
  Zr  Zr70  1  0.69778144  0.70039042  0.62818315  1
  Zr  Zr71  1  0.49838024  0.09704164  0.37997703  1
  Zr  Zr72  1  0.01240357  -0.01722403  0.27011313  1
  Zr  Zr73  1  0.11276576  0.09062479  0.12182401  1
  Zr  Zr74  1  0.00859952  0.20980285  0.00467856  1
  Zr  Zr75  1  0.10107240  0.50668004  0.37716618  1
  Zr  Zr76  1  0.40523427  0.19871864  0.74912629  1
  Zr  Zr77  1  0.79756529  0.39873286  0.73977001  1
  Zr  Zr78  1  0.60785197  0.19088645  0.01688608  1
  Zr  Zr79  1  0.78766957  0.78933735  0.25609113  1
  Ta  Ta80  1  0.49802973  0.89997188  0.12200527  1
  Ta  Ta81  1  0.59422856  -0.00510373  0.73390982  1
  Ta  Ta82  1  0.90142410  0.29561396  0.13744146  1
  Ta  Ta83  1  0.80049810  0.19572978  0.01470267  1
  Ta  Ta84  1  0.30966560  0.49893912  0.87936555  1
  Ta  Ta85  1  0.30050908  0.70219563  0.37779932  1
  Ta  Ta86  1  0.20205066  0.39611738  0.50346456  1
  Ta  Ta87  1  -0.00691680  0.79134544  -0.01140174  1
  Ta  Ta88  1  0.39662856  0.80153565  0.50993407  1
  Ta  Ta89  1  0.29798788  0.90511237  0.86198805  1
  Ta  Ta90  1  -0.00661113  0.80172094  0.74122407  1
  Ta  Ta91  1  0.30518394  0.29914217  0.12502746  1
  Ta  Ta92  1  0.10786467  0.29462570  0.13872122  1
  Ta  Ta93  1  0.89539634  0.69685949  0.11984154  1
  Ta  Ta94  1  0.79878151  0.40278457  0.25675557  1
  Ta  Ta95  1  0.79241902  0.21176047  0.49421446  1
  Ta  Ta96  1  0.49692230  0.30554468  0.37393649  1
  Ta  Ta97  1  0.20962999  0.79325174  -0.01352380  1
  Ta  Ta98  1  0.79463190  0.59718232  0.75843392  1
  Ta  Ta99  1  0.10298887  0.10699557  0.62853084  1
  Ta  Ta100  1  -0.00541537  0.60271438  0.24950783  1
  Ta  Ta101  1  0.29701997  0.10087770  0.62898972  1
  Ta  Ta102  1  0.69498336  0.89350273  0.11703152  1
  Ta  Ta103  1  0.00604853  0.80263326  0.50781883  1
  Ta  Ta104  1  0.78889722  0.00660067  0.00964419  1
  Ta  Ta105  1  0.21855932  0.19254019  0.26270047  1
  Ta  Ta106  1  0.29484159  0.09456284  0.86209777  1
  Ta  Ta107  1  0.39789787  0.20417823  0.25857630  1
  Ta  Ta108  1  0.40523851  0.60867973  0.52080512  1
  Ta  Ta109  1  0.20017260  0.80840669  0.73375801  1
  Ta  Ta110  1  0.39714378  0.79776077  0.74456725  1
  Ta  Ta111  1  0.10223847  0.29193904  0.62318577  1
  Ta  Ta112  1  0.89534081  0.30066246  0.37513192  1
  Ta  Ta113  1  0.30051413  0.29800414  0.61741699  1
  Ta  Ta114  1  0.39887721  0.40255438  0.24848232  1
  Ta  Ta115  1  0.70636458  0.29654879  0.13865537  1
  Ta  Ta116  1  0.59582313  -0.00597417  0.50724075  1
  Ta  Ta117  1  0.30869310  0.30382204  0.38493837  1
  Ta  Ta118  1  0.80145818  0.79489821  0.75724619  1
  Ta  Ta119  1  0.59548751  0.80206204  0.25023177  1
  Ti  Ti120  1  0.79759292  0.59267698  0.25018294  1
  Ti  Ti121  1  0.39907718  -0.00309591  0.73647452  1
  Ti  Ti122  1  0.59168446  0.79359399  0.74562635  1
  Ti  Ti123  1  0.58660810  0.78934132  -0.00101745  1
  Ti  Ti124  1  0.70905467  0.09484400  0.37081569  1
  Ti  Ti125  1  0.89810716  0.50029879  0.38386780  1
  Ti  Ti126  1  0.60512809  0.19875557  0.25567142  1
  Ti  Ti127  1  0.68582012  0.69411374  0.87106249  1
  Ti  Ti128  1  0.71978201  0.50476803  0.39785198  1
  Ti  Ti129  1  0.79827552  0.79045763  -0.01125931  1
  Ti  Ti130  1  0.90652708  0.29658366  0.88684703  1
  Ti  Ti131  1  0.39984929  0.00013585  0.51231936  1
  Ti  Ti132  1  0.49426928  0.10042828  0.13640287  1
  Ti  Ti133  1  0.50203869  0.10126777  0.62451883  1
  Ti  Ti134  1  0.19757758  -0.01384898  0.53599940  1
  Ti  Ti135  1  0.79788076  0.80231671  0.50543596  1
  Ti  Ti136  1  0.89671389  0.10381021  0.60966440  1
  Ti  Ti137  1  0.30011720  0.70871901  0.62465506  1
  Ti  Ti138  1  0.20909604  0.19816969  0.50306446  1
  Ti  Ti139  1  0.00272423  0.39556976  0.49492864  1
  Ti  Ti140  1  0.31258416  0.50137952  0.11968615  1
  Ti  Ti141  1  0.59416753  0.79751654  0.49547020  1
  Ti  Ti142  1  0.88596371  0.90238662  0.38391885  1
  Ti  Ti143  1  0.90261618  0.29842289  0.60311654  1
  Ti  Ti144  1  0.49954415  0.89450360  0.62157648  1
  Ti  Ti145  1  0.89910498  0.49009968  0.88033398  1
  Ti  Ti146  1  0.20918352  0.60457794  0.23770611  1
  Ti  Ti147  1  0.39830822  0.19791887  0.49768952  1
  Ti  Ti148  1  0.50709022  0.09912670  0.85710756  1
  Ti  Ti149  1  0.79848424  0.60060328  -0.01525411  1
  Ti  Ti150  1  0.40282011  0.00438465  -0.01123604  1
  Ti  Ti151  1  0.19772268  0.20585591  -0.01101528  1
  Ti  Ti152  1  -0.00003641  0.19639495  0.49695781  1
  Ti  Ti153  1  0.49840934  0.69851946  0.13668229  1
  Ti  Ti154  1  0.09617889  0.49913366  0.12318817  1
  Ti  Ti155  1  0.41232798  0.60971029  0.74522006  1
  Ti  Ti156  1  0.00371983  0.60423792  0.50282196  1
  Ti  Ti157  1  0.20102713  0.39144925  0.74813605  1
  Ti  Ti158  1  0.69657400  0.89469270  0.62222186  1
  Ti  Ti159  1  0.49470481  0.89903456  0.37816748  1
  Mo  Mo160  1  0.00135576  0.39307115  0.00332857  1
  Mo  Mo161  1  0.80217526  0.39451813  0.49283017  1
  Mo  Mo162  1  0.79600053  0.59943312  0.50470551  1
  Mo  Mo163  1  0.20070296  0.80064896  0.51211071  1
  Mo  Mo164  1  0.50570702  0.50486629  0.63025084  1
  Mo  Mo165  1  0.70062764  0.50073413  0.63424060  1
  Mo  Mo166  1  -0.00412612  0.20244457  0.73037107  1
  Mo  Mo167  1  0.09554057  0.70335816  0.62898808  1
  Mo  Mo168  1  0.10080162  0.29727710  0.85535363  1
  Mo  Mo169  1  -0.00540129  0.00202838  -0.00957306  1
  Mo  Mo170  1  0.20336253  0.00503744  -0.02761376  1
  Mo  Mo171  1  0.30593882  0.90347594  0.62921371  1
  Mo  Mo172  1  0.50396453  0.70150149  0.85655928  1
  Mo  Mo173  1  0.30320112  0.10238975  0.40354448  1
  Mo  Mo174  1  0.79437179  0.00005238  0.51249458  1
  Mo  Mo175  1  0.20255204  0.20533590  0.73870771  1
  Mo  Mo176  1  0.39142819  0.60326051  0.23946427  1
  Mo  Mo177  1  0.88999993  0.69962982  0.87536212  1
  Mo  Mo178  1  0.69567266  0.70287623  0.39046041  1
  Mo  Mo179  1  0.70708069  0.09836196  0.14496252  1
  Mo  Mo180  1  0.80076237  0.20095853  0.25333539  1
  Mo  Mo181  1  0.20458219  0.00443007  0.25651530  1
  Mo  Mo182  1  0.40175028  0.40183953  0.49803437  1
  Mo  Mo183  1  0.30187620  0.70368306  0.85185941  1
  Mo  Mo184  1  0.09870396  0.89730727  0.63023921  1
  Mo  Mo185  1  0.20403526  0.00359321  0.74129858  1
  Mo  Mo186  1  0.70188406  0.29812857  0.63352224  1
  Mo  Mo187  1  0.79302427  -0.00652347  0.23771363  1
  Mo  Mo188  1  0.59759786  0.60067423  0.74737975  1
  Mo  Mo189  1  0.10642259  0.89434751  0.40198832  1
  Mo  Mo190  1  0.29518603  0.70337461  0.13967353  1
  Mo  Mo191  1  0.49819584  0.70769639  0.62602032  1
  Mo  Mo192  1  0.59997387  0.19870899  0.73862209  1
  Mo  Mo193  1  0.89023634  0.89069233  0.61795658  1
  Mo  Mo194  1  0.60132932  0.40609668  0.72840730  1
  Mo  Mo195  1  0.70298203  0.49940098  0.11168219  1
  Mo  Mo196  1  0.70354738  0.29774271  0.35929366  1
  Mo  Mo197  1  0.60573255  0.40342845  0.02509801  1
  Mo  Mo198  1  0.39862329  0.40645834  0.00950768  1
  Mo  Mo199  1  0.59488780  0.61048818  -0.00894089  1
