# generated using pymatgen
data_HfZrTaTiMo
_symmetry_space_group_name_H-M   'P 1'
_cell_length_a   15.83500805
_cell_length_b   15.83279498
_cell_length_c   15.39629176
_cell_angle_alpha   89.98726782
_cell_angle_beta   90.02050083
_cell_angle_gamma   90.03733713
_symmetry_Int_Tables_number   1
_chemical_formula_structural   HfZrTaTiMo
_chemical_formula_sum   'Hf40 Zr40 Ta40 Ti40 Mo40'
_cell_volume   3860.04064789
_cell_formula_units_Z   40
loop_
 _symmetry_equiv_pos_site_id
 _symmetry_equiv_pos_as_xyz
  1  'x, y, z'
loop_
 _atom_site_type_symbol
 _atom_site_label
 _atom_site_symmetry_multiplicity
 _atom_site_fract_x
 _atom_site_fract_y
 _atom_site_fract_z
 _atom_site_occupancy
  Hf  Hf0  1  0.69924613  0.29799990  0.12495846  1
  Hf  Hf1  1  0.30790184  0.90000709  0.88581733  1
  Hf  Hf2  1  0.08320904  0.90370996  0.88696543  1
  Hf  Hf3  1  0.90963352  0.10607962  0.36138637  1
  Hf  Hf4  1  0.08619874  0.69692688  0.88187661  1
  Hf  Hf5  1  0.60498798  0.39581702  0.50144577  1
  Hf  Hf6  1  0.08911688  0.10866254  0.14349549  1
  Hf  Hf7  1  0.81249808  0.18462383  0.00377778  1
  Hf  Hf8  1  0.40253918  0.00210842  0.48869412  1
  Hf  Hf9  1  0.88982575  0.71104584  0.88439369  1
  Hf  Hf10  1  0.19799675  0.00877744  0.00896989  1
  Hf  Hf11  1  0.82369615  0.19152607  0.75866704  1
  Hf  Hf12  1  0.90506303  0.29552370  0.38176014  1
  Hf  Hf13  1  0.90298733  0.50340944  0.11093069  1
  Hf  Hf14  1  0.40091868  0.39935253  0.26874809  1
  Hf  Hf15  1  0.80075659  0.38740147  -0.01781420  1
  Hf  Hf16  1  0.38702030  0.80326185  0.26159622  1
  Hf  Hf17  1  0.10386893  0.90311483  0.61687896  1
  Hf  Hf18  1  0.20087968  0.20136138  0.75549854  1
  Hf  Hf19  1  0.69223652  0.28024937  0.86474076  1
  Hf  Hf20  1  0.70648517  0.88497931  0.86972746  1
  Hf  Hf21  1  0.18606636  0.79903159  0.25881061  1
  Hf  Hf22  1  0.71477953  0.07724145  0.86575963  1
  Hf  Hf23  1  0.60550764  -0.01017286  0.01335722  1
  Hf  Hf24  1  0.80456998  0.40179493  0.26503980  1
  Hf  Hf25  1  0.68815482  0.68225559  0.36910390  1
  Hf  Hf26  1  -0.02211890  0.81657042  0.74320030  1
  Hf  Hf27  1  0.39881618  0.60124698  -0.01949665  1
  Hf  Hf28  1  0.81935647  0.79987988  0.26574488  1
  Hf  Hf29  1  0.20020735  0.00174953  0.76119506  1
  Hf  Hf30  1  0.19277905  0.60456729  0.25771631  1
  Hf  Hf31  1  0.19503254  0.40736087  0.25044541  1
  Hf  Hf32  1  0.60457305  0.80303858  0.25346358  1
  Hf  Hf33  1  0.09861105  0.30204296  0.37647040  1
  Hf  Hf34  1  0.70613655  0.09377189  0.63741310  1
  Hf  Hf35  1  0.38300514  0.61005381  0.75290294  1
  Hf  Hf36  1  0.70191869  0.69381725  0.13057560  1
  Hf  Hf37  1  0.09233921  0.30134943  0.87980914  1
  Hf  Hf38  1  0.49892159  0.91185535  0.64266255  1
  Hf  Hf39  1  0.29677114  0.50580982  0.38777233  1
  Zr  Zr40  1  0.59733901  0.60368696  0.52778869  1
  Zr  Zr41  1  0.30604850  0.30791101  0.11661000  1
  Zr  Zr42  1  -0.00705656  0.39845649  0.74382257  1
  Zr  Zr43  1  -0.00194259  0.01744911  0.73485033  1
  Zr  Zr44  1  0.29928990  0.50172646  0.11643666  1
  Zr  Zr45  1  0.49827210  0.30115613  0.11633117  1
  Zr  Zr46  1  0.20560079  0.79020972  0.76423626  1
  Zr  Zr47  1  0.19903946  0.19151789  0.50134578  1
  Zr  Zr48  1  0.58564210  0.37966560  0.74010337  1
  Zr  Zr49  1  0.39715780  0.19344249  -0.01928704  1
  Zr  Zr50  1  0.19800571  -0.00938902  0.24923916  1
  Zr  Zr51  1  0.69707539  0.49662792  0.12122871  1
  Zr  Zr52  1  0.30055672  0.31098379  0.61990239  1
  Zr  Zr53  1  0.49755157  0.49929093  0.12550497  1
  Zr  Zr54  1  0.79793554  -0.00198129  0.48176738  1
  Zr  Zr55  1  0.10480076  0.70746926  0.62248145  1
  Zr  Zr56  1  -0.00595938  0.59934869  0.73314024  1
  Zr  Zr57  1  0.52254064  0.09548241  0.85178729  1
  Zr  Zr58  1  0.30500414  0.89972268  0.11810780  1
  Zr  Zr59  1  0.29794612  0.69841648  0.11550730  1
  Zr  Zr60  1  0.91172538  0.70264127  0.11534094  1
  Zr  Zr61  1  0.41490557  0.19772972  0.49605948  1
  Zr  Zr62  1  0.39533101  0.80471472  0.49480103  1
  Zr  Zr63  1  0.60484791  0.38949850  0.27231269  1
  Zr  Zr64  1  0.59798848  0.80225004  0.50243571  1
  Zr  Zr65  1  0.61129438  0.20268472  0.50399130  1
  Zr  Zr66  1  0.30507937  0.09147958  0.62987763  1
  Zr  Zr67  1  0.41236146  0.21352367  0.74825725  1
  Zr  Zr68  1  0.08550880  0.10710838  0.88834392  1
  Zr  Zr69  1  0.60123138  0.18695269  0.00635733  1
  Zr  Zr70  1  0.70602399  0.48748834  0.63876177  1
  Zr  Zr71  1  0.41246407  0.00491486  -0.00030224  1
  Zr  Zr72  1  0.51074380  0.51695090  0.37488150  1
  Zr  Zr73  1  0.80083068  0.60671945  0.73973959  1
  Zr  Zr74  1  0.79731852  -0.00695354  0.25329171  1
  Zr  Zr75  1  0.59871078  0.00421490  0.49829339  1
  Zr  Zr76  1  0.80329575  0.59115791  0.50106376  1
  Zr  Zr77  1  0.81188430  0.59107160  0.26571777  1
  Zr  Zr78  1  0.20363578  -0.00596169  0.48398182  1
  Zr  Zr79  1  0.59645862  0.60484177  -0.01010045  1
  Ta  Ta80  1  0.90035368  0.50417742  0.88099397  1
  Ta  Ta81  1  0.09840990  0.31143766  0.11973818  1
  Ta  Ta82  1  0.30020519  0.89154386  0.63245940  1
  Ta  Ta83  1  0.49856877  0.69943325  0.13723925  1
  Ta  Ta84  1  0.19838219  0.40844905  0.75672992  1
  Ta  Ta85  1  0.80758966  0.38942760  0.75935426  1
  Ta  Ta86  1  0.09438048  0.10591808  0.35560869  1
  Ta  Ta87  1  -0.00338686  0.59975471  0.50658368  1
  Ta  Ta88  1  0.09478713  0.50855110  0.11090541  1
  Ta  Ta89  1  0.30056983  0.10512451  0.35864106  1
  Ta  Ta90  1  0.20022361  0.20261737  0.00751425  1
  Ta  Ta91  1  0.51266917  0.89351097  0.86289726  1
  Ta  Ta92  1  0.19553567  0.79781075  -0.00271052  1
  Ta  Ta93  1  0.59413832  0.39933553  -0.02144147  1
  Ta  Ta94  1  -0.00027932  0.41493901  0.25016057  1
  Ta  Ta95  1  0.00629148  0.00465725  0.49274604  1
  Ta  Ta96  1  -0.01785318  0.00702700  0.02526366  1
  Ta  Ta97  1  0.71602499  0.88707329  0.62667032  1
  Ta  Ta98  1  -0.00485996  0.80575006  0.48737863  1
  Ta  Ta99  1  0.40944639  0.20804322  0.26501118  1
  Ta  Ta100  1  0.00461020  0.19547420  0.51106179  1
  Ta  Ta101  1  0.50643926  0.90941153  0.36174466  1
  Ta  Ta102  1  0.49460706  0.70018327  0.36760815  1
  Ta  Ta103  1  0.69616838  0.49913087  0.85962130  1
  Ta  Ta104  1  0.29855822  0.30224535  0.38419581  1
  Ta  Ta105  1  0.60715604  0.78836249  0.73659199  1
  Ta  Ta106  1  0.19897990  0.40622097  -0.01269980  1
  Ta  Ta107  1  0.40729567  0.40624038  0.50040135  1
  Ta  Ta108  1  0.29445406  0.50695436  0.62396648  1
  Ta  Ta109  1  0.39549144  0.60941323  0.51006134  1
  Ta  Ta110  1  0.20489578  0.21040783  0.24623920  1
  Ta  Ta111  1  0.88789740  0.29628483  0.60957894  1
  Ta  Ta112  1  -0.00209582  0.40413307  0.50987465  1
  Ta  Ta113  1  0.49906205  0.50057049  0.85688715  1
  Ta  Ta114  1  0.82039153  -0.01899698  0.74011354  1
  Ta  Ta115  1  0.09970865  0.30255242  0.62423096  1
  Ta  Ta116  1  0.09437952  0.69551076  0.11251712  1
  Ta  Ta117  1  0.79729080  0.79788735  0.47881352  1
  Ta  Ta118  1  0.19959897  0.60755685  0.50227331  1
  Ta  Ta119  1  0.30785524  0.10895882  0.13884562  1
  Ti  Ti120  1  0.48887979  0.49984513  0.63653560  1
  Ti  Ti121  1  0.68942905  0.10586907  0.35728255  1
  Ti  Ti122  1  0.79996225  0.20327517  0.24754628  1
  Ti  Ti123  1  0.69622620  0.09938864  0.14343211  1
  Ti  Ti124  1  0.90476309  0.30102795  0.13333377  1
  Ti  Ti125  1  0.40215096  0.00307450  0.25583347  1
  Ti  Ti126  1  0.79308826  0.59728839  -0.01035920  1
  Ti  Ti127  1  0.39497204  0.79982592  0.75480086  1
  Ti  Ti128  1  0.39033312  0.40397120  0.75554492  1
  Ti  Ti129  1  0.19959717  0.59942146  -0.01552541  1
  Ti  Ti130  1  0.10391434  0.50080295  0.62388997  1
  Ti  Ti131  1  0.09327811  0.50174073  0.87856799  1
  Ti  Ti132  1  0.79913117  0.80798288  0.01445041  1
  Ti  Ti133  1  0.50607202  0.70524862  0.86098753  1
  Ti  Ti134  1  0.49064204  0.70333585  0.63663887  1
  Ti  Ti135  1  0.41476962  0.79586538  -0.00425557  1
  Ti  Ti136  1  0.50290127  0.10055613  0.14648848  1
  Ti  Ti137  1  0.00129086  0.20252124  0.73516711  1
  Ti  Ti138  1  0.08144911  0.88268520  0.11791137  1
  Ti  Ti139  1  0.79368443  0.39226647  0.49056075  1
  Ti  Ti140  1  0.19609912  0.40503725  0.50365471  1
  Ti  Ti141  1  0.88640202  0.71903961  0.61284086  1
  Ti  Ti142  1  0.39679365  0.00473751  0.76199489  1
  Ti  Ti143  1  0.59793584  0.79681697  0.00527468  1
  Ti  Ti144  1  0.09300372  0.50351947  0.38615114  1
  Ti  Ti145  1  0.69576448  0.69758970  0.86577139  1
  Ti  Ti146  1  0.70150770  0.89483873  0.13221123  1
  Ti  Ti147  1  -0.00482855  -0.02844036  0.25279935  1
  Ti  Ti148  1  0.20724866  0.80059542  0.48329596  1
  Ti  Ti149  1  0.50014951  0.89691811  0.13496068  1
  Ti  Ti150  1  0.39323214  0.60473544  0.25634451  1
  Ti  Ti151  1  0.29915472  0.30727422  0.87998938  1
  Ti  Ti152  1  0.09391755  0.70005793  0.38609259  1
  Ti  Ti153  1  0.89357765  0.91213019  0.89393581  1
  Ti  Ti154  1  -0.00844327  0.20135939  0.01348976  1
  Ti  Ti155  1  0.00067136  0.60481680  0.26288307  1
  Ti  Ti156  1  0.89694297  0.09916573  0.60428031  1
  Ti  Ti157  1  0.19915677  0.59820842  0.75626384  1
  Ti  Ti158  1  -0.00369630  0.39831866  -0.00315835  1
  Ti  Ti159  1  0.80336719  0.00042421  0.02547695  1
  Mo  Mo160  1  0.09682823  0.90118469  0.38263295  1
  Mo  Mo161  1  0.89843831  0.89570475  0.12265772  1
  Mo  Mo162  1  0.50456635  0.10019530  0.35527266  1
  Mo  Mo163  1  -0.00404069  0.80594329  -0.00442793  1
  Mo  Mo164  1  0.71162122  0.29085652  0.63718372  1
  Mo  Mo165  1  0.60668739  0.19455052  0.72919460  1
  Mo  Mo166  1  0.90696211  0.29422767  0.88137725  1
  Mo  Mo167  1  0.50048638  0.30003986  0.38777691  1
  Mo  Mo168  1  0.80118028  0.19787108  0.49169788  1
  Mo  Mo169  1  0.61360015  -0.01357500  0.74066264  1
  Mo  Mo170  1  0.50388076  0.09826204  0.64226952  1
  Mo  Mo171  1  0.89980505  0.10214737  0.14838640  1
  Mo  Mo172  1  0.80128973  0.79970176  0.74832416  1
  Mo  Mo173  1  0.69614601  0.89550114  0.37171562  1
  Mo  Mo174  1  0.29587674  0.69724098  0.38408336  1
  Mo  Mo175  1  0.90251462  0.08943866  0.88511414  1
  Mo  Mo176  1  0.00562047  0.79103663  0.26549644  1
  Mo  Mo177  1  0.49970462  0.30529536  0.60995113  1
  Mo  Mo178  1  -0.00098777  0.59609350  -0.01019107  1
  Mo  Mo179  1  0.70210781  0.70233395  0.62438783  1
  Mo  Mo180  1  0.59437556  0.60037304  0.24273591  1
  Mo  Mo181  1  0.90908946  0.69458626  0.38481404  1
  Mo  Mo182  1  0.29920896  0.70444805  0.89051013  1
  Mo  Mo183  1  0.40210248  0.40416526  -0.02861330  1
  Mo  Mo184  1  0.30193879  0.90429558  0.36761862  1
  Mo  Mo185  1  0.90489156  0.90188491  0.38287874  1
  Mo  Mo186  1  0.59811235  -0.00140589  0.23936145  1
  Mo  Mo187  1  0.70507819  0.49473512  0.38448381  1
  Mo  Mo188  1  0.29470234  0.10373971  0.87790806  1
  Mo  Mo189  1  0.59996864  0.19907759  0.25219443  1
  Mo  Mo190  1  0.89987257  0.49026240  0.61361052  1
  Mo  Mo191  1  0.00191023  0.22115368  0.23952857  1
  Mo  Mo192  1  0.29230015  0.49958019  0.86731027  1
  Mo  Mo193  1  0.91309309  0.49388879  0.38901125  1
  Mo  Mo194  1  0.29732044  0.70444693  0.61605950  1
  Mo  Mo195  1  0.09850749  0.10490379  0.62441473  1
  Mo  Mo196  1  0.49832739  0.30361289  0.87991997  1
  Mo  Mo197  1  0.59204126  0.60173392  0.74784182  1
  Mo  Mo198  1  0.70835985  0.28945137  0.36940464  1
  Mo  Mo199  1  0.89909662  0.90137147  0.59991427  1
