# generated using pymatgen
data_HfZrTaTiMo
_symmetry_space_group_name_H-M   'P 1'
_cell_length_a   15.83909668
_cell_length_b   15.84123510
_cell_length_c   15.38117902
_cell_angle_alpha   90.04761337
_cell_angle_beta   89.98829862
_cell_angle_gamma   90.05595215
_symmetry_Int_Tables_number   1
_chemical_formula_structural   HfZrTaTiMo
_chemical_formula_sum   'Hf40 Zr40 Ta40 Ti40 Mo40'
_cell_volume   3859.30151389
_cell_formula_units_Z   40
loop_
 _symmetry_equiv_pos_site_id
 _symmetry_equiv_pos_as_xyz
  1  'x, y, z'
loop_
 _atom_site_type_symbol
 _atom_site_label
 _atom_site_symmetry_multiplicity
 _atom_site_fract_x
 _atom_site_fract_y
 _atom_site_fract_z
 _atom_site_occupancy
  Hf  Hf0  1  0.50268267  0.51474695  0.36844146  1
  Hf  Hf1  1  0.20083612  0.20018900  0.76303930  1
  Hf  Hf2  1  0.00598617  0.79421941  -0.00726585  1
  Hf  Hf3  1  0.90483906  0.10029761  0.37716212  1
  Hf  Hf4  1  0.58937387  0.59096559  0.00757233  1
  Hf  Hf5  1  0.29989199  0.09081923  0.61748346  1
  Hf  Hf6  1  0.90476074  0.70125032  0.61487074  1
  Hf  Hf7  1  0.60096109  0.19461684  0.50505754  1
  Hf  Hf8  1  0.29247568  0.69396009  0.12483059  1
  Hf  Hf9  1  0.90141601  0.90367994  0.38370485  1
  Hf  Hf10  1  0.29285572  0.89486452  0.62034215  1
  Hf  Hf11  1  0.30122148  0.29999837  0.12833340  1
  Hf  Hf12  1  0.89918654  0.30688772  0.11627350  1
  Hf  Hf13  1  0.19403080  0.19768730  0.49206101  1
  Hf  Hf14  1  0.08690092  0.69022004  0.13429227  1
  Hf  Hf15  1  0.20277203  0.59608198  0.51477424  1
  Hf  Hf16  1  0.90739583  0.30719683  0.62403083  1
  Hf  Hf17  1  0.10051749  0.90146497  0.64435032  1
  Hf  Hf18  1  0.59973486  0.20520149  -0.00606007  1
  Hf  Hf19  1  0.90105891  0.50599829  0.11757951  1
  Hf  Hf20  1  0.69151652  0.29518675  0.84729057  1
  Hf  Hf21  1  0.39443656  0.80246345  0.00668810  1
  Hf  Hf22  1  0.71080058  0.69272515  0.11434732  1
  Hf  Hf23  1  0.39557069  0.20094925  0.75708457  1
  Hf  Hf24  1  0.39730197  0.79795479  0.74666642  1
  Hf  Hf25  1  0.01293237  0.59838256  0.49706190  1
  Hf  Hf26  1  0.01665349  0.80865144  0.49672111  1
  Hf  Hf27  1  0.19991119  0.39938256  0.76541843  1
  Hf  Hf28  1  0.39989673  0.60042866  0.51057023  1
  Hf  Hf29  1  0.18141891  -0.00553465  0.48840175  1
  Hf  Hf30  1  0.29087659  0.88497894  0.38914799  1
  Hf  Hf31  1  0.79605039  0.00447307  -0.01182258  1
  Hf  Hf32  1  0.60337260  0.40895894  0.49977343  1
  Hf  Hf33  1  0.56360515  -0.00737289  0.49904542  1
  Hf  Hf34  1  0.30727427  0.10473545  0.12142467  1
  Hf  Hf35  1  0.31541943  0.50848374  0.87487903  1
  Hf  Hf36  1  0.00694333  0.19829750  0.51317719  1
  Hf  Hf37  1  0.40483725  0.17997364  0.48701968  1
  Hf  Hf38  1  0.81010927  0.40870670  0.74786585  1
  Hf  Hf39  1  0.90677662  0.09001648  0.85812315  1
  Zr  Zr40  1  0.30564566  0.69611558  0.36662031  1
  Zr  Zr41  1  0.80392790  0.78887216  0.26705526  1
  Zr  Zr42  1  0.70690320  0.08382414  0.62133824  1
  Zr  Zr43  1  0.09443067  0.90612306  0.86606900  1
  Zr  Zr44  1  0.19212260  -0.00120986  0.00783212  1
  Zr  Zr45  1  0.70440586  0.70423506  0.62189924  1
  Zr  Zr46  1  0.30076316  0.30497491  0.61116475  1
  Zr  Zr47  1  0.81424283  0.60411422  0.75192718  1
  Zr  Zr48  1  0.39919255  -0.00043435  0.76311187  1
  Zr  Zr49  1  0.90204654  0.29884747  0.87007782  1
  Zr  Zr50  1  -0.00886166  0.79006553  0.75495586  1
  Zr  Zr51  1  0.00786143  0.19242546  -0.00528531  1
  Zr  Zr52  1  0.10517782  0.30124701  0.13479485  1
  Zr  Zr53  1  0.89314611  0.09976863  0.12512112  1
  Zr  Zr54  1  0.79534739  0.39875541  0.27206859  1
  Zr  Zr55  1  0.20001388  0.19808803  -0.01654762  1
  Zr  Zr56  1  0.11510691  0.70398740  0.36667918  1
  Zr  Zr57  1  0.60100781  0.39963440  -0.00028970  1
  Zr  Zr58  1  0.49623423  0.91779632  0.12600337  1
  Zr  Zr59  1  0.49312397  0.30466434  0.62562971  1
  Zr  Zr60  1  0.59125981  0.79344269  0.00597551  1
  Zr  Zr61  1  0.18625880  0.59816509  -0.00872800  1
  Zr  Zr62  1  0.69295778  0.89773664  0.86496681  1
  Zr  Zr63  1  0.89275799  0.88561697  0.11619752  1
  Zr  Zr64  1  0.42265152  0.80072095  0.51411105  1
  Zr  Zr65  1  0.79581819  0.59553452  0.26687755  1
  Zr  Zr66  1  0.19751162  0.00236383  0.24453722  1
  Zr  Zr67  1  0.59053191  0.01323741  -0.01185918  1
  Zr  Zr68  1  0.49506112  0.68583231  0.86718469  1
  Zr  Zr69  1  0.70195455  0.90197333  0.11848253  1
  Zr  Zr70  1  0.60851716  0.20739842  0.27472567  1
  Zr  Zr71  1  0.68597051  0.50127778  0.85795249  1
  Zr  Zr72  1  0.69280840  0.10408475  0.13254294  1
  Zr  Zr73  1  0.50562933  0.29798463  0.14278579  1
  Zr  Zr74  1  0.49663976  0.31155731  0.38242885  1
  Zr  Zr75  1  0.41346841  0.40815009  0.00448922  1
  Zr  Zr76  1  0.60242410  0.79708506  0.24691427  1
  Zr  Zr77  1  0.09783877  0.30372424  0.36084189  1
  Zr  Zr78  1  0.39682909  -0.00051485  0.27300845  1
  Zr  Zr79  1  0.80268279  0.20543822  0.26436022  1
  Ta  Ta80  1  0.70733180  0.30551295  0.12173278  1
  Ta  Ta81  1  -0.00411812  0.00631931  0.51423085  1
  Ta  Ta82  1  0.29494239  0.50171160  0.36213157  1
  Ta  Ta83  1  0.01001272  0.40882373  -0.01352857  1
  Ta  Ta84  1  0.90800508  0.49797138  0.38700936  1
  Ta  Ta85  1  -0.00070629  0.80001278  0.25677585  1
  Ta  Ta86  1  0.50376112  0.70337440  0.36257740  1
  Ta  Ta87  1  0.79253392  0.20248516  -0.01305434  1
  Ta  Ta88  1  0.88642266  0.90817030  0.62529722  1
  Ta  Ta89  1  0.59229481  0.60962735  0.51313846  1
  Ta  Ta90  1  0.69211490  0.89517706  0.39557917  1
  Ta  Ta91  1  0.70142760  0.10247725  0.84828219  1
  Ta  Ta92  1  0.39716631  0.80332377  0.23617574  1
  Ta  Ta93  1  0.39804329  0.00852661  -0.01598103  1
  Ta  Ta94  1  0.89502700  0.89969574  0.87085115  1
  Ta  Ta95  1  0.00023629  -0.00739214  0.23842745  1
  Ta  Ta96  1  0.60041600  -0.00047844  0.27130278  1
  Ta  Ta97  1  0.70490542  0.08963144  0.39435757  1
  Ta  Ta98  1  0.79309077  -0.00612161  0.26337366  1
  Ta  Ta99  1  0.09732810  0.49745746  0.13911106  1
  Ta  Ta100  1  0.80729026  0.19480554  0.73346844  1
  Ta  Ta101  1  0.79929396  0.40165028  -0.01387209  1
  Ta  Ta102  1  0.41279913  0.19873111  -0.01453297  1
  Ta  Ta103  1  0.19826646  0.81314694  0.22888909  1
  Ta  Ta104  1  0.19990065  0.60002485  0.74991951  1
  Ta  Ta105  1  0.01409316  0.40660015  0.50091130  1
  Ta  Ta106  1  0.49566891  0.49614711  0.63426235  1
  Ta  Ta107  1  0.69626072  0.89590402  0.61092488  1
  Ta  Ta108  1  0.10977247  0.70347469  0.63668314  1
  Ta  Ta109  1  0.19468713  0.40347166  -0.00841150  1
  Ta  Ta110  1  0.70432157  0.30172493  0.62501921  1
  Ta  Ta111  1  0.70497462  0.50247451  0.61996909  1
  Ta  Ta112  1  0.29096693  0.70463234  0.87404851  1
  Ta  Ta113  1  0.29439235  0.30831819  0.37561761  1
  Ta  Ta114  1  0.30268894  0.49094241  0.63292557  1
  Ta  Ta115  1  0.29117442  0.49639081  0.13412492  1
  Ta  Ta116  1  0.00914077  0.20336333  0.74684100  1
  Ta  Ta117  1  0.39791755  0.40273890  0.25314327  1
  Ta  Ta118  1  0.69704436  0.70089182  0.87338713  1
  Ta  Ta119  1  0.39018508  0.19716074  0.26958455  1
  Ti  Ti120  1  0.79795467  0.59159948  -0.01557561  1
  Ti  Ti121  1  0.61693520  0.40873885  0.26792964  1
  Ti  Ti122  1  -0.01186306  0.60456822  0.26546369  1
  Ti  Ti123  1  0.50781701  0.50060131  0.14862631  1
  Ti  Ti124  1  0.59256881  0.79813043  0.73595709  1
  Ti  Ti125  1  0.79481074  0.80290738  0.75117106  1
  Ti  Ti126  1  0.09467821  0.09784755  0.36159672  1
  Ti  Ti127  1  0.80262061  0.59681225  0.49133138  1
  Ti  Ti128  1  0.89708351  0.69361548  0.11157399  1
  Ti  Ti129  1  0.00272773  0.19401944  0.24121570  1
  Ti  Ti130  1  0.80421398  0.40254030  0.49867396  1
  Ti  Ti131  1  0.50567800  0.31664279  0.85045858  1
  Ti  Ti132  1  0.00628337  0.59242976  0.75940658  1
  Ti  Ti133  1  0.10476582  0.31340940  0.62929607  1
  Ti  Ti134  1  0.89292824  0.70108285  0.88299931  1
  Ti  Ti135  1  0.10039948  0.09489045  0.64127765  1
  Ti  Ti136  1  0.39554889  0.60302958  0.73581119  1
  Ti  Ti137  1  0.20474120  0.00784595  0.76705547  1
  Ti  Ti138  1  0.49801820  0.10813121  0.13918300  1
  Ti  Ti139  1  0.40257783  0.60277707  0.23913346  1
  Ti  Ti140  1  0.00719135  0.41018196  0.76055855  1
  Ti  Ti141  1  -0.00969077  0.40407842  0.25489997  1
  Ti  Ti142  1  0.00512250  0.00013017  0.01299716  1
  Ti  Ti143  1  0.80180756  0.79430155  0.49141564  1
  Ti  Ti144  1  0.51281546  0.11175076  0.85459432  1
  Ti  Ti145  1  0.68848429  0.69106107  0.38605211  1
  Ti  Ti146  1  0.59710928  0.60156837  0.73527992  1
  Ti  Ti147  1  0.91134565  0.50143181  0.61549023  1
  Ti  Ti148  1  0.70461584  0.49411968  0.12563526  1
  Ti  Ti149  1  0.31093490  0.30597532  0.88635070  1
  Ti  Ti150  1  0.19379558  0.80269260  0.00688524  1
  Ti  Ti151  1  0.80704371  0.19581019  0.50917159  1
  Ti  Ti152  1  0.10833731  0.50004273  0.35316680  1
  Ti  Ti153  1  0.00127927  0.59514632  -0.02043209  1
  Ti  Ti154  1  0.50076241  0.89559244  0.87185380  1
  Ti  Ti155  1  0.59379580  -0.00389139  0.73659221  1
  Ti  Ti156  1  0.40434418  0.60063034  0.01422747  1
  Ti  Ti157  1  0.19678319  0.41086255  0.49846548  1
  Ti  Ti158  1  0.90561383  0.30071633  0.38990842  1
  Ti  Ti159  1  0.29426926  0.89672266  0.88069420  1
  Mo  Mo160  1  0.39149931  -0.00388662  0.49157821  1
  Mo  Mo161  1  0.20120771  0.40155428  0.24945887  1
  Mo  Mo162  1  0.80078986  0.79154912  -0.01757860  1
  Mo  Mo163  1  0.80303420  -0.00531416  0.49269507  1
  Mo  Mo164  1  0.60314875  0.40367883  0.72490563  1
  Mo  Mo165  1  0.60086986  0.79543819  0.49943535  1
  Mo  Mo166  1  0.09485306  0.90258182  0.36235823  1
  Mo  Mo167  1  0.49785653  0.69125566  0.13850760  1
  Mo  Mo168  1  0.49618655  0.88905538  0.36258995  1
  Mo  Mo169  1  0.49615165  0.09691852  0.64154333  1
  Mo  Mo170  1  0.90176851  0.50342930  0.88517565  1
  Mo  Mo171  1  0.39912809  0.40391277  0.76042868  1
  Mo  Mo172  1  0.79719337  -0.00962743  0.75296499  1
  Mo  Mo173  1  0.60011756  0.19618672  0.72875410  1
  Mo  Mo174  1  0.09651360  0.09711801  0.85747999  1
  Mo  Mo175  1  0.90441101  0.09930305  0.63145390  1
  Mo  Mo176  1  0.10230493  0.69996306  0.86248237  1
  Mo  Mo177  1  0.19775617  0.60048151  0.24180517  1
  Mo  Mo178  1  0.29643394  0.69625787  0.63644539  1
  Mo  Mo179  1  0.30021811  0.90138482  0.11012716  1
  Mo  Mo180  1  0.50175234  0.90062657  0.63884637  1
  Mo  Mo181  1  0.09821495  0.10141213  0.14108018  1
  Mo  Mo182  1  0.20390280  0.79763193  0.75783059  1
  Mo  Mo183  1  0.50179466  0.09948463  0.36446705  1
  Mo  Mo184  1  0.90381514  0.69766245  0.39265539  1
  Mo  Mo185  1  0.20489016  0.19717617  0.26275346  1
  Mo  Mo186  1  0.29124542  0.09984749  0.38464375  1
  Mo  Mo187  1  0.60531272  0.59663324  0.24359363  1
  Mo  Mo188  1  0.09220091  0.89394122  0.12637004  1
  Mo  Mo189  1  0.50153863  0.69556189  0.63843437  1
  Mo  Mo190  1  0.70067778  0.50586161  0.39973103  1
  Mo  Mo191  1  0.49862081  0.49993779  0.84923596  1
  Mo  Mo192  1  0.09942356  0.30334289  0.87430590  1
  Mo  Mo193  1  -0.00489632  0.00073543  0.73318700  1
  Mo  Mo194  1  0.38887382  0.41445727  0.48318823  1
  Mo  Mo195  1  0.09905526  0.49675573  0.63978785  1
  Mo  Mo196  1  0.10218173  0.50235063  0.86393131  1
  Mo  Mo197  1  0.71356174  0.29622994  0.40879992  1
  Mo  Mo198  1  0.30339754  0.10186818  0.88537949  1
  Mo  Mo199  1  0.19965693  0.79290577  0.51430250  1
