# generated using pymatgen
data_HfZrTaTiMo
_symmetry_space_group_name_H-M   'P 1'
_cell_length_a   15.82128756
_cell_length_b   15.84021480
_cell_length_c   15.37886324
_cell_angle_alpha   89.98155800
_cell_angle_beta   89.99308774
_cell_angle_gamma   90.12607778
_symmetry_Int_Tables_number   1
_chemical_formula_structural   HfZrTaTiMo
_chemical_formula_sum   'Hf40 Zr40 Ta40 Ti40 Mo40'
_cell_volume   3854.12724189
_cell_formula_units_Z   40
loop_
 _symmetry_equiv_pos_site_id
 _symmetry_equiv_pos_as_xyz
  1  'x, y, z'
loop_
 _atom_site_type_symbol
 _atom_site_label
 _atom_site_symmetry_multiplicity
 _atom_site_fract_x
 _atom_site_fract_y
 _atom_site_fract_z
 _atom_site_occupancy
  Hf  Hf0  1  -0.00554630  -0.00616625  0.72905923  1
  Hf  Hf1  1  -0.01380914  0.18832678  0.27367135  1
  Hf  Hf2  1  0.50384503  0.10051279  0.12546802  1
  Hf  Hf3  1  0.11748624  0.89230956  0.61729698  1
  Hf  Hf4  1  -0.01092029  0.40671428  0.00155823  1
  Hf  Hf5  1  0.10065889  0.88250691  0.39499016  1
  Hf  Hf6  1  0.70053736  0.30668898  0.62629663  1
  Hf  Hf7  1  0.10198465  0.50400103  0.87478565  1
  Hf  Hf8  1  0.30342754  0.90026968  0.13576473  1
  Hf  Hf9  1  0.80637665  -0.00934759  -0.00540882  1
  Hf  Hf10  1  0.40733209  0.19920873  0.76766988  1
  Hf  Hf11  1  0.71259467  0.11130537  0.13514367  1
  Hf  Hf12  1  0.59303270  0.60169860  0.49927105  1
  Hf  Hf13  1  0.38719598  0.58659704  0.49174174  1
  Hf  Hf14  1  0.39950265  0.40374349  0.00466451  1
  Hf  Hf15  1  0.49577480  0.49354167  0.36023855  1
  Hf  Hf16  1  0.19290645  0.81547486  0.00584682  1
  Hf  Hf17  1  0.01026344  -0.01560056  -0.00495331  1
  Hf  Hf18  1  -0.00055901  0.00509830  0.49823181  1
  Hf  Hf19  1  0.30115827  0.10495496  0.13890875  1
  Hf  Hf20  1  0.40457892  -0.00177532  0.75840692  1
  Hf  Hf21  1  0.09289454  0.50611781  0.12421888  1
  Hf  Hf22  1  0.59906920  0.80960388  0.73483804  1
  Hf  Hf23  1  0.00943323  0.79715242  0.24999681  1
  Hf  Hf24  1  0.40546299  0.40014639  0.76687236  1
  Hf  Hf25  1  0.31652641  0.88708679  0.60921751  1
  Hf  Hf26  1  0.80349894  0.00132700  0.72937528  1
  Hf  Hf27  1  -0.00457497  0.19306827  0.75265281  1
  Hf  Hf28  1  0.79370349  0.59581378  0.50744987  1
  Hf  Hf29  1  -0.00572091  0.78891013  0.72952792  1
  Hf  Hf30  1  0.50530314  0.89934379  0.88242333  1
  Hf  Hf31  1  0.50138463  0.88675361  0.13152132  1
  Hf  Hf32  1  0.61647974  0.00747026  0.00020260  1
  Hf  Hf33  1  0.79049772  0.19658060  0.75802269  1
  Hf  Hf34  1  0.40297213  0.20793672  0.50724123  1
  Hf  Hf35  1  0.81029328  0.01300594  0.27054742  1
  Hf  Hf36  1  0.39118326  0.00265711  -0.00901703  1
  Hf  Hf37  1  0.20756640  0.42033032  0.49988564  1
  Hf  Hf38  1  0.31620607  0.11500060  0.36666292  1
  Hf  Hf39  1  0.50096112  0.09533187  0.61802115  1
  Zr  Zr40  1  0.29950658  0.09392266  0.62610306  1
  Zr  Zr41  1  0.00277379  0.58989123  0.51940668  1
  Zr  Zr42  1  0.09761716  0.30405157  0.61752820  1
  Zr  Zr43  1  0.89094653  0.29922055  0.61432094  1
  Zr  Zr44  1  0.48842546  0.29453448  0.35296191  1
  Zr  Zr45  1  0.09181598  0.28503968  0.11829239  1
  Zr  Zr46  1  0.60098183  0.41031333  0.22624794  1
  Zr  Zr47  1  0.39523326  0.79337560  0.75809738  1
  Zr  Zr48  1  0.19277045  -0.00408000  0.26665184  1
  Zr  Zr49  1  0.10016766  0.70036043  0.11927823  1
  Zr  Zr50  1  0.48651320  0.70765958  0.61494694  1
  Zr  Zr51  1  0.79742261  0.61024504  0.74546198  1
  Zr  Zr52  1  0.40831183  0.60603440  0.24311455  1
  Zr  Zr53  1  0.31148162  0.71042296  0.12037570  1
  Zr  Zr54  1  0.90127937  0.69555990  0.38775348  1
  Zr  Zr55  1  0.70812383  0.31059787  0.38631423  1
  Zr  Zr56  1  0.20239771  0.20037608  0.76000526  1
  Zr  Zr57  1  0.20635627  0.18809674  -0.00599731  1
  Zr  Zr58  1  0.79005918  0.59532421  0.25125762  1
  Zr  Zr59  1  0.10177227  0.30292926  0.88406084  1
  Zr  Zr60  1  -0.01582062  0.39293076  0.24005360  1
  Zr  Zr61  1  0.89383543  0.88795300  0.38562848  1
  Zr  Zr62  1  0.90676231  0.09675779  0.11868780  1
  Zr  Zr63  1  0.89753785  0.69524728  0.12592786  1
  Zr  Zr64  1  0.49040713  0.50468710  0.64398539  1
  Zr  Zr65  1  0.10503929  0.89089763  0.84888190  1
  Zr  Zr66  1  0.29621365  0.30962855  0.64057580  1
  Zr  Zr67  1  0.61062043  0.20340210  0.25147630  1
  Zr  Zr68  1  0.09541093  0.50723513  0.36463782  1
  Zr  Zr69  1  0.39500698  0.39720872  0.50712077  1
  Zr  Zr70  1  0.21304968  0.00444985  0.48560004  1
  Zr  Zr71  1  0.61070511  0.80788424  -0.00066501  1
  Zr  Zr72  1  0.69933661  0.70462753  0.87102720  1
  Zr  Zr73  1  0.09251563  0.31024508  0.38169978  1
  Zr  Zr74  1  0.80989863  0.80497829  -0.00116269  1
  Zr  Zr75  1  -0.00130163  0.40077494  0.75150359  1
  Zr  Zr76  1  0.58938746  0.40243035  0.50967490  1
  Zr  Zr77  1  0.41294373  -0.00556013  0.26483371  1
  Zr  Zr78  1  0.88109258  0.28018619  0.10980646  1
  Zr  Zr79  1  0.88824355  0.30002095  0.88397496  1
  Ta  Ta80  1  0.20550116  0.79700130  0.25985622  1
  Ta  Ta81  1  0.79545109  -0.00311395  0.50703117  1
  Ta  Ta82  1  0.88676799  0.48242214  0.37653379  1
  Ta  Ta83  1  0.59615484  0.20356498  0.50254697  1
  Ta  Ta84  1  0.70114499  0.10214263  0.38975516  1
  Ta  Ta85  1  0.10050603  0.69942931  0.87504087  1
  Ta  Ta86  1  0.68921432  0.71533074  0.38416216  1
  Ta  Ta87  1  0.29185572  0.69104776  0.61606599  1
  Ta  Ta88  1  0.79757821  0.59801962  -0.00736821  1
  Ta  Ta89  1  0.40101159  0.60000098  -0.00384828  1
  Ta  Ta90  1  0.20232105  0.20841878  0.48637611  1
  Ta  Ta91  1  0.29843445  0.69601490  0.37801657  1
  Ta  Ta92  1  0.29837665  0.50605613  0.87353897  1
  Ta  Ta93  1  0.69461727  0.70146044  0.12161118  1
  Ta  Ta94  1  0.59116235  0.60514556  0.75680357  1
  Ta  Ta95  1  0.10351304  0.10687157  0.61628337  1
  Ta  Ta96  1  0.29547794  0.49630828  0.34699316  1
  Ta  Ta97  1  0.09901773  0.09033325  0.13553389  1
  Ta  Ta98  1  0.20184341  0.59922606  -0.00038215  1
  Ta  Ta99  1  0.78939334  0.39176697  0.23235763  1
  Ta  Ta100  1  0.80675778  0.80836530  0.72975052  1
  Ta  Ta101  1  0.29505163  0.70644546  0.88677643  1
  Ta  Ta102  1  0.51590919  0.87911588  0.38271196  1
  Ta  Ta103  1  0.11017309  0.08216820  0.85773992  1
  Ta  Ta104  1  0.60423519  0.00696094  0.74248394  1
  Ta  Ta105  1  0.70791592  0.90240528  0.14663119  1
  Ta  Ta106  1  0.19728764  0.39657869  0.23502606  1
  Ta  Ta107  1  0.19164704  0.20216198  0.26080497  1
  Ta  Ta108  1  0.69740836  0.50293702  0.37369091  1
  Ta  Ta109  1  0.70952631  0.90771321  0.85468290  1
  Ta  Ta110  1  0.89014791  0.50409715  0.86748880  1
  Ta  Ta111  1  0.50890263  0.69577489  0.10843127  1
  Ta  Ta112  1  0.50295076  0.29747353  0.11311337  1
  Ta  Ta113  1  0.88746009  0.49172309  0.64043670  1
  Ta  Ta114  1  0.90238140  0.08533041  0.87302594  1
  Ta  Ta115  1  0.29862717  0.50379853  0.12801768  1
  Ta  Ta116  1  0.40062110  0.19970242  -0.00746723  1
  Ta  Ta117  1  0.90703763  0.90106574  0.14250534  1
  Ta  Ta118  1  0.00054571  0.60263642  0.74402955  1
  Ta  Ta119  1  -0.00233870  0.80450676  -0.00245248  1
  Ti  Ti120  1  0.69663516  0.70574362  0.61837935  1
  Ti  Ti121  1  0.20225368  0.40303454  0.01326591  1
  Ti  Ti122  1  0.69945501  0.10769929  0.61178677  1
  Ti  Ti123  1  0.68879156  0.30251653  0.88508709  1
  Ti  Ti124  1  0.20706379  0.61083916  0.75744593  1
  Ti  Ti125  1  0.88886175  0.50358942  0.12176620  1
  Ti  Ti126  1  0.49701495  0.70021807  0.88635908  1
  Ti  Ti127  1  0.68516962  0.51351397  0.10617356  1
  Ti  Ti128  1  -0.00774135  0.60461773  -0.01104246  1
  Ti  Ti129  1  0.31578314  0.88729380  0.38050823  1
  Ti  Ti130  1  0.69511571  0.49675276  0.87400558  1
  Ti  Ti131  1  0.29560353  0.30804121  0.88055362  1
  Ti  Ti132  1  0.00569780  0.18025214  -0.01614321  1
  Ti  Ti133  1  0.79612398  0.79509069  0.25166786  1
  Ti  Ti134  1  0.89850569  0.11205364  0.60641340  1
  Ti  Ti135  1  0.51143020  0.30165444  0.89309287  1
  Ti  Ti136  1  0.28808080  0.90434624  0.86576030  1
  Ti  Ti137  1  0.00414859  -0.00056417  0.27057809  1
  Ti  Ti138  1  0.90365966  0.70480406  0.87129657  1
  Ti  Ti139  1  0.59965531  0.39705845  0.75706357  1
  Ti  Ti140  1  0.30451908  0.29641721  0.13190225  1
  Ti  Ti141  1  0.30316249  0.31015679  0.35366840  1
  Ti  Ti142  1  0.78631322  0.40490883  0.00495017  1
  Ti  Ti143  1  0.60241453  -0.00874643  0.50579754  1
  Ti  Ti144  1  0.60847283  -0.00376539  0.25997383  1
  Ti  Ti145  1  0.19606972  0.60715900  0.24537328  1
  Ti  Ti146  1  0.50915425  0.09436073  0.38391100  1
  Ti  Ti147  1  0.11358090  0.69852509  0.61686694  1
  Ti  Ti148  1  0.19723730  0.00157651  0.00434751  1
  Ti  Ti149  1  0.10617907  0.69498861  0.39227300  1
  Ti  Ti150  1  0.11813488  0.50404901  0.64182154  1
  Ti  Ti151  1  0.69972150  0.89483110  0.37859611  1
  Ti  Ti152  1  0.59938037  0.61292676  0.25382956  1
  Ti  Ti153  1  -0.00912598  0.59882887  0.25418377  1
  Ti  Ti154  1  -0.00991351  0.40494690  0.50467364  1
  Ti  Ti155  1  0.59813240  0.20172262  0.75015067  1
  Ti  Ti156  1  0.78107415  0.18356578  -0.02225839  1
  Ti  Ti157  1  0.51474691  0.10457608  0.88326789  1
  Ti  Ti158  1  0.69604604  0.49875375  0.63918443  1
  Ti  Ti159  1  0.50798616  0.50469628  0.88459737  1
  Mo  Mo160  1  0.20241939  0.59428013  0.50002480  1
  Mo  Mo161  1  0.69767513  0.90601410  0.62512821  1
  Mo  Mo162  1  0.20394846  0.41068910  0.75511535  1
  Mo  Mo163  1  0.60745591  0.79404475  0.24372437  1
  Mo  Mo164  1  0.41021420  0.79268777  0.26865004  1
  Mo  Mo165  1  0.60175074  0.60172381  -0.01520712  1
  Mo  Mo166  1  0.40494155  0.79077295  0.48432403  1
  Mo  Mo167  1  0.79628984  0.19922248  0.49624585  1
  Mo  Mo168  1  0.50003776  0.90620708  0.60496394  1
  Mo  Mo169  1  0.20456242  -0.00229122  0.73285698  1
  Mo  Mo170  1  0.50607218  0.29417014  0.64341871  1
  Mo  Mo171  1  0.90022397  0.89404977  0.60320128  1
  Mo  Mo172  1  0.10230781  0.10435518  0.38598950  1
  Mo  Mo173  1  0.20767614  0.78908225  0.48842383  1
  Mo  Mo174  1  0.40022242  0.60377473  0.77573017  1
  Mo  Mo175  1  0.69834153  0.29972698  0.10288376  1
  Mo  Mo176  1  0.60057514  0.40356853  0.00150408  1
  Mo  Mo177  1  0.60021705  0.20090176  -0.00297774  1
  Mo  Mo178  1  0.29551712  0.51144515  0.65457866  1
  Mo  Mo179  1  0.00095360  0.20030802  0.49355696  1
  Mo  Mo180  1  0.09703882  0.90592331  0.13841160  1
  Mo  Mo181  1  0.50254699  0.69936685  0.38121743  1
  Mo  Mo182  1  0.79655269  0.41213051  0.50576511  1
  Mo  Mo183  1  0.78587412  0.40367652  0.76571938  1
  Mo  Mo184  1  0.89980286  0.89362133  0.86246123  1
  Mo  Mo185  1  0.20348673  0.79011590  0.74775458  1
  Mo  Mo186  1  0.41545253  -0.00371277  0.48316327  1
  Mo  Mo187  1  0.29998126  0.09221303  0.87295368  1
  Mo  Mo188  1  0.89468173  0.10352417  0.39748342  1
  Mo  Mo189  1  0.89941346  0.69507893  0.61506544  1
  Mo  Mo190  1  0.50152891  0.50932135  0.11134289  1
  Mo  Mo191  1  0.60633201  0.80420266  0.51494231  1
  Mo  Mo192  1  0.69808008  0.09691219  0.86236045  1
  Mo  Mo193  1  0.89276145  0.30360075  0.38897220  1
  Mo  Mo194  1  0.40112547  0.20412157  0.23510501  1
  Mo  Mo195  1  0.80304310  0.20775511  0.27162044  1
  Mo  Mo196  1  0.00155620  0.79061833  0.51632191  1
  Mo  Mo197  1  0.79432106  0.79893005  0.51475721  1
  Mo  Mo198  1  0.39555228  0.40088601  0.22250185  1
  Mo  Mo199  1  0.39747659  0.80197719  -0.01328351  1
