# generated using pymatgen
data_HfZrTaTiMo
_symmetry_space_group_name_H-M   'P 1'
_cell_length_a   15.83489200
_cell_length_b   15.83932376
_cell_length_c   15.41024215
_cell_angle_alpha   90.03102913
_cell_angle_beta   90.04426548
_cell_angle_gamma   89.85074668
_symmetry_Int_Tables_number   1
_chemical_formula_structural   HfZrTaTiMo
_chemical_formula_sum   'Hf40 Zr40 Ta40 Ti40 Mo40'
_cell_volume   3865.08935390
_cell_formula_units_Z   40
loop_
 _symmetry_equiv_pos_site_id
 _symmetry_equiv_pos_as_xyz
  1  'x, y, z'
loop_
 _atom_site_type_symbol
 _atom_site_label
 _atom_site_symmetry_multiplicity
 _atom_site_fract_x
 _atom_site_fract_y
 _atom_site_fract_z
 _atom_site_occupancy
  Hf  Hf0  1  0.70784644  0.30154599  0.38895603  1
  Hf  Hf1  1  0.80385461  0.19766421  0.52811697  1
  Hf  Hf2  1  0.91943603  0.89554953  0.63017449  1
  Hf  Hf3  1  0.19411912  0.40772643  0.50395408  1
  Hf  Hf4  1  0.49980992  0.89841506  0.37558170  1
  Hf  Hf5  1  0.68898118  0.08471006  0.63258117  1
  Hf  Hf6  1  0.89552087  0.30684621  0.10499320  1
  Hf  Hf7  1  0.69868089  0.09600896  0.38048665  1
  Hf  Hf8  1  0.40007383  0.81027279  0.72744017  1
  Hf  Hf9  1  0.00532586  0.19433346  0.51869186  1
  Hf  Hf10  1  0.01612856  0.79331917  0.23097680  1
  Hf  Hf11  1  0.29999509  0.89037852  0.87736447  1
  Hf  Hf12  1  0.49798966  0.50195221  0.13262675  1
  Hf  Hf13  1  0.00633965  0.00486515  -0.00834644  1
  Hf  Hf14  1  0.40787404  0.19483186  0.73234064  1
  Hf  Hf15  1  0.81604676  0.00505500  0.74864302  1
  Hf  Hf16  1  0.89561240  0.50461050  0.10403195  1
  Hf  Hf17  1  0.88974525  0.29917383  0.88740117  1
  Hf  Hf18  1  0.79545396  0.20448431  0.74299800  1
  Hf  Hf19  1  0.60311346  0.20075747  0.51046887  1
  Hf  Hf20  1  0.11307165  0.30104882  0.86735496  1
  Hf  Hf21  1  0.88732030  0.70753840  0.64134475  1
  Hf  Hf22  1  0.01075787  0.19855906  -0.00518798  1
  Hf  Hf23  1  0.69707697  0.89670586  0.36521586  1
  Hf  Hf24  1  0.60412075  0.39208925  -0.00702700  1
  Hf  Hf25  1  0.70835826  0.88582463  0.63233581  1
  Hf  Hf26  1  0.80906494  0.79148107  0.24774500  1
  Hf  Hf27  1  0.38999713  0.80539327  0.51418825  1
  Hf  Hf28  1  0.79811897  0.78792535  0.49118148  1
  Hf  Hf29  1  0.69769824  0.90694185  0.86492201  1
  Hf  Hf30  1  0.29576315  0.69749139  0.86426526  1
  Hf  Hf31  1  0.80906159  -0.00392653  0.50930314  1
  Hf  Hf32  1  0.10382736  0.71992625  0.39114919  1
  Hf  Hf33  1  0.49263469  0.49775151  0.38365824  1
  Hf  Hf34  1  0.10467932  0.10037798  0.36682363  1
  Hf  Hf35  1  0.51312802  0.68970459  0.62066178  1
  Hf  Hf36  1  0.10712522  0.70392230  0.87344891  1
  Hf  Hf37  1  0.89527231  0.90538171  0.11054004  1
  Hf  Hf38  1  -0.00172066  0.18824614  0.74633321  1
  Hf  Hf39  1  0.09083685  0.71019708  0.63484888  1
  Zr  Zr40  1  -0.00875019  0.60495613  0.24777000  1
  Zr  Zr41  1  0.59681832  0.60809828  0.00356503  1
  Zr  Zr42  1  0.19786706  0.19722197  0.51428403  1
  Zr  Zr43  1  0.78964803  0.40028852  0.75999350  1
  Zr  Zr44  1  0.30211427  0.29725492  0.37947071  1
  Zr  Zr45  1  0.40250878  0.19840644  0.23880669  1
  Zr  Zr46  1  0.20494486  -0.01444685  0.25324736  1
  Zr  Zr47  1  0.30065572  0.29091922  0.86950868  1
  Zr  Zr48  1  0.91692627  0.89546823  0.37591992  1
  Zr  Zr49  1  0.39554946  0.60643911  0.00464898  1
  Zr  Zr50  1  0.40012318  0.18419779  0.01498127  1
  Zr  Zr51  1  0.68899638  0.49206781  0.60892755  1
  Zr  Zr52  1  0.59891353  0.39396664  0.25092440  1
  Zr  Zr53  1  0.39500407  0.00170511  0.75128968  1
  Zr  Zr54  1  0.68514014  0.91467906  0.14163818  1
  Zr  Zr55  1  0.79383194  0.59128359  0.74997418  1
  Zr  Zr56  1  -0.01596566  0.20836524  0.24014826  1
  Zr  Zr57  1  0.11841799  0.88874039  0.10282838  1
  Zr  Zr58  1  0.40448526  0.39654059  0.74962600  1
  Zr  Zr59  1  0.10977385  0.10775883  0.13298343  1
  Zr  Zr60  1  0.19916313  0.40397590  0.24903228  1
  Zr  Zr61  1  0.89835652  0.10754883  0.37509185  1
  Zr  Zr62  1  0.80515480  0.39553979  0.25286209  1
  Zr  Zr63  1  0.90532732  0.32020243  0.61851945  1
  Zr  Zr64  1  0.60803901  0.19750921  0.24512725  1
  Zr  Zr65  1  0.49163952  0.70352183  0.86626025  1
  Zr  Zr66  1  0.70880679  0.50112656  0.11735833  1
  Zr  Zr67  1  0.41756356  -0.01285168  0.00410497  1
  Zr  Zr68  1  0.59545413  0.80148249  0.74388701  1
  Zr  Zr69  1  -0.00227617  0.60562065  0.51021941  1
  Zr  Zr70  1  0.29877159  0.50388281  0.13734204  1
  Zr  Zr71  1  0.22190698  0.01544117  -0.00180101  1
  Zr  Zr72  1  0.39829956  0.39636836  -0.00145015  1
  Zr  Zr73  1  0.58041117  0.81217905  0.00321237  1
  Zr  Zr74  1  0.09633254  0.30068216  0.37027050  1
  Zr  Zr75  1  -0.00496765  0.40956976  0.76395461  1
  Zr  Zr76  1  0.60148512  0.60436610  0.25673278  1
  Zr  Zr77  1  0.78660339  0.79966125  0.00045724  1
  Zr  Zr78  1  -0.00273463  -0.00316562  0.23691199  1
  Zr  Zr79  1  0.49467093  0.70520923  0.37669251  1
  Ta  Ta80  1  0.50556054  0.31113860  0.60876520  1
  Ta  Ta81  1  0.09304641  0.50402348  0.11727786  1
  Ta  Ta82  1  0.49645473  0.29658800  0.39118884  1
  Ta  Ta83  1  0.69084878  0.10778042  0.86478711  1
  Ta  Ta84  1  0.89323451  0.70054469  0.87641446  1
  Ta  Ta85  1  0.90046226  0.90119441  0.88277756  1
  Ta  Ta86  1  0.49657216  0.09921010  0.38787610  1
  Ta  Ta87  1  0.90049627  0.49598515  0.39204080  1
  Ta  Ta88  1  0.70540539  0.50114758  0.38475885  1
  Ta  Ta89  1  0.20255824  0.40179299  0.00706042  1
  Ta  Ta90  1  0.29311451  0.70059770  0.37606706  1
  Ta  Ta91  1  0.29495525  0.49834111  0.63192712  1
  Ta  Ta92  1  0.20197044  -0.01624400  0.48971213  1
  Ta  Ta93  1  0.09772019  0.51126856  0.37703984  1
  Ta  Ta94  1  0.39991346  0.59730889  0.73585562  1
  Ta  Ta95  1  0.50819400  0.28513215  0.87818102  1
  Ta  Ta96  1  0.49316290  0.08682250  0.60000301  1
  Ta  Ta97  1  0.30076343  0.08542819  0.60683406  1
  Ta  Ta98  1  0.59919258  0.39633257  0.75890723  1
  Ta  Ta99  1  0.00775282  0.40531879  -0.01065015  1
  Ta  Ta100  1  0.20145834  0.60288326  0.51087884  1
  Ta  Ta101  1  0.38838724  0.60059550  0.51084997  1
  Ta  Ta102  1  0.30420011  0.09854922  0.37920227  1
  Ta  Ta103  1  0.40110058  -0.00339135  0.25584341  1
  Ta  Ta104  1  0.29317966  0.49969770  0.86232188  1
  Ta  Ta105  1  0.11166515  0.89817588  0.63483793  1
  Ta  Ta106  1  0.20947255  0.18837028  0.73418765  1
  Ta  Ta107  1  0.69535281  0.69694047  0.86040359  1
  Ta  Ta108  1  -0.00588252  0.59684580  0.76074978  1
  Ta  Ta109  1  -0.00285795  0.40957190  0.25079366  1
  Ta  Ta110  1  0.00125673  0.79545162  -0.00604363  1
  Ta  Ta111  1  0.50020882  0.49841422  0.61594810  1
  Ta  Ta112  1  0.18652117  0.61551125  0.24392496  1
  Ta  Ta113  1  0.69771148  0.70193214  0.13534110  1
  Ta  Ta114  1  0.90267338  0.30687600  0.39245922  1
  Ta  Ta115  1  0.19798722  0.59870835  0.00419079  1
  Ta  Ta116  1  0.50552668  0.10133292  0.87227789  1
  Ta  Ta117  1  0.10176132  0.30845171  0.12552240  1
  Ta  Ta118  1  0.29454695  0.51185752  0.37394058  1
  Ta  Ta119  1  0.10973799  0.50235697  0.87538241  1
  Ti  Ti120  1  0.28585361  0.70363408  0.63244144  1
  Ti  Ti121  1  0.28870183  0.71054074  0.12765489  1
  Ti  Ti122  1  0.89830696  0.50102642  0.61234269  1
  Ti  Ti123  1  0.12354505  0.10380348  0.86927273  1
  Ti  Ti124  1  0.38971294  0.60952479  0.25388492  1
  Ti  Ti125  1  -0.00143210  0.60133179  -0.01541243  1
  Ti  Ti126  1  0.09233322  0.49796845  0.63092559  1
  Ti  Ti127  1  0.60114356  0.00353974  -0.00791503  1
  Ti  Ti128  1  0.58052705  -0.00482221  0.74706432  1
  Ti  Ti129  1  0.11139101  0.89795820  0.87508829  1
  Ti  Ti130  1  0.80182857  0.60035046  0.26048131  1
  Ti  Ti131  1  0.71338540  0.28777263  0.11086746  1
  Ti  Ti132  1  0.79227985  0.60585548  0.50058280  1
  Ti  Ti133  1  0.90564463  0.69687441  0.38070371  1
  Ti  Ti134  1  0.60509612  0.18878793  0.00733138  1
  Ti  Ti135  1  0.78751361  0.01165540  -0.00389527  1
  Ti  Ti136  1  0.30193233  0.30126614  0.62218110  1
  Ti  Ti137  1  0.48873697  0.71720651  0.14082922  1
  Ti  Ti138  1  0.60933183  0.79560721  0.50479564  1
  Ti  Ti139  1  0.10646029  0.08069399  0.63291420  1
  Ti  Ti140  1  0.39954158  0.39392541  0.25116840  1
  Ti  Ti141  1  0.49908811  0.50397202  0.86858373  1
  Ti  Ti142  1  0.31431555  0.88810443  0.12726707  1
  Ti  Ti143  1  0.29342690  0.88239409  0.37179901  1
  Ti  Ti144  1  0.88127207  0.11179076  0.11243920  1
  Ti  Ti145  1  0.01039280  0.00089622  0.76614176  1
  Ti  Ti146  1  0.89392119  0.10125169  0.88355106  1
  Ti  Ti147  1  0.79814696  0.01741690  0.24337057  1
  Ti  Ti148  1  0.01216645  -0.00410710  0.50033095  1
  Ti  Ti149  1  0.89348056  0.69333982  0.10588034  1
  Ti  Ti150  1  0.19365348  0.59381463  0.74186799  1
  Ti  Ti151  1  0.39272494  0.40448970  0.50360491  1
  Ti  Ti152  1  0.10432827  0.30983653  0.63904390  1
  Ti  Ti153  1  0.21489467  0.20678563  0.01686072  1
  Ti  Ti154  1  0.60790337  0.60860084  0.48678834  1
  Ti  Ti155  1  0.69841966  0.50321688  0.88436757  1
  Ti  Ti156  1  0.50284242  0.30002968  0.11767140  1
  Ti  Ti157  1  0.51735818  0.07858602  0.13749688  1
  Ti  Ti158  1  -0.00190794  0.80523442  0.77111997  1
  Ti  Ti159  1  0.59652660  0.20570163  0.73541771  1
  Mo  Mo160  1  0.30311877  0.10538668  0.86683089  1
  Mo  Mo161  1  0.91702591  0.09017008  0.62851988  1
  Mo  Mo162  1  0.39574630  0.79709114  0.01303013  1
  Mo  Mo163  1  0.10471710  0.89787373  0.38283409  1
  Mo  Mo164  1  0.39022086  0.79833686  0.25056075  1
  Mo  Mo165  1  0.70548896  0.69563802  0.36095622  1
  Mo  Mo166  1  0.19865876  0.80305132  0.74430742  1
  Mo  Mo167  1  0.59518198  0.00731670  0.26782700  1
  Mo  Mo168  1  0.80010058  0.20062285  0.24403188  1
  Mo  Mo169  1  0.60131848  -0.00835722  0.49650583  1
  Mo  Mo170  1  0.79508283  0.60653864  -0.01356579  1
  Mo  Mo171  1  0.69087650  0.30336667  0.62591416  1
  Mo  Mo172  1  0.59836283  0.79992143  0.24513322  1
  Mo  Mo173  1  0.29754848  0.29869069  0.12868237  1
  Mo  Mo174  1  0.29391750  0.90488436  0.62463259  1
  Mo  Mo175  1  0.79002925  0.19443100  -0.01169990  1
  Mo  Mo176  1  0.59323942  0.58506128  0.75651772  1
  Mo  Mo177  1  0.09678836  0.69257939  0.10189593  1
  Mo  Mo178  1  0.79974031  0.40443525  0.49702937  1
  Mo  Mo179  1  0.79500088  0.40147672  -0.01512065  1
  Mo  Mo180  1  0.50693061  0.90706861  0.60047200  1
  Mo  Mo181  1  0.20285043  0.79190087  0.24287654  1
  Mo  Mo182  1  0.00718271  0.40579788  0.49702538  1
  Mo  Mo183  1  0.49756733  0.89750325  0.15254733  1
  Mo  Mo184  1  -0.00013806  0.80999606  0.50487852  1
  Mo  Mo185  1  0.59370089  0.40413878  0.48723042  1
  Mo  Mo186  1  0.20019220  0.40083678  0.73640010  1
  Mo  Mo187  1  0.19892599  0.00379586  0.75876743  1
  Mo  Mo188  1  0.70097645  0.10102090  0.11915578  1
  Mo  Mo189  1  0.20270713  0.79967369  0.51823581  1
  Mo  Mo190  1  0.30615202  0.09336039  0.14541484  1
  Mo  Mo191  1  0.20904706  0.79349615  0.00007796  1
  Mo  Mo192  1  0.89928861  0.50569582  0.89154502  1
  Mo  Mo193  1  0.20826269  0.20038076  0.23709326  1
  Mo  Mo194  1  0.39922887  0.20096473  0.50880073  1
  Mo  Mo195  1  0.69833731  0.69245579  0.63375583  1
  Mo  Mo196  1  0.80417053  0.80179371  0.76746681  1
  Mo  Mo197  1  0.39198958  -0.00399718  0.47982047  1
  Mo  Mo198  1  0.68719520  0.28902426  0.87520365  1
  Mo  Mo199  1  0.49994193  0.90501630  0.87375269  1
