# generated using pymatgen
data_HfZrTaTiMo
_symmetry_space_group_name_H-M   'P 1'
_cell_length_a   15.83349713
_cell_length_b   15.83735444
_cell_length_c   15.41840165
_cell_angle_alpha   90.00017481
_cell_angle_beta   90.03458697
_cell_angle_gamma   90.01743642
_symmetry_Int_Tables_number   1
_chemical_formula_structural   HfZrTaTiMo
_chemical_formula_sum   'Hf40 Zr40 Ta40 Ti40 Mo40'
_cell_volume   3866.32840028
_cell_formula_units_Z   40
loop_
 _symmetry_equiv_pos_site_id
 _symmetry_equiv_pos_as_xyz
  1  'x, y, z'
loop_
 _atom_site_type_symbol
 _atom_site_label
 _atom_site_symmetry_multiplicity
 _atom_site_fract_x
 _atom_site_fract_y
 _atom_site_fract_z
 _atom_site_occupancy
  Hf  Hf0  1  0.19499379  0.19726716  0.00685899  1
  Hf  Hf1  1  0.40820572  0.18352712  0.25286062  1
  Hf  Hf2  1  0.21837071  0.00434533  0.49532711  1
  Hf  Hf3  1  0.80280059  0.19520290  0.50715830  1
  Hf  Hf4  1  0.51393343  0.09442426  0.11535616  1
  Hf  Hf5  1  0.49238774  0.50837362  0.89074735  1
  Hf  Hf6  1  0.40219368  0.60116683  0.73519809  1
  Hf  Hf7  1  0.39739197  0.20520523  0.00960022  1
  Hf  Hf8  1  0.50041980  0.69440283  0.88948711  1
  Hf  Hf9  1  0.70766403  0.90028666  0.63399280  1
  Hf  Hf10  1  0.19402102  0.80440177  0.74846737  1
  Hf  Hf11  1  0.49750609  0.91304432  0.63890301  1
  Hf  Hf12  1  0.09250988  0.71211687  0.88396043  1
  Hf  Hf13  1  0.90064135  0.28731519  0.36967652  1
  Hf  Hf14  1  0.19151509  0.40326698  0.48583976  1
  Hf  Hf15  1  0.88849187  0.68908706  0.35994277  1
  Hf  Hf16  1  0.09846932  0.08666687  0.13886159  1
  Hf  Hf17  1  0.90605259  0.30219446  0.61921799  1
  Hf  Hf18  1  0.59463890  0.00561136  0.49549195  1
  Hf  Hf19  1  0.59835752  0.80793060  0.48671013  1
  Hf  Hf20  1  0.49810328  0.30212829  0.61115477  1
  Hf  Hf21  1  -0.00417911  0.38694550  0.01175040  1
  Hf  Hf22  1  0.61438450  0.20451555  -0.00431619  1
  Hf  Hf23  1  0.70690706  0.09529334  0.63894617  1
  Hf  Hf24  1  0.49992641  0.10174778  0.87121678  1
  Hf  Hf25  1  0.29940638  0.90448033  0.35418714  1
  Hf  Hf26  1  0.10127332  0.48960639  0.87281861  1
  Hf  Hf27  1  0.19732193  -0.00920080  0.75564347  1
  Hf  Hf28  1  0.39637893  0.61157915  0.49744916  1
  Hf  Hf29  1  0.60275186  0.40996914  0.48675371  1
  Hf  Hf30  1  0.29964582  0.09900781  0.87583976  1
  Hf  Hf31  1  0.08994482  0.70000476  0.61873464  1
  Hf  Hf32  1  0.70988072  0.91398896  0.11580109  1
  Hf  Hf33  1  0.70297240  0.30318313  0.13544300  1
  Hf  Hf34  1  0.39617196  0.21320359  0.75386512  1
  Hf  Hf35  1  0.72746097  0.10974470  0.86127178  1
  Hf  Hf36  1  0.30988338  0.70479417  0.88390647  1
  Hf  Hf37  1  0.00374333  0.19305823  0.73810906  1
  Hf  Hf38  1  0.09255493  0.29847822  0.87151430  1
  Hf  Hf39  1  0.60028841  0.60519370  0.24718729  1
  Zr  Zr40  1  0.29266184  0.71142889  0.35669548  1
  Zr  Zr41  1  0.89636033  0.49604314  0.64084529  1
  Zr  Zr42  1  0.60978258  0.62217412  0.48093829  1
  Zr  Zr43  1  0.69629481  0.51152472  0.62258678  1
  Zr  Zr44  1  -0.02147284  0.59624704  0.50237479  1
  Zr  Zr45  1  0.20103344  0.59590325  0.01034915  1
  Zr  Zr46  1  0.60310207  0.00597614  0.25083544  1
  Zr  Zr47  1  0.60579389  0.80864383  0.25114881  1
  Zr  Zr48  1  0.91265712  0.88573953  0.38578194  1
  Zr  Zr49  1  0.20632618  0.59620858  0.74206441  1
  Zr  Zr50  1  0.39305712  -0.01549010  0.00597423  1
  Zr  Zr51  1  0.30353729  0.49486986  0.88771689  1
  Zr  Zr52  1  0.90224059  0.08134377  0.37196109  1
  Zr  Zr53  1  0.70466730  0.10052752  0.37739806  1
  Zr  Zr54  1  -0.00170525  0.41194987  0.26765349  1
  Zr  Zr55  1  0.40297848  0.40886269  0.25443337  1
  Zr  Zr56  1  0.80395979  0.59616795  -0.00148339  1
  Zr  Zr57  1  0.38755506  0.40889219  0.72598182  1
  Zr  Zr58  1  0.78110001  0.38162597  0.75658431  1
  Zr  Zr59  1  0.50552053  0.29581960  0.37019086  1
  Zr  Zr60  1  0.80098627  0.59960617  0.22742941  1
  Zr  Zr61  1  0.20372658  0.81034837  0.00225813  1
  Zr  Zr62  1  0.79407263  0.60687212  0.76815927  1
  Zr  Zr63  1  0.20068016  0.39247271  0.73077340  1
  Zr  Zr64  1  0.79805664  0.77592636  0.50632422  1
  Zr  Zr65  1  0.40212666  0.16877944  0.48331048  1
  Zr  Zr66  1  0.70068889  0.29973072  0.36547300  1
  Zr  Zr67  1  0.68470888  0.50091330  0.88401210  1
  Zr  Zr68  1  0.29372290  0.29950038  0.14537477  1
  Zr  Zr69  1  0.60576249  0.80122001  0.77206053  1
  Zr  Zr70  1  0.28543392  0.27790392  0.59752592  1
  Zr  Zr71  1  0.08659378  0.71012134  0.37764029  1
  Zr  Zr72  1  0.61453223  0.22360742  0.75503269  1
  Zr  Zr73  1  -0.00339748  0.18765457  0.00575328  1
  Zr  Zr74  1  0.28980542  0.50984559  0.36291273  1
  Zr  Zr75  1  0.49393751  0.31775367  0.88356054  1
  Zr  Zr76  1  0.39519377  0.81362218  0.50695773  1
  Zr  Zr77  1  -0.00145741  0.60321153  0.75672712  1
  Zr  Zr78  1  -0.00684921  0.59701841  0.00351722  1
  Zr  Zr79  1  0.31860225  0.08050371  0.64181166  1
  Ta  Ta80  1  0.61252865  -0.00304532  -0.02103945  1
  Ta  Ta81  1  0.58656225  0.41545364  0.74183863  1
  Ta  Ta82  1  0.80788362  0.41304659  0.48685650  1
  Ta  Ta83  1  0.39292506  0.40858628  0.49416249  1
  Ta  Ta84  1  0.19440874  0.80997181  0.50602566  1
  Ta  Ta85  1  0.00746531  -0.00738040  0.73469272  1
  Ta  Ta86  1  0.90370775  0.47459387  0.86948825  1
  Ta  Ta87  1  0.11383500  0.10557690  0.61572996  1
  Ta  Ta88  1  0.19748871  0.19644517  0.75578397  1
  Ta  Ta89  1  0.19407719  0.39403920  0.02072414  1
  Ta  Ta90  1  0.72307263  0.90653624  0.37783056  1
  Ta  Ta91  1  0.01070472  -0.00696977  0.51174683  1
  Ta  Ta92  1  0.51139073  0.70487650  0.63153827  1
  Ta  Ta93  1  0.10103888  0.28934333  0.36925765  1
  Ta  Ta94  1  0.90371743  0.08407905  0.14155609  1
  Ta  Ta95  1  -0.00423242  0.81040323  0.73982679  1
  Ta  Ta96  1  0.09963901  0.49566143  0.13949488  1
  Ta  Ta97  1  0.90325646  0.29117572  0.14712586  1
  Ta  Ta98  1  0.69897065  0.70843592  0.11202670  1
  Ta  Ta99  1  0.59801312  0.40106340  0.01280131  1
  Ta  Ta100  1  0.09467746  0.70163764  0.12270571  1
  Ta  Ta101  1  0.89036609  0.28192395  0.86692387  1
  Ta  Ta102  1  0.80973669  0.19711932  0.01636346  1
  Ta  Ta103  1  0.48937556  0.71349242  0.35685466  1
  Ta  Ta104  1  -0.00554432  0.79586269  0.23046909  1
  Ta  Ta105  1  0.29107702  0.30644217  0.88572377  1
  Ta  Ta106  1  0.50091992  0.50990433  0.60764048  1
  Ta  Ta107  1  0.80572316  0.80525760  -0.00624782  1
  Ta  Ta108  1  0.60866120  -0.00539707  0.77423351  1
  Ta  Ta109  1  0.19038073  -0.00282107  -0.00753850  1
  Ta  Ta110  1  0.60029190  0.19556664  0.50820277  1
  Ta  Ta111  1  0.09308756  0.49075062  0.62156577  1
  Ta  Ta112  1  0.50912419  0.09858065  0.64722199  1
  Ta  Ta113  1  0.60148796  0.80913186  -0.00381131  1
  Ta  Ta114  1  0.29494407  0.70846908  0.14231970  1
  Ta  Ta115  1  0.39223803  0.80387991  0.74386253  1
  Ta  Ta116  1  0.79535595  0.18252060  0.23808173  1
  Ta  Ta117  1  0.09609977  0.29242210  0.15356903  1
  Ta  Ta118  1  0.50736247  0.30220768  0.13509179  1
  Ta  Ta119  1  0.50049687  0.70782080  0.11863662  1
  Ti  Ti120  1  0.60288493  0.41252898  0.25293239  1
  Ti  Ti121  1  0.50339423  0.50402372  0.12273801  1
  Ti  Ti122  1  -0.00067681  0.40475827  0.48221566  1
  Ti  Ti123  1  0.28697821  0.90663592  0.13777293  1
  Ti  Ti124  1  0.49695566  0.51267869  0.37674865  1
  Ti  Ti125  1  0.69758664  0.49905499  0.11683216  1
  Ti  Ti126  1  0.80012344  0.38726883  -0.00041014  1
  Ti  Ti127  1  0.09566499  0.29710624  0.61013685  1
  Ti  Ti128  1  0.28926174  0.50360302  0.14308240  1
  Ti  Ti129  1  0.81429823  0.00738864  -0.00518908  1
  Ti  Ti130  1  0.17918921  0.60430045  0.25117058  1
  Ti  Ti131  1  0.90043268  0.49046129  0.12611214  1
  Ti  Ti132  1  0.00876785  0.18926453  0.49637885  1
  Ti  Ti133  1  0.90711709  0.09210570  0.86065100  1
  Ti  Ti134  1  0.41053966  0.81738855  0.22613237  1
  Ti  Ti135  1  0.89637133  0.89352108  0.62067093  1
  Ti  Ti136  1  0.71537359  0.51928768  0.37455070  1
  Ti  Ti137  1  0.01345008  -0.02306923  0.25781415  1
  Ti  Ti138  1  0.80099554  0.40568847  0.25828681  1
  Ti  Ti139  1  0.20122507  0.18623627  0.26419159  1
  Ti  Ti140  1  0.17349559  0.81843063  0.24334929  1
  Ti  Ti141  1  0.48521429  0.89141259  0.88165580  1
  Ti  Ti142  1  0.91119646  0.90422155  0.87611828  1
  Ti  Ti143  1  0.70167661  0.70276457  0.64422795  1
  Ti  Ti144  1  0.40218009  0.60776807  0.24202715  1
  Ti  Ti145  1  0.29599853  0.29202402  0.37298316  1
  Ti  Ti146  1  0.90069961  0.08722823  0.62300839  1
  Ti  Ti147  1  0.29590647  0.70422092  0.61951510  1
  Ti  Ti148  1  0.39170133  0.40263552  0.02376164  1
  Ti  Ti149  1  0.91107213  0.90277447  0.11490316  1
  Ti  Ti150  1  0.70012134  0.30812626  0.60908186  1
  Ti  Ti151  1  0.69708657  0.70154586  0.89041609  1
  Ti  Ti152  1  0.90101352  0.71422932  0.87467540  1
  Ti  Ti153  1  0.80377244  0.80625721  0.23674739  1
  Ti  Ti154  1  0.10303164  0.08855237  0.37311212  1
  Ti  Ti155  1  0.09181335  0.09113753  0.87452066  1
  Ti  Ti156  1  0.48789714  0.91589292  0.36906450  1
  Ti  Ti157  1  0.19251183  0.60022637  0.49731927  1
  Ti  Ti158  1  0.39354332  0.60398709  0.02661923  1
  Ti  Ti159  1  0.29535251  0.08919407  0.13587185  1
  Mo  Mo160  1  0.70049578  0.71111132  0.35465398  1
  Mo  Mo161  1  0.71082310  0.09741889  0.11240903  1
  Mo  Mo162  1  0.72077336  0.90404035  0.88226800  1
  Mo  Mo163  1  0.09453926  0.50849356  0.37166215  1
  Mo  Mo164  1  0.50839856  0.89948227  0.10466009  1
  Mo  Mo165  1  0.19600878  -0.00197959  0.25723049  1
  Mo  Mo166  1  0.10148796  0.90259070  0.61345868  1
  Mo  Mo167  1  -0.00614585  0.80292262  0.01037996  1
  Mo  Mo168  1  0.70617069  0.30426968  0.89297613  1
  Mo  Mo169  1  0.30109985  0.89643372  0.86995103  1
  Mo  Mo170  1  0.80544989  -0.00779477  0.51616368  1
  Mo  Mo171  1  0.19428130  0.19387395  0.47729554  1
  Mo  Mo172  1  0.50593166  0.09506628  0.36257577  1
  Mo  Mo173  1  0.40593421  -0.00871070  0.77314449  1
  Mo  Mo174  1  0.39710661  0.79732224  0.01951223  1
  Mo  Mo175  1  -0.00129736  0.60382070  0.23325881  1
  Mo  Mo176  1  -0.00416971  0.79859851  0.52011553  1
  Mo  Mo177  1  0.59060560  0.60208312  0.74629412  1
  Mo  Mo178  1  0.00136193  0.39213880  0.74850563  1
  Mo  Mo179  1  -0.00185242  -0.00223146  -0.00551386  1
  Mo  Mo180  1  0.79407817  0.59829843  0.50368382  1
  Mo  Mo181  1  0.30320862  0.08992084  0.35450702  1
  Mo  Mo182  1  0.80795837  -0.01261977  0.24178270  1
  Mo  Mo183  1  0.89604283  0.70765833  0.12074841  1
  Mo  Mo184  1  0.09842681  0.89879559  0.38960227  1
  Mo  Mo185  1  0.09422112  0.90161793  0.11286219  1
  Mo  Mo186  1  0.59829418  0.60223224  0.02280648  1
  Mo  Mo187  1  0.29382924  0.51093687  0.59720857  1
  Mo  Mo188  1  0.19506880  0.39785208  0.25980736  1
  Mo  Mo189  1  0.30098969  0.89441793  0.63150889  1
  Mo  Mo190  1  0.08854651  0.90510901  0.88425818  1
  Mo  Mo191  1  0.00118052  0.18885517  0.25826839  1
  Mo  Mo192  1  0.40981617  -0.00336743  0.49620912  1
  Mo  Mo193  1  0.80730848  0.80357148  0.76660666  1
  Mo  Mo194  1  0.81851722  -0.00749198  0.74868133  1
  Mo  Mo195  1  0.89305317  0.50120992  0.36978516  1
  Mo  Mo196  1  0.40202598  -0.00478566  0.22695459  1
  Mo  Mo197  1  0.60469038  0.20041911  0.23508499  1
  Mo  Mo198  1  0.88928983  0.70700459  0.64718139  1
  Mo  Mo199  1  0.81115321  0.19725896  0.73273664  1
