# generated using pymatgen
data_HfZrTaTiMo
_symmetry_space_group_name_H-M   'P 1'
_cell_length_a   15.84798840
_cell_length_b   15.83609390
_cell_length_c   15.39551299
_cell_angle_alpha   90.02889154
_cell_angle_beta   89.97805677
_cell_angle_gamma   89.95119965
_symmetry_Int_Tables_number   1
_chemical_formula_structural   HfZrTaTiMo
_chemical_formula_sum   'Hf40 Zr40 Ta40 Ti40 Mo40'
_cell_volume   3863.81329820
_cell_formula_units_Z   40
loop_
 _symmetry_equiv_pos_site_id
 _symmetry_equiv_pos_as_xyz
  1  'x, y, z'
loop_
 _atom_site_type_symbol
 _atom_site_label
 _atom_site_symmetry_multiplicity
 _atom_site_fract_x
 _atom_site_fract_y
 _atom_site_fract_z
 _atom_site_occupancy
  Hf  Hf0  1  0.41031037  0.18535214  0.74068938  1
  Hf  Hf1  1  0.40305194  0.60049039  -0.00043822  1
  Hf  Hf2  1  0.11016353  0.10117788  0.62673286  1
  Hf  Hf3  1  0.80699415  0.79605564  0.48796678  1
  Hf  Hf4  1  0.39947058  0.59952947  0.24644512  1
  Hf  Hf5  1  0.09850671  0.90356048  0.62714246  1
  Hf  Hf6  1  0.21935752  0.19125753  0.76307201  1
  Hf  Hf7  1  0.49437293  0.49685753  0.85904982  1
  Hf  Hf8  1  0.58638284  0.20075679  0.24242112  1
  Hf  Hf9  1  0.49523788  0.50049142  0.62379971  1
  Hf  Hf10  1  0.79824924  0.40326871  0.49852990  1
  Hf  Hf11  1  0.47510682  0.88866958  0.38568549  1
  Hf  Hf12  1  0.78986178  0.61014006  0.49473515  1
  Hf  Hf13  1  0.81400026  0.18705450  0.74569269  1
  Hf  Hf14  1  0.10579120  0.30053227  0.64153225  1
  Hf  Hf15  1  0.91214774  0.30035782  0.63046614  1
  Hf  Hf16  1  -0.01764635  0.01137663  0.73392762  1
  Hf  Hf17  1  0.00900197  0.19732398  0.48700992  1
  Hf  Hf18  1  0.79888417  0.60670267  0.24616252  1
  Hf  Hf19  1  0.58067495  -0.00064989  0.24745321  1
  Hf  Hf20  1  0.59347898  0.60062857  0.01058025  1
  Hf  Hf21  1  0.10480017  0.50695578  0.36591017  1
  Hf  Hf22  1  0.39761916  -0.00475227  -0.00654011  1
  Hf  Hf23  1  0.10640601  0.31131033  0.86458795  1
  Hf  Hf24  1  0.69727122  0.50035592  0.87175282  1
  Hf  Hf25  1  0.30963979  0.71427327  0.11655825  1
  Hf  Hf26  1  0.29975649  0.08337628  0.38914408  1
  Hf  Hf27  1  -0.00532655  0.61388485  0.50138450  1
  Hf  Hf28  1  0.69893302  0.69909953  0.86362308  1
  Hf  Hf29  1  0.19369710  0.60417451  -0.00292493  1
  Hf  Hf30  1  0.19914975  0.80199606  0.50150716  1
  Hf  Hf31  1  0.69273542  0.89850360  0.13894408  1
  Hf  Hf32  1  0.68739510  0.49109693  0.13371229  1
  Hf  Hf33  1  0.19833493  0.39615722  0.48965573  1
  Hf  Hf34  1  0.28848075  0.89995350  0.11308357  1
  Hf  Hf35  1  0.79921734  0.60573928  0.01773459  1
  Hf  Hf36  1  0.29413823  0.49092702  0.12231810  1
  Hf  Hf37  1  0.90981653  0.48909426  0.11850088  1
  Hf  Hf38  1  0.80273049  0.19406724  0.50558880  1
  Hf  Hf39  1  0.67638749  0.50990568  0.36954039  1
  Zr  Zr40  1  0.79812927  -0.00394256  0.74277220  1
  Zr  Zr41  1  0.69868797  0.29931929  0.63472021  1
  Zr  Zr42  1  0.20196168  0.80251926  0.75023566  1
  Zr  Zr43  1  0.09108226  0.91289327  0.86126964  1
  Zr  Zr44  1  0.91147580  0.29886280  0.88226099  1
  Zr  Zr45  1  0.10815990  0.72118601  0.13179059  1
  Zr  Zr46  1  0.10191322  0.70803839  0.36750163  1
  Zr  Zr47  1  0.30374064  0.30197260  0.62554467  1
  Zr  Zr48  1  0.90614309  0.50098182  0.88964458  1
  Zr  Zr49  1  0.90742792  0.09553544  0.89343960  1
  Zr  Zr50  1  0.50107215  0.69702887  0.84624203  1
  Zr  Zr51  1  0.19321168  0.01955725  -0.01252354  1
  Zr  Zr52  1  0.70154316  0.89178474  0.62923599  1
  Zr  Zr53  1  0.58703128  0.01162790  0.74462293  1
  Zr  Zr54  1  -0.00558914  0.61502014  0.23374153  1
  Zr  Zr55  1  0.00401281  0.39882551  0.49247698  1
  Zr  Zr56  1  0.69820601  0.89700384  0.36184910  1
  Zr  Zr57  1  0.89842110  0.28358599  0.35531778  1
  Zr  Zr58  1  0.09951332  0.50631114  0.63479183  1
  Zr  Zr59  1  0.50100256  0.68380201  0.38139824  1
  Zr  Zr60  1  0.58588147  0.79816294  -0.00689231  1
  Zr  Zr61  1  0.83055654  0.00462224  0.24600588  1
  Zr  Zr62  1  0.59337262  0.38847692  -0.00600553  1
  Zr  Zr63  1  0.30319799  0.30322185  0.13330650  1
  Zr  Zr64  1  0.49181871  0.09793359  0.38510012  1
  Zr  Zr65  1  0.69422264  0.10151330  0.88181226  1
  Zr  Zr66  1  0.82043979  0.79495555  0.25035833  1
  Zr  Zr67  1  0.90201882  0.50268855  0.37039775  1
  Zr  Zr68  1  0.21281290  0.21401350  -0.00787693  1
  Zr  Zr69  1  0.60484457  -0.00098738  0.49834908  1
  Zr  Zr70  1  0.80573893  0.40295884  0.75557051  1
  Zr  Zr71  1  0.79980591  0.39782098  0.24725453  1
  Zr  Zr72  1  0.68932288  0.30274081  0.36809656  1
  Zr  Zr73  1  0.48497739  0.87386412  0.13444985  1
  Zr  Zr74  1  0.70866476  0.10748845  0.36123382  1
  Zr  Zr75  1  0.49943983  0.88834499  0.62045617  1
  Zr  Zr76  1  0.79651586  0.79727744  0.00979714  1
  Zr  Zr77  1  0.69214623  0.70215519  0.64232018  1
  Zr  Zr78  1  0.79883999  0.20231895  0.01279403  1
  Zr  Zr79  1  0.01947341  0.19380991  0.02347171  1
  Ta  Ta80  1  0.59399489  0.20157807  0.51204955  1
  Ta  Ta81  1  0.19506698  0.00218530  0.25361752  1
  Ta  Ta82  1  0.49506487  0.29873447  0.38389503  1
  Ta  Ta83  1  0.00659312  0.60841051  0.00246984  1
  Ta  Ta84  1  0.19979001  0.60637211  0.50409005  1
  Ta  Ta85  1  0.89552342  0.90146102  0.88570340  1
  Ta  Ta86  1  0.79749703  -0.00360578  0.01341335  1
  Ta  Ta87  1  0.19918071  0.19767110  0.26315853  1
  Ta  Ta88  1  0.81992278  0.79491882  0.75959950  1
  Ta  Ta89  1  0.09764603  0.91148725  0.12140676  1
  Ta  Ta90  1  0.50287367  0.28931324  0.86198637  1
  Ta  Ta91  1  0.08692746  0.70838980  0.63630617  1
  Ta  Ta92  1  0.19936620  0.80580687  -0.02473648  1
  Ta  Ta93  1  0.49505704  0.49281493  0.38593389  1
  Ta  Ta94  1  0.10325938  0.50812943  0.86819112  1
  Ta  Ta95  1  0.67635701  0.70609631  0.14871102  1
  Ta  Ta96  1  0.60610746  0.78152020  0.48730326  1
  Ta  Ta97  1  0.21096508  0.60750157  0.25278427  1
  Ta  Ta98  1  0.69676398  0.50390342  0.63029116  1
  Ta  Ta99  1  0.69421926  0.29183724  0.86594492  1
  Ta  Ta100  1  0.59706198  -0.00157405  0.00824766  1
  Ta  Ta101  1  0.30015580  0.50280675  0.61616569  1
  Ta  Ta102  1  0.39541779  0.19311710  0.25268326  1
  Ta  Ta103  1  0.49042837  0.48581367  0.13043250  1
  Ta  Ta104  1  0.30191497  0.69894890  0.87017827  1
  Ta  Ta105  1  0.39154929  0.80739881  0.74543374  1
  Ta  Ta106  1  -0.00033907  0.00148836  0.49190174  1
  Ta  Ta107  1  0.69354417  0.29602303  0.13538930  1
  Ta  Ta108  1  0.00661217  0.79546606  -0.01672136  1
  Ta  Ta109  1  0.30693625  0.51013392  0.38839836  1
  Ta  Ta110  1  0.19788024  0.20017464  0.48540141  1
  Ta  Ta111  1  0.69981871  0.09854819  0.13064509  1
  Ta  Ta112  1  0.21491000  0.81394989  0.26440598  1
  Ta  Ta113  1  0.81116159  0.60379870  0.74990718  1
  Ta  Ta114  1  0.59637021  0.39578013  0.74793246  1
  Ta  Ta115  1  0.50164642  0.10115411  0.88524230  1
  Ta  Ta116  1  0.81178327  -0.00214896  0.49859811  1
  Ta  Ta117  1  0.69573514  0.90008535  0.87275565  1
  Ta  Ta118  1  0.89875494  0.51148636  0.62585727  1
  Ta  Ta119  1  0.39159596  0.39028329  -0.01706630  1
  Ti  Ti120  1  0.29708658  0.91209518  0.61090220  1
  Ti  Ti121  1  0.39870327  0.19498032  0.51251445  1
  Ti  Ti122  1  0.31159028  0.70798287  0.38716915  1
  Ti  Ti123  1  0.79413759  0.39211052  0.00390110  1
  Ti  Ti124  1  0.49021309  0.30076551  0.12576006  1
  Ti  Ti125  1  0.21913779  0.00429141  0.76024087  1
  Ti  Ti126  1  0.20811499  0.39968138  0.26786599  1
  Ti  Ti127  1  0.59433019  0.19710777  0.01237745  1
  Ti  Ti128  1  0.19954068  0.60490680  0.74777134  1
  Ti  Ti129  1  -0.00293822  0.80317726  0.49010969  1
  Ti  Ti130  1  0.00159707  0.81989575  0.25853944  1
  Ti  Ti131  1  0.90667729  0.88719238  0.62116956  1
  Ti  Ti132  1  0.11001167  0.49722265  0.13343543  1
  Ti  Ti133  1  0.01082119  0.39224270  0.25035231  1
  Ti  Ti134  1  0.10606589  0.91155109  0.37951204  1
  Ti  Ti135  1  0.38275588  -0.01065637  0.24698292  1
  Ti  Ti136  1  0.49937450  0.30079294  0.63050497  1
  Ti  Ti137  1  0.08996836  0.11044758  0.85866262  1
  Ti  Ti138  1  0.29597023  0.10269034  0.12879977  1
  Ti  Ti139  1  0.49622981  0.90153231  0.86544277  1
  Ti  Ti140  1  0.11247530  0.30500013  0.13900734  1
  Ti  Ti141  1  -0.00100515  0.41466287  0.75205511  1
  Ti  Ti142  1  0.21625018  0.40954197  0.75364222  1
  Ti  Ti143  1  0.29660751  0.49873265  0.87542442  1
  Ti  Ti144  1  0.69763966  0.09893324  0.62334776  1
  Ti  Ti145  1  0.39268211  0.00269042  0.74337762  1
  Ti  Ti146  1  0.02659978  0.40236290  0.00747360  1
  Ti  Ti147  1  -0.00919655  0.62121463  0.76111231  1
  Ti  Ti148  1  0.59748170  0.39767221  0.50884639  1
  Ti  Ti149  1  0.39940792  0.39545112  0.49855559  1
  Ti  Ti150  1  0.90410231  0.29244910  0.13262317  1
  Ti  Ti151  1  0.40120245  0.39500644  0.26532689  1
  Ti  Ti152  1  0.91815869  0.90014495  0.11013193  1
  Ti  Ti153  1  0.30196955  0.69925159  0.62180111  1
  Ti  Ti154  1  0.38690378  0.59634116  0.74100327  1
  Ti  Ti155  1  0.00152818  0.17665562  0.24594165  1
  Ti  Ti156  1  0.48709253  0.09818581  0.11864160  1
  Ti  Ti157  1  0.30704353  0.29333643  0.37868168  1
  Ti  Ti158  1  0.49837401  0.69563398  0.62524253  1
  Ti  Ti159  1  0.40004034  0.20061332  -0.00775125  1
  Mo  Mo160  1  0.58040231  0.39528916  0.25101606  1
  Mo  Mo161  1  0.30443288  0.90167033  0.87208354  1
  Mo  Mo162  1  0.49526979  0.69292034  0.13500828  1
  Mo  Mo163  1  0.90441421  0.09750787  0.38334123  1
  Mo  Mo164  1  0.91008713  0.08960816  0.11452115  1
  Mo  Mo165  1  0.69457073  0.69727925  0.36070606  1
  Mo  Mo166  1  0.90355091  0.09750995  0.60648829  1
  Mo  Mo167  1  0.60209823  0.59425086  0.73828083  1
  Mo  Mo168  1  0.19932873  0.40921569  -0.00957133  1
  Mo  Mo169  1  0.58788340  0.59309033  0.23719410  1
  Mo  Mo170  1  0.91144325  0.89987802  0.38343555  1
  Mo  Mo171  1  0.19214408  0.00141856  0.49370855  1
  Mo  Mo172  1  0.49748051  0.09801504  0.60943137  1
  Mo  Mo173  1  0.39776802  0.39850234  0.75614594  1
  Mo  Mo174  1  0.59156194  0.79387616  0.27051682  1
  Mo  Mo175  1  0.90306111  0.70525814  0.37498232  1
  Mo  Mo176  1  0.60068685  0.19921850  0.73697094  1
  Mo  Mo177  1  0.00106663  -0.00273766  0.00221017  1
  Mo  Mo178  1  0.90326868  0.70579604  0.62422422  1
  Mo  Mo179  1  0.29683622  0.09391272  0.60917134  1
  Mo  Mo180  1  0.39584410  -0.00143930  0.51751720  1
  Mo  Mo181  1  0.10380092  0.29977937  0.35439794  1
  Mo  Mo182  1  0.29614799  0.89733992  0.38920053  1
  Mo  Mo183  1  0.39617004  0.79184494  0.52190168  1
  Mo  Mo184  1  0.09959202  0.09938102  0.36559695  1
  Mo  Mo185  1  0.80536184  0.19609284  0.22847261  1
  Mo  Mo186  1  0.90881799  0.70803063  0.10854638  1
  Mo  Mo187  1  0.59794014  0.80666152  0.76088131  1
  Mo  Mo188  1  0.90068850  0.69955495  0.89221485  1
  Mo  Mo189  1  0.00747938  0.20318842  0.74559063  1
  Mo  Mo190  1  0.39253800  0.79961761  -0.02885832  1
  Mo  Mo191  1  -0.00757701  0.80305668  0.76248536  1
  Mo  Mo192  1  0.10903785  0.09897512  0.14212045  1
  Mo  Mo193  1  0.10090363  0.69731137  0.86052100  1
  Mo  Mo194  1  0.59782521  0.59591305  0.51606960  1
  Mo  Mo195  1  0.31266178  0.30656082  0.86319648  1
  Mo  Mo196  1  0.39337824  0.59912189  0.51016089  1
  Mo  Mo197  1  0.01011274  -0.00373992  0.25971454  1
  Mo  Mo198  1  0.38950849  0.79669568  0.25842741  1
  Mo  Mo199  1  0.31673246  0.10107492  0.87850059  1
