# generated using pymatgen
data_HfZrTaTiMo
_symmetry_space_group_name_H-M   'P 1'
_cell_length_a   15.82778404
_cell_length_b   15.84374116
_cell_length_c   15.41856785
_cell_angle_alpha   90.03761514
_cell_angle_beta   89.93929993
_cell_angle_gamma   90.18109112
_symmetry_Int_Tables_number   1
_chemical_formula_structural   HfZrTaTiMo
_chemical_formula_sum   'Hf40 Zr40 Ta40 Ti40 Mo40'
_cell_volume   3866.51220543
_cell_formula_units_Z   40
loop_
 _symmetry_equiv_pos_site_id
 _symmetry_equiv_pos_as_xyz
  1  'x, y, z'
loop_
 _atom_site_type_symbol
 _atom_site_label
 _atom_site_symmetry_multiplicity
 _atom_site_fract_x
 _atom_site_fract_y
 _atom_site_fract_z
 _atom_site_occupancy
  Hf  Hf0  1  0.89148096  0.89260253  0.12007008  1
  Hf  Hf1  1  0.51055320  0.49292359  0.14060780  1
  Hf  Hf2  1  -0.00134198  0.00086780  -0.00567828  1
  Hf  Hf3  1  0.59299224  0.20524593  0.50185367  1
  Hf  Hf4  1  0.79316822  0.79193219  0.74613330  1
  Hf  Hf5  1  0.11183739  0.10106648  0.35546232  1
  Hf  Hf6  1  0.90364152  0.49967823  0.38287038  1
  Hf  Hf7  1  0.20801112  0.00089415  0.23106785  1
  Hf  Hf8  1  0.70998021  0.10423765  0.62059544  1
  Hf  Hf9  1  0.39462007  0.60856089  0.24784999  1
  Hf  Hf10  1  0.20670428  0.40244235  0.74608884  1
  Hf  Hf11  1  0.89832461  0.09951912  0.37696791  1
  Hf  Hf12  1  0.68719705  0.89943926  0.62058863  1
  Hf  Hf13  1  0.88675079  0.69648307  0.89365654  1
  Hf  Hf14  1  0.49449347  0.49160513  0.85963926  1
  Hf  Hf15  1  0.30310053  0.10190702  0.87955913  1
  Hf  Hf16  1  -0.01948817  0.37903324  0.00584087  1
  Hf  Hf17  1  0.21006648  0.81353153  0.49952034  1
  Hf  Hf18  1  0.10222804  0.10953644  0.12076472  1
  Hf  Hf19  1  0.89827295  0.89916790  0.37651788  1
  Hf  Hf20  1  0.60470907  -0.00280323  0.76918762  1
  Hf  Hf21  1  0.90190622  0.11322576  0.12903702  1
  Hf  Hf22  1  0.59459068  0.00332569  0.24513420  1
  Hf  Hf23  1  0.38601942  0.00484113  0.51412156  1
  Hf  Hf24  1  -0.00012827  0.80199863  0.50274619  1
  Hf  Hf25  1  0.20932128  0.59991410  0.50410895  1
  Hf  Hf26  1  0.60310716  0.20654065  -0.01338567  1
  Hf  Hf27  1  0.40886077  0.19209795  0.23365565  1
  Hf  Hf28  1  0.09309033  0.49663722  0.11356441  1
  Hf  Hf29  1  0.79174350  0.39249695  0.76069778  1
  Hf  Hf30  1  0.21640937  0.19837024  0.49990905  1
  Hf  Hf31  1  0.88736731  0.48389002  0.61439648  1
  Hf  Hf32  1  -0.00462000  0.18801068  0.74933256  1
  Hf  Hf33  1  0.79824742  0.00118600  -0.00640141  1
  Hf  Hf34  1  0.89988993  0.90113969  0.62235845  1
  Hf  Hf35  1  0.31208954  0.71639184  0.63779175  1
  Hf  Hf36  1  0.81178758  0.00160727  0.76194365  1
  Hf  Hf37  1  0.50514677  0.50087695  0.63633948  1
  Hf  Hf38  1  0.20531268  0.40311940  0.49821352  1
  Hf  Hf39  1  0.80013361  0.40017670  0.25761737  1
  Zr  Zr40  1  0.00105682  0.79604294  0.24453391  1
  Zr  Zr41  1  0.30484277  0.70646931  0.87822018  1
  Zr  Zr42  1  0.50062666  0.70492767  0.12872529  1
  Zr  Zr43  1  0.19753187  0.60377257  0.24973876  1
  Zr  Zr44  1  0.59860090  0.59810717  -0.01712979  1
  Zr  Zr45  1  0.29977305  0.90728737  0.36306329  1
  Zr  Zr46  1  0.89285789  0.28965096  0.61233297  1
  Zr  Zr47  1  0.41249547  0.20255413  0.74155820  1
  Zr  Zr48  1  -0.00907183  0.80898212  0.76616982  1
  Zr  Zr49  1  0.10235827  0.30077503  0.87613267  1
  Zr  Zr50  1  0.60717638  0.20943613  0.74976741  1
  Zr  Zr51  1  0.80870303  0.22241612  0.00342657  1
  Zr  Zr52  1  0.19647230  0.59685363  0.74458095  1
  Zr  Zr53  1  0.78295220  0.59323435  0.74919557  1
  Zr  Zr54  1  0.40385138  0.59972296  0.00459958  1
  Zr  Zr55  1  0.29505531  0.49488923  0.88409434  1
  Zr  Zr56  1  0.59740441  0.80251068  0.25628521  1
  Zr  Zr57  1  0.00173767  0.60030966  0.51425318  1
  Zr  Zr58  1  0.69515507  0.11031323  0.12523949  1
  Zr  Zr59  1  0.40323677  0.60879633  0.49337797  1
  Zr  Zr60  1  0.10694168  0.92273482  0.64089991  1
  Zr  Zr61  1  0.01639977  0.18958141  0.49694453  1
  Zr  Zr62  1  0.09887433  0.70109598  0.11296325  1
  Zr  Zr63  1  0.89082248  0.68983343  0.37491258  1
  Zr  Zr64  1  0.40066776  0.39876218  0.49678610  1
  Zr  Zr65  1  0.51660903  0.30087803  0.13288207  1
  Zr  Zr66  1  0.49342371  0.88709723  0.62281075  1
  Zr  Zr67  1  0.10586588  0.30425163  0.12937813  1
  Zr  Zr68  1  0.78700877  0.79333723  0.25018351  1
  Zr  Zr69  1  0.09878657  0.69655398  0.88485384  1
  Zr  Zr70  1  0.78974115  -0.00310812  0.24904550  1
  Zr  Zr71  1  0.29096943  0.48913499  0.12349298  1
  Zr  Zr72  1  0.10485136  0.70139501  0.37255963  1
  Zr  Zr73  1  0.10272568  0.29567144  0.62889289  1
  Zr  Zr74  1  0.40388025  -0.00387869  0.75581910  1
  Zr  Zr75  1  0.10440808  0.71529122  0.63463866  1
  Zr  Zr76  1  0.59691368  0.60126737  0.48761340  1
  Zr  Zr77  1  -0.01434759  0.60016432  0.74264202  1
  Zr  Zr78  1  0.60136408  0.40449214  0.48628446  1
  Zr  Zr79  1  0.48520557  0.89656408  0.38010759  1
  Ta  Ta80  1  0.31059331  0.30039385  0.63076403  1
  Ta  Ta81  1  -0.00468463  0.40186346  0.75380205  1
  Ta  Ta82  1  0.49691626  0.49926219  0.35236314  1
  Ta  Ta83  1  0.59549436  0.79961473  -0.01632396  1
  Ta  Ta84  1  0.00173119  -0.00087144  0.24224488  1
  Ta  Ta85  1  0.40559132  0.00210660  0.22731216  1
  Ta  Ta86  1  0.31268102  0.30249615  0.87406992  1
  Ta  Ta87  1  0.49485843  0.09453025  0.38736959  1
  Ta  Ta88  1  0.78751960  0.59885672  0.51667792  1
  Ta  Ta89  1  0.60415813  0.19954807  0.26980822  1
  Ta  Ta90  1  0.70068362  0.70406772  0.10787037  1
  Ta  Ta91  1  0.10361656  0.10099190  0.87850385  1
  Ta  Ta92  1  0.89729124  0.49399883  0.88705621  1
  Ta  Ta93  1  0.70611633  0.31157024  0.61070353  1
  Ta  Ta94  1  0.58825313  0.78477364  0.48870654  1
  Ta  Ta95  1  0.38884379  0.38730587  0.25521114  1
  Ta  Ta96  1  0.69264191  0.90057282  0.39515490  1
  Ta  Ta97  1  0.89666411  0.69030012  0.10978946  1
  Ta  Ta98  1  -0.00287714  0.80688348  -0.00729691  1
  Ta  Ta99  1  0.50144652  0.70179535  0.64689607  1
  Ta  Ta100  1  -0.00232941  0.20752888  0.25789039  1
  Ta  Ta101  1  0.61160507  0.39874690  -0.01657256  1
  Ta  Ta102  1  0.69566636  0.09709127  0.38951335  1
  Ta  Ta103  1  0.10670685  0.30598268  0.36642434  1
  Ta  Ta104  1  0.19456781  0.01034382  0.49660450  1
  Ta  Ta105  1  0.90136280  0.30047906  0.38313984  1
  Ta  Ta106  1  0.41149117  0.39226003  0.00448105  1
  Ta  Ta107  1  0.90609131  0.09236105  0.61575191  1
  Ta  Ta108  1  0.80101028  -0.00291270  0.50034865  1
  Ta  Ta109  1  0.78933344  0.78902424  0.50762056  1
  Ta  Ta110  1  0.08937586  0.49697639  0.88808816  1
  Ta  Ta111  1  0.40769672  0.20366259  0.00182861  1
  Ta  Ta112  1  0.10110200  0.90567189  0.36509044  1
  Ta  Ta113  1  0.20422005  0.20470150  -0.00437985  1
  Ta  Ta114  1  0.78928663  0.58653954  0.00113140  1
  Ta  Ta115  1  0.50215707  0.90001864  0.10856504  1
  Ta  Ta116  1  0.31333239  0.10603906  0.36770874  1
  Ta  Ta117  1  0.60345299  0.00056120  -0.00920163  1
  Ta  Ta118  1  0.30244046  0.10348157  0.11009121  1
  Ta  Ta119  1  0.20103215  -0.00373415  -0.00251343  1
  Ti  Ti120  1  0.59401038  0.79606282  0.77326687  1
  Ti  Ti121  1  0.29822540  0.71451279  0.10929831  1
  Ti  Ti122  1  0.70871009  0.88799394  0.88266103  1
  Ti  Ti123  1  0.89573401  0.28881911  0.86401285  1
  Ti  Ti124  1  0.20713624  0.80200445  0.24149044  1
  Ti  Ti125  1  0.48377128  0.28832590  0.37627066  1
  Ti  Ti126  1  0.61180710  0.60896356  0.25927234  1
  Ti  Ti127  1  0.00773690  0.39656548  0.49793578  1
  Ti  Ti128  1  0.69589063  0.49618284  0.12680942  1
  Ti  Ti129  1  0.21766710  0.21418557  0.24954107  1
  Ti  Ti130  1  0.30544703  0.89476005  0.10871358  1
  Ti  Ti131  1  0.28456099  0.09371377  0.64069350  1
  Ti  Ti132  1  0.60270148  0.39718637  0.75213387  1
  Ti  Ti133  1  0.31676386  0.72041841  0.37084165  1
  Ti  Ti134  1  0.68013268  0.69496494  0.63043753  1
  Ti  Ti135  1  0.79513315  0.20741968  0.26150319  1
  Ti  Ti136  1  0.00212053  0.00060828  0.77100952  1
  Ti  Ti137  1  0.79602030  0.60017747  0.23709468  1
  Ti  Ti138  1  -0.00810420  0.59429337  0.24073076  1
  Ti  Ti139  1  0.09995698  0.49783172  0.36818106  1
  Ti  Ti140  1  0.50779184  0.09350874  0.61925656  1
  Ti  Ti141  1  0.71727403  0.11655294  0.86921944  1
  Ti  Ti142  1  0.40815156  0.00431374  0.00464179  1
  Ti  Ti143  1  0.30783485  0.90030029  0.89037430  1
  Ti  Ti144  1  0.10332766  0.89619473  0.11885591  1
  Ti  Ti145  1  0.29852742  0.30318840  0.11154415  1
  Ti  Ti146  1  0.20071199  0.81792430  0.77177091  1
  Ti  Ti147  1  -0.00307713  0.39956012  0.24826870  1
  Ti  Ti148  1  0.70484498  0.30977706  0.13142088  1
  Ti  Ti149  1  0.39493414  0.59600761  0.74818544  1
  Ti  Ti150  1  0.89113245  0.49377917  0.11691141  1
  Ti  Ti151  1  0.01015175  0.00038502  0.49573382  1
  Ti  Ti152  1  0.70762104  0.50849048  0.37157689  1
  Ti  Ti153  1  0.20194377  0.19652690  0.75241460  1
  Ti  Ti154  1  0.09851861  0.49454420  0.62696550  1
  Ti  Ti155  1  0.29677502  0.90275612  0.64250677  1
  Ti  Ti156  1  0.29806911  0.49479240  0.36379184  1
  Ti  Ti157  1  0.50107514  0.10194982  0.88036731  1
  Ti  Ti158  1  0.19843638  0.59953734  0.00127060  1
  Ti  Ti159  1  0.60666765  0.38935383  0.27294320  1
  Mo  Mo160  1  -0.00827684  0.59175504  0.00404491  1
  Mo  Mo161  1  0.69624792  0.69950647  0.88259461  1
  Mo  Mo162  1  0.50312660  0.09768076  0.10951707  1
  Mo  Mo163  1  0.79308824  0.40226948  0.00007315  1
  Mo  Mo164  1  0.40273223  0.80382380  0.77090416  1
  Mo  Mo165  1  0.90418952  0.10591886  0.88308403  1
  Mo  Mo166  1  -0.00068433  0.19670622  -0.00794075  1
  Mo  Mo167  1  0.49594861  0.69963434  0.35681660  1
  Mo  Mo168  1  0.19981921  0.80826319  -0.00070641  1
  Mo  Mo169  1  0.70150824  0.29996268  0.86877944  1
  Mo  Mo170  1  0.70018923  0.69634545  0.37957445  1
  Mo  Mo171  1  0.79929474  0.19718564  0.49032305  1
  Mo  Mo172  1  0.69476057  0.49423680  0.62337921  1
  Mo  Mo173  1  0.80390159  0.19697788  0.74745500  1
  Mo  Mo174  1  0.69894924  0.49716160  0.87500565  1
  Mo  Mo175  1  0.50449503  0.30216219  0.61884543  1
  Mo  Mo176  1  0.69049154  0.89438235  0.10251193  1
  Mo  Mo177  1  0.49867424  0.90249389  0.88877863  1
  Mo  Mo178  1  0.20030286  0.39947662  0.26418208  1
  Mo  Mo179  1  0.89716731  0.30336922  0.15076204  1
  Mo  Mo180  1  0.70478317  0.29554835  0.38339205  1
  Mo  Mo181  1  0.59712520  -0.00185156  0.49796745  1
  Mo  Mo182  1  0.10641598  0.90401443  0.88013351  1
  Mo  Mo183  1  0.79300298  0.79749187  0.00125265  1
  Mo  Mo184  1  0.10489340  0.09382589  0.64112098  1
  Mo  Mo185  1  0.40161403  0.39749530  0.73690314  1
  Mo  Mo186  1  0.40351390  0.80667828  -0.00412171  1
  Mo  Mo187  1  0.30359576  0.29259758  0.37478116  1
  Mo  Mo188  1  0.88885279  0.69977219  0.61897755  1
  Mo  Mo189  1  0.49633980  0.69915822  0.85922072  1
  Mo  Mo190  1  0.79624948  0.40115286  0.48150654  1
  Mo  Mo191  1  0.40122521  0.19492438  0.51727049  1
  Mo  Mo192  1  0.20245968  0.39557791  -0.01304394  1
  Mo  Mo193  1  0.49854110  0.30378810  0.87767072  1
  Mo  Mo194  1  0.30281178  0.50092081  0.62728546  1
  Mo  Mo195  1  0.39078508  0.80800005  0.22418970  1
  Mo  Mo196  1  0.89732588  0.89858765  0.88112141  1
  Mo  Mo197  1  0.20378791  0.00150919  0.77632966  1
  Mo  Mo198  1  0.39805062  0.79686727  0.50631558  1
  Mo  Mo199  1  0.59791983  0.60342162  0.75930886  1
