# generated using pymatgen
data_HfZrTaTiMo
_symmetry_space_group_name_H-M   'P 1'
_cell_length_a   15.84420419
_cell_length_b   15.83080155
_cell_length_c   15.40189701
_cell_angle_alpha   90.01061119
_cell_angle_beta   90.05249691
_cell_angle_gamma   89.99645645
_symmetry_Int_Tables_number   1
_chemical_formula_structural   HfZrTaTiMo
_chemical_formula_sum   'Hf40 Zr40 Ta40 Ti40 Mo40'
_cell_volume   3863.20149092
_cell_formula_units_Z   40
loop_
 _symmetry_equiv_pos_site_id
 _symmetry_equiv_pos_as_xyz
  1  'x, y, z'
loop_
 _atom_site_type_symbol
 _atom_site_label
 _atom_site_symmetry_multiplicity
 _atom_site_fract_x
 _atom_site_fract_y
 _atom_site_fract_z
 _atom_site_occupancy
  Hf  Hf0  1  0.48918268  0.90166797  0.86339877  1
  Hf  Hf1  1  0.80057842  0.20029691  0.50276243  1
  Hf  Hf2  1  0.10545982  0.70206989  0.86398330  1
  Hf  Hf3  1  0.71414981  0.69188840  0.37321049  1
  Hf  Hf4  1  0.59683055  0.78184672  0.76816485  1
  Hf  Hf5  1  0.60064576  0.19537939  0.49852781  1
  Hf  Hf6  1  0.20259166  0.79618438  0.27563817  1
  Hf  Hf7  1  0.50006860  0.90691331  0.36056833  1
  Hf  Hf8  1  0.49193802  0.49847019  0.86644561  1
  Hf  Hf9  1  0.19593163  0.39699027  0.25988750  1
  Hf  Hf10  1  0.40142408  0.60469434  0.01087276  1
  Hf  Hf11  1  0.39246302  0.79913467  -0.00011376  1
  Hf  Hf12  1  0.30223127  0.30921991  0.61166383  1
  Hf  Hf13  1  0.48656532  0.29326183  0.37244722  1
  Hf  Hf14  1  0.50389188  0.10307421  0.13460608  1
  Hf  Hf15  1  0.19912239  0.40391485  0.48054749  1
  Hf  Hf16  1  0.20541943  0.00662250  0.50298388  1
  Hf  Hf17  1  0.28447982  0.89568306  0.13322757  1
  Hf  Hf18  1  -0.01651200  0.60087328  0.75792055  1
  Hf  Hf19  1  0.69530659  0.50339977  0.63221104  1
  Hf  Hf20  1  0.21089050  0.19401850  0.74890045  1
  Hf  Hf21  1  -0.00685835  0.39642559  0.23885485  1
  Hf  Hf22  1  0.01135985  0.00267047  -0.02287542  1
  Hf  Hf23  1  0.89979213  0.30629502  0.37634218  1
  Hf  Hf24  1  0.10474485  0.30017024  0.62574851  1
  Hf  Hf25  1  0.80477667  0.41238504  0.50680600  1
  Hf  Hf26  1  0.39932308  0.01110763  0.72252609  1
  Hf  Hf27  1  0.40932793  0.20495609  0.73870923  1
  Hf  Hf28  1  0.60580495  0.79561860  0.25212315  1
  Hf  Hf29  1  0.69973009  0.08845330  0.37398830  1
  Hf  Hf30  1  0.90573865  0.10742595  0.10257534  1
  Hf  Hf31  1  0.39274439  0.40257652  0.24729108  1
  Hf  Hf32  1  0.60273111  0.39954668  -0.01001202  1
  Hf  Hf33  1  0.39254657  -0.00167447  0.00721350  1
  Hf  Hf34  1  0.10591545  0.50184009  0.12435789  1
  Hf  Hf35  1  0.90509270  0.28398468  0.89184853  1
  Hf  Hf36  1  0.79203856  0.59181049  -0.00670604  1
  Hf  Hf37  1  0.10738512  0.49764626  0.87123949  1
  Hf  Hf38  1  0.08434764  0.90493041  0.39406266  1
  Hf  Hf39  1  -0.00477668  0.39900004  0.76047123  1
  Zr  Zr40  1  0.80023165  0.40241254  0.76572513  1
  Zr  Zr41  1  0.79931587  0.79562357  0.76930888  1
  Zr  Zr42  1  0.59408484  0.79472388  -0.00511829  1
  Zr  Zr43  1  0.79742679  0.60075700  0.77269999  1
  Zr  Zr44  1  0.50110298  0.49502798  0.37385583  1
  Zr  Zr45  1  0.39802377  0.40797514  0.01666402  1
  Zr  Zr46  1  0.00136173  0.60220255  0.24037230  1
  Zr  Zr47  1  0.20922402  0.60610365  -0.00065604  1
  Zr  Zr48  1  0.10764428  0.10325648  0.12651664  1
  Zr  Zr49  1  0.30630215  0.70782068  0.85382984  1
  Zr  Zr50  1  0.80413261  -0.00509035  0.52282813  1
  Zr  Zr51  1  0.50878582  0.30919818  0.13463608  1
  Zr  Zr52  1  0.90191291  0.69720730  0.37887934  1
  Zr  Zr53  1  0.40417618  0.61235109  0.49369846  1
  Zr  Zr54  1  0.80832349  0.20452746  0.23956762  1
  Zr  Zr55  1  0.60417871  -0.00408486  0.00374217  1
  Zr  Zr56  1  0.82024017  0.18101715  0.74739993  1
  Zr  Zr57  1  0.38453880  0.00480499  0.23923246  1
  Zr  Zr58  1  0.29762093  0.49439600  0.85719373  1
  Zr  Zr59  1  0.89639427  0.89909826  0.37295253  1
  Zr  Zr60  1  0.69552940  0.29960794  0.63226760  1
  Zr  Zr61  1  0.49744002  0.09538575  0.36334394  1
  Zr  Zr62  1  0.91075963  0.09396435  0.37942267  1
  Zr  Zr63  1  0.09133768  0.70753343  0.62455558  1
  Zr  Zr64  1  0.41402663  0.61002893  0.73426427  1
  Zr  Zr65  1  0.70223638  0.90148994  0.37338097  1
  Zr  Zr66  1  0.60031272  0.59182214  0.24768984  1
  Zr  Zr67  1  0.69439996  0.88831235  0.63651166  1
  Zr  Zr68  1  0.10323751  0.49535353  0.63161530  1
  Zr  Zr69  1  0.62007600  0.20920888  0.24987108  1
  Zr  Zr70  1  0.10764247  0.71201912  0.11558895  1
  Zr  Zr71  1  0.40799348  0.81520899  0.50741101  1
  Zr  Zr72  1  0.59185707  0.59434187  0.00727065  1
  Zr  Zr73  1  0.91612162  0.29223033  0.62245749  1
  Zr  Zr74  1  0.00327022  0.80301569  0.24175154  1
  Zr  Zr75  1  0.50374092  0.10268801  0.87480153  1
  Zr  Zr76  1  -0.02101154  0.00675186  0.75629116  1
  Zr  Zr77  1  0.90134896  0.90033614  0.11086316  1
  Zr  Zr78  1  0.50477253  0.49100574  0.61609256  1
  Zr  Zr79  1  0.08895263  0.10530538  0.62466578  1
  Ta  Ta80  1  0.80178632  0.79436407  0.51017058  1
  Ta  Ta81  1  0.28813418  0.29110499  0.12458392  1
  Ta  Ta82  1  -0.00027517  0.80670294  -0.02519348  1
  Ta  Ta83  1  0.19941402  0.00045130  -0.02156336  1
  Ta  Ta84  1  0.89681724  0.70417332  0.10350958  1
  Ta  Ta85  1  0.79585247  0.39786975  -0.00349017  1
  Ta  Ta86  1  0.19934347  0.80366029  0.50093828  1
  Ta  Ta87  1  0.79436230  0.00328019  0.22938608  1
  Ta  Ta88  1  -0.00284423  0.60103022  -0.00794644  1
  Ta  Ta89  1  0.30515346  0.10071924  0.87474377  1
  Ta  Ta90  1  0.30453024  0.29847124  0.88163189  1
  Ta  Ta91  1  0.60766318  0.60077952  0.48573019  1
  Ta  Ta92  1  0.09175228  0.70081454  0.39598385  1
  Ta  Ta93  1  0.30148974  0.49949370  0.61740353  1
  Ta  Ta94  1  0.10966027  0.29848841  0.87260680  1
  Ta  Ta95  1  0.69682923  0.09571511  0.63655505  1
  Ta  Ta96  1  0.29450644  0.70410112  0.61748272  1
  Ta  Ta97  1  0.19824498  0.60206820  0.49558659  1
  Ta  Ta98  1  0.19610028  0.81682464  -0.01856698  1
  Ta  Ta99  1  0.40202848  0.18714165  0.51430913  1
  Ta  Ta100  1  0.80338171  0.59440136  0.22747463  1
  Ta  Ta101  1  0.59977046  0.79426974  0.49048385  1
  Ta  Ta102  1  -0.01122950  0.59184654  0.50990971  1
  Ta  Ta103  1  0.49692499  0.89545561  0.13945058  1
  Ta  Ta104  1  0.20161151  0.39514575  0.00371952  1
  Ta  Ta105  1  0.71811550  0.08576373  0.87607951  1
  Ta  Ta106  1  -0.01146082  0.80690520  0.76299333  1
  Ta  Ta107  1  0.60933973  0.19987621  0.00232445  1
  Ta  Ta108  1  0.00457806  0.40075460  -0.00025353  1
  Ta  Ta109  1  0.70034486  0.69074318  0.61787081  1
  Ta  Ta110  1  0.59457343  0.38954237  0.76465674  1
  Ta  Ta111  1  0.19093785  0.00266061  0.26943042  1
  Ta  Ta112  1  0.39841367  0.20102434  0.00965218  1
  Ta  Ta113  1  0.20423441  0.20096494  0.48907261  1
  Ta  Ta114  1  0.09243335  0.29474941  0.37856571  1
  Ta  Ta115  1  0.29675858  0.90851434  0.85274261  1
  Ta  Ta116  1  0.58041649  -0.00649062  0.52011907  1
  Ta  Ta117  1  0.48986960  0.70412266  0.14550018  1
  Ta  Ta118  1  0.70500896  0.70208708  0.11894999  1
  Ta  Ta119  1  0.30368659  0.90713729  0.38171854  1
  Ti  Ti120  1  0.20568886  0.60099650  0.73387117  1
  Ti  Ti121  1  0.89811082  0.49661993  0.11307936  1
  Ti  Ti122  1  0.09967620  0.29180629  0.11622903  1
  Ti  Ti123  1  0.09377507  0.10208474  0.38293290  1
  Ti  Ti124  1  0.00550616  0.20133445  0.24977695  1
  Ti  Ti125  1  0.08538223  0.50510199  0.37447508  1
  Ti  Ti126  1  0.20556136  0.19976924  0.26663323  1
  Ti  Ti127  1  0.79132228  0.39330391  0.24073408  1
  Ti  Ti128  1  0.19936150  0.19421093  -0.01328257  1
  Ti  Ti129  1  0.50460539  0.30512843  0.61421335  1
  Ti  Ti130  1  0.29548874  0.51003187  0.13942296  1
  Ti  Ti131  1  0.40265716  0.80401149  0.72989272  1
  Ti  Ti132  1  0.29772790  0.70514846  0.13927455  1
  Ti  Ti133  1  0.20268407  0.60406891  0.27529592  1
  Ti  Ti134  1  0.10266588  0.90663138  0.12185845  1
  Ti  Ti135  1  0.90174509  0.29867470  0.10677094  1
  Ti  Ti136  1  0.70317715  0.28608763  0.87686801  1
  Ti  Ti137  1  0.60253651  0.19737022  0.75510922  1
  Ti  Ti138  1  0.19578364  0.81116610  0.74094094  1
  Ti  Ti139  1  0.69081992  0.48328710  0.13257938  1
  Ti  Ti140  1  0.08887182  0.90452093  0.62666471  1
  Ti  Ti141  1  0.00040019  0.00379934  0.24160392  1
  Ti  Ti142  1  0.31016517  0.10680980  0.37705103  1
  Ti  Ti143  1  0.60869416  0.59903805  0.77182139  1
  Ti  Ti144  1  0.49424616  0.29524581  0.88212141  1
  Ti  Ti145  1  0.89479877  0.50652964  0.36937077  1
  Ti  Ti146  1  0.28817698  0.10438321  0.12329337  1
  Ti  Ti147  1  0.30604321  0.50089613  0.38284047  1
  Ti  Ti148  1  0.39261637  0.61356607  0.26587947  1
  Ti  Ti149  1  0.40008741  0.39380404  0.74321213  1
  Ti  Ti150  1  0.51653377  0.70208062  0.61792194  1
  Ti  Ti151  1  0.70164632  0.89558083  0.12233794  1
  Ti  Ti152  1  0.89261233  0.69774187  0.62294634  1
  Ti  Ti153  1  0.86930417  0.91696776  0.88972669  1
  Ti  Ti154  1  0.29283479  0.90532800  0.62444797  1
  Ti  Ti155  1  0.60241108  -0.00233402  0.75004224  1
  Ti  Ti156  1  0.80466647  0.79526088  0.23838523  1
  Ti  Ti157  1  0.60752082  0.39512481  0.48362890  1
  Ti  Ti158  1  0.71164452  0.49415414  0.36769021  1
  Ti  Ti159  1  -0.00117700  0.40515246  0.50097363  1
  Mo  Mo160  1  0.89909332  0.50459491  0.62193555  1
  Mo  Mo161  1  0.29942115  0.29236567  0.37893816  1
  Mo  Mo162  1  0.50268765  0.70474228  0.36803016  1
  Mo  Mo163  1  0.51192058  0.10481763  0.63258134  1
  Mo  Mo164  1  0.90396003  0.49292358  0.89594669  1
  Mo  Mo165  1  0.29741050  0.10376138  0.61295352  1
  Mo  Mo166  1  0.79288867  0.19848096  0.00308275  1
  Mo  Mo167  1  0.90515893  0.88733184  0.62880226  1
  Mo  Mo168  1  0.61203686  0.39710220  0.26359310  1
  Mo  Mo169  1  0.10606870  0.10424027  0.86179642  1
  Mo  Mo170  1  0.00800404  0.19780215  0.77069266  1
  Mo  Mo171  1  0.01546830  0.20391283  -0.00843445  1
  Mo  Mo172  1  0.19951171  -0.00071315  0.74609772  1
  Mo  Mo173  1  0.79371072  0.00013921  0.01459512  1
  Mo  Mo174  1  0.90174695  0.70428225  0.89291598  1
  Mo  Mo175  1  0.00499899  0.20202844  0.48754089  1
  Mo  Mo176  1  0.79513327  -0.00397744  0.74262861  1
  Mo  Mo177  1  0.69468405  0.90492816  0.86976781  1
  Mo  Mo178  1  0.39967263  0.39644360  0.49764098  1
  Mo  Mo179  1  0.79391294  0.80102875  -0.00708673  1
  Mo  Mo180  1  0.39853467  0.00442053  0.51069335  1
  Mo  Mo181  1  0.79957637  0.59678227  0.50526551  1
  Mo  Mo182  1  0.69756822  0.69770510  0.89849361  1
  Mo  Mo183  1  0.49386326  0.69739652  0.87347666  1
  Mo  Mo184  1  0.38366859  0.20380371  0.23414391  1
  Mo  Mo185  1  -0.00069258  -0.00051247  0.51832447  1
  Mo  Mo186  1  0.70263537  0.09873816  0.11909375  1
  Mo  Mo187  1  0.50494195  0.89489743  0.63664201  1
  Mo  Mo188  1  0.70864720  0.30228390  0.10905427  1
  Mo  Mo189  1  0.20966361  0.39520689  0.75308850  1
  Mo  Mo190  1  0.70423083  0.30815861  0.38275710  1
  Mo  Mo191  1  0.89771883  0.09795350  0.89492969  1
  Mo  Mo192  1  0.69455295  0.49070260  0.86947146  1
  Mo  Mo193  1  0.60892710  -0.00345466  0.23110517  1
  Mo  Mo194  1  0.29655920  0.70443208  0.39304455  1
  Mo  Mo195  1  0.49440915  0.50728382  0.14461371  1
  Mo  Mo196  1  0.39629493  0.79688873  0.25943381  1
  Mo  Mo197  1  0.90346822  0.09695699  0.61347422  1
  Mo  Mo198  1  -0.00676718  0.79936010  0.51814708  1
  Mo  Mo199  1  0.10658702  0.90183521  0.85190639  1
