# generated using pymatgen
data_HfZrTaTiMo
_symmetry_space_group_name_H-M   'P 1'
_cell_length_a   15.83730447
_cell_length_b   15.83998320
_cell_length_c   15.39278880
_cell_angle_alpha   89.94884901
_cell_angle_beta   90.05660901
_cell_angle_gamma   89.99444517
_symmetry_Int_Tables_number   1
_chemical_formula_structural   HfZrTaTiMo
_chemical_formula_sum   'Hf40 Zr40 Ta40 Ti40 Mo40'
_cell_volume   3861.47214348
_cell_formula_units_Z   40
loop_
 _symmetry_equiv_pos_site_id
 _symmetry_equiv_pos_as_xyz
  1  'x, y, z'
loop_
 _atom_site_type_symbol
 _atom_site_label
 _atom_site_symmetry_multiplicity
 _atom_site_fract_x
 _atom_site_fract_y
 _atom_site_fract_z
 _atom_site_occupancy
  Hf  Hf0  1  0.70110551  0.69488611  0.36771690  1
  Hf  Hf1  1  0.51256410  0.30967559  0.38725911  1
  Hf  Hf2  1  0.10041264  0.69779655  0.13789460  1
  Hf  Hf3  1  0.29512731  0.90643998  0.61583398  1
  Hf  Hf4  1  0.20954638  0.42626522  0.75335367  1
  Hf  Hf5  1  0.09343420  0.70082491  0.62590795  1
  Hf  Hf6  1  0.38238269  0.57052532  0.75348484  1
  Hf  Hf7  1  0.91621042  0.49078762  0.13524975  1
  Hf  Hf8  1  0.19506762  0.79862707  -0.00821126  1
  Hf  Hf9  1  0.60963867  0.23127518  0.22755320  1
  Hf  Hf10  1  0.20236632  0.79902946  0.49038596  1
  Hf  Hf11  1  0.38290921  0.20775931  0.48680479  1
  Hf  Hf12  1  0.39446414  0.60216513  -0.00025467  1
  Hf  Hf13  1  0.39847190  0.61205439  0.48983012  1
  Hf  Hf14  1  -0.00679006  0.79752844  0.76341245  1
  Hf  Hf15  1  0.08959661  0.32052471  0.12528435  1
  Hf  Hf16  1  0.71346974  0.90183658  0.61281733  1
  Hf  Hf17  1  0.39987607  0.19920182  -0.00440019  1
  Hf  Hf18  1  0.00158529  -0.00241869  0.24232781  1
  Hf  Hf19  1  0.59994450  0.37074877  0.02861743  1
  Hf  Hf20  1  0.00331669  0.59387146  -0.01619423  1
  Hf  Hf21  1  0.39184035  0.00555189  0.25867495  1
  Hf  Hf22  1  0.39267516  0.80030268  0.27113400  1
  Hf  Hf23  1  0.19469411  0.00004694  0.25356567  1
  Hf  Hf24  1  0.89469149  0.89732967  0.89192859  1
  Hf  Hf25  1  0.50913825  0.49588779  0.37345193  1
  Hf  Hf26  1  0.61538712  0.19341535  0.74551164  1
  Hf  Hf27  1  0.60019773  0.78855775  0.01406602  1
  Hf  Hf28  1  0.90063260  0.11237957  0.12359230  1
  Hf  Hf29  1  0.10695507  0.30645928  0.36568575  1
  Hf  Hf30  1  0.73377659  0.10078332  0.62154339  1
  Hf  Hf31  1  0.89852843  0.49133501  0.36103839  1
  Hf  Hf32  1  0.80250888  -0.00226008  0.25090585  1
  Hf  Hf33  1  0.49640873  0.10866773  0.13181357  1
  Hf  Hf34  1  0.50386709  0.29583550  0.61733512  1
  Hf  Hf35  1  0.38369330  0.00522138  0.47921818  1
  Hf  Hf36  1  0.49331031  0.48973539  0.12812052  1
  Hf  Hf37  1  0.60224715  0.79994774  0.74214998  1
  Hf  Hf38  1  0.70504497  0.49105719  0.87828084  1
  Hf  Hf39  1  0.49246912  0.10269047  0.62079918  1
  Zr  Zr40  1  0.82731229  0.18700950  0.48516795  1
  Zr  Zr41  1  0.80581499  0.38946237  0.51503081  1
  Zr  Zr42  1  0.61098191  0.01017640  0.49362242  1
  Zr  Zr43  1  0.59062697  0.78638594  0.49864592  1
  Zr  Zr44  1  0.60453935  0.59194721  0.50118063  1
  Zr  Zr45  1  0.60590810  0.39809811  0.73787666  1
  Zr  Zr46  1  0.00729824  0.00073000  0.00572924  1
  Zr  Zr47  1  0.39509526  0.80267799  0.75532993  1
  Zr  Zr48  1  0.60554412  -0.00000769  0.74601041  1
  Zr  Zr49  1  0.19367116  0.81044199  0.75466280  1
  Zr  Zr50  1  0.60206772  0.60393449  0.24054914  1
  Zr  Zr51  1  0.10835263  0.12180138  0.12674700  1
  Zr  Zr52  1  0.80740992  0.59853089  0.00331406  1
  Zr  Zr53  1  0.31535469  0.31571054  0.64095775  1
  Zr  Zr54  1  0.39393494  0.79423856  -0.00694148  1
  Zr  Zr55  1  0.60397761  0.60094127  0.01742725  1
  Zr  Zr56  1  0.70548260  0.68937984  0.63183423  1
  Zr  Zr57  1  0.50723912  0.48915251  0.88204110  1
  Zr  Zr58  1  0.18725220  0.59570004  0.49687288  1
  Zr  Zr59  1  0.28783435  0.29411363  0.13053948  1
  Zr  Zr60  1  0.50193017  0.89832728  0.88255764  1
  Zr  Zr61  1  0.39409846  0.00029969  0.00109734  1
  Zr  Zr62  1  0.08613506  0.90577957  0.39302309  1
  Zr  Zr63  1  0.81456788  0.78714417  0.49034582  1
  Zr  Zr64  1  0.08480924  0.90610724  0.60999439  1
  Zr  Zr65  1  0.70054987  0.29300128  0.88182479  1
  Zr  Zr66  1  0.20150536  0.21095318  -0.01838924  1
  Zr  Zr67  1  0.00225179  0.40168368  0.51160371  1
  Zr  Zr68  1  0.51096321  0.89952025  0.37129309  1
  Zr  Zr69  1  0.48164189  0.48511054  0.61173926  1
  Zr  Zr70  1  0.70021223  0.89726915  0.88636699  1
  Zr  Zr71  1  0.51249983  0.11460887  0.36982520  1
  Zr  Zr72  1  0.39166203  0.59771097  0.25146887  1
  Zr  Zr73  1  0.18800109  0.20814294  0.51423588  1
  Zr  Zr74  1  -0.00665525  -0.00093339  0.75229669  1
  Zr  Zr75  1  0.29530092  0.88831391  0.13430426  1
  Zr  Zr76  1  0.70108537  0.69288069  0.86416019  1
  Zr  Zr77  1  0.20676723  0.00402773  0.00209252  1
  Zr  Zr78  1  0.49233264  0.89842953  0.61292941  1
  Zr  Zr79  1  0.29398084  0.48734069  0.38123023  1
  Ta  Ta80  1  -0.00010484  0.78906422  -0.00327838  1
  Ta  Ta81  1  0.50175043  0.89990919  0.13385265  1
  Ta  Ta82  1  0.28770220  0.49696031  0.11763845  1
  Ta  Ta83  1  -0.00167782  0.21375509  -0.01614345  1
  Ta  Ta84  1  0.20009341  0.20678960  0.75108834  1
  Ta  Ta85  1  0.80300613  0.80015120  0.24745232  1
  Ta  Ta86  1  0.80740014  0.58926870  0.49513947  1
  Ta  Ta87  1  0.60023522  0.00379275  0.01475273  1
  Ta  Ta88  1  0.10106970  0.10584647  0.86727965  1
  Ta  Ta89  1  0.50978993  0.10339251  0.87799863  1
  Ta  Ta90  1  0.79854440  0.00102721  0.00859229  1
  Ta  Ta91  1  0.81484015  0.58816814  0.75227290  1
  Ta  Ta92  1  0.29380758  0.69233293  0.86062812  1
  Ta  Ta93  1  0.71111818  0.48783540  0.13369280  1
  Ta  Ta94  1  0.91469641  0.29389308  0.35985403  1
  Ta  Ta95  1  0.40263914  0.39064995  0.25289246  1
  Ta  Ta96  1  0.70159496  0.48454658  0.36619722  1
  Ta  Ta97  1  0.80144163  0.78817360  0.01729082  1
  Ta  Ta98  1  -0.01721024  0.03559635  0.50009809  1
  Ta  Ta99  1  0.30218946  0.10186289  0.85580383  1
  Ta  Ta100  1  -0.01124262  0.41346936  0.74865886  1
  Ta  Ta101  1  0.19544403  0.60085415  -0.01382684  1
  Ta  Ta102  1  0.39805967  0.00030967  0.75719086  1
  Ta  Ta103  1  0.29916253  0.10519429  0.63885810  1
  Ta  Ta104  1  0.80953380  0.80208206  0.74543366  1
  Ta  Ta105  1  0.39054720  0.39300438  -0.00503011  1
  Ta  Ta106  1  0.90421547  0.27114297  0.64883040  1
  Ta  Ta107  1  0.19042367  0.01931730  0.50004805  1
  Ta  Ta108  1  0.70275423  0.10696538  0.12036677  1
  Ta  Ta109  1  0.90376540  0.89163856  0.11961187  1
  Ta  Ta110  1  0.00051834  0.60117810  0.76824978  1
  Ta  Ta111  1  0.29724902  0.69213114  0.63263059  1
  Ta  Ta112  1  0.09453286  0.30728359  0.64680224  1
  Ta  Ta113  1  0.70228989  0.89862497  0.12622836  1
  Ta  Ta114  1  0.49332553  0.68613705  0.64252641  1
  Ta  Ta115  1  0.60821528  0.00337595  0.24170901  1
  Ta  Ta116  1  0.89731841  0.30427473  0.86489976  1
  Ta  Ta117  1  0.90803673  0.69517041  0.13903385  1
  Ta  Ta118  1  0.50325857  0.68534345  0.85637737  1
  Ta  Ta119  1  -0.01190640  0.60638103  0.48627029  1
  Ti  Ti120  1  0.80099249  0.19718525  -0.00847679  1
  Ti  Ti121  1  0.28280164  0.69379532  0.36384504  1
  Ti  Ti122  1  0.09336906  0.51033055  0.63396821  1
  Ti  Ti123  1  0.90791718  0.30074374  0.12645558  1
  Ti  Ti124  1  -0.00544495  0.80395272  0.25482253  1
  Ti  Ti125  1  0.08235524  0.11867661  0.37029948  1
  Ti  Ti126  1  0.70569524  0.49734627  0.62613913  1
  Ti  Ti127  1  0.28787580  0.69152667  0.13452321  1
  Ti  Ti128  1  0.80368944  0.39575746  0.73861714  1
  Ti  Ti129  1  0.39104890  0.20558130  0.25797752  1
  Ti  Ti130  1  0.81592729  0.39600049  0.00256234  1
  Ti  Ti131  1  0.30511420  0.30463314  0.86208320  1
  Ti  Ti132  1  0.08803105  0.69844621  0.36584754  1
  Ti  Ti133  1  0.10246150  0.50880213  0.13481094  1
  Ti  Ti134  1  0.60481503  0.80124459  0.24465898  1
  Ti  Ti135  1  0.90485434  0.69446431  0.62776584  1
  Ti  Ti136  1  0.70620417  0.10572327  0.36726528  1
  Ti  Ti137  1  0.27615133  0.11578618  0.36603373  1
  Ti  Ti138  1  0.08503359  0.11583375  0.63915400  1
  Ti  Ti139  1  0.79483572  0.38307499  0.24411655  1
  Ti  Ti140  1  0.18711419  0.41089039  -0.01428029  1
  Ti  Ti141  1  0.18958624  0.80737559  0.26107897  1
  Ti  Ti142  1  0.39383253  0.79490715  0.48506391  1
  Ti  Ti143  1  0.62548836  0.20944457  0.51049240  1
  Ti  Ti144  1  0.90161870  0.90309232  0.38383625  1
  Ti  Ti145  1  0.09482499  0.31193156  0.85983444  1
  Ti  Ti146  1  0.50170256  0.29188054  0.86953263  1
  Ti  Ti147  1  0.20317066  0.39948900  0.51527332  1
  Ti  Ti148  1  0.20379587  0.40638845  0.24720174  1
  Ti  Ti149  1  0.79835993  0.00303114  0.76652469  1
  Ti  Ti150  1  0.70489809  0.90003881  0.37525272  1
  Ti  Ti151  1  0.89916178  0.10427007  0.87647725  1
  Ti  Ti152  1  0.80457352  0.20140166  0.25273021  1
  Ti  Ti153  1  0.10116506  0.90774384  0.87824352  1
  Ti  Ti154  1  0.70565537  0.30519051  0.37967614  1
  Ti  Ti155  1  0.09483067  0.50323180  0.35950136  1
  Ti  Ti156  1  0.19725176  0.00482115  0.74595579  1
  Ti  Ti157  1  0.89793499  0.90729787  0.60822021  1
  Ti  Ti158  1  0.48790928  0.70797887  0.13757905  1
  Ti  Ti159  1  0.80255880  0.60014362  0.24748391  1
  Mo  Mo160  1  0.09954726  0.70142614  0.87201297  1
  Mo  Mo161  1  0.40758543  0.19569835  0.76176433  1
  Mo  Mo162  1  0.89589069  0.49143917  0.87380485  1
  Mo  Mo163  1  0.00006492  0.39966946  -0.01994157  1
  Mo  Mo164  1  -0.00170366  0.20546834  0.24186861  1
  Mo  Mo165  1  0.70886843  0.69958561  0.14161488  1
  Mo  Mo166  1  0.90092022  0.69733085  0.35620744  1
  Mo  Mo167  1  0.29637041  0.30053660  0.36630544  1
  Mo  Mo168  1  0.09914848  0.49934370  0.86646593  1
  Mo  Mo169  1  0.71406755  0.29430684  0.62525388  1
  Mo  Mo170  1  0.59910114  0.19266931  0.00792953  1
  Mo  Mo171  1  0.80505272  -0.00272605  0.47718580  1
  Mo  Mo172  1  0.00026612  0.60171433  0.26071771  1
  Mo  Mo173  1  0.19690602  0.20398606  0.25323380  1
  Mo  Mo174  1  0.09270131  0.88586030  0.12537349  1
  Mo  Mo175  1  0.73465767  0.29338338  0.11095666  1
  Mo  Mo176  1  0.70056274  0.09484262  0.89680911  1
  Mo  Mo177  1  0.29755188  0.49647316  0.89763597  1
  Mo  Mo178  1  0.00381901  0.20368512  0.77045752  1
  Mo  Mo179  1  0.90433493  0.09112122  0.64198881  1
  Mo  Mo180  1  0.49771230  0.70155830  0.36289817  1
  Mo  Mo181  1  -0.00457043  0.78839861  0.49385747  1
  Mo  Mo182  1  0.39760635  0.39826403  0.48311491  1
  Mo  Mo183  1  0.29071458  0.50759825  0.60458899  1
  Mo  Mo184  1  0.19403906  0.60536411  0.75403580  1
  Mo  Mo185  1  0.40641789  0.39183567  0.77276108  1
  Mo  Mo186  1  0.47745833  0.29933776  0.12756963  1
  Mo  Mo187  1  0.60110896  0.59297349  0.74022140  1
  Mo  Mo188  1  0.29130660  0.90477428  0.86557319  1
  Mo  Mo189  1  0.90388951  0.51270888  0.62564311  1
  Mo  Mo190  1  0.61587618  0.39502103  0.51050954  1
  Mo  Mo191  1  0.90625355  0.10331965  0.35060901  1
  Mo  Mo192  1  0.80375883  0.19036579  0.77022297  1
  Mo  Mo193  1  0.00405748  0.20928867  0.50635975  1
  Mo  Mo194  1  0.89551359  0.70103911  0.87127227  1
  Mo  Mo195  1  0.19575185  0.59778079  0.25393848  1
  Mo  Mo196  1  0.60960396  0.39872110  0.23820064  1
  Mo  Mo197  1  0.30018760  0.10329186  0.14355894  1
  Mo  Mo198  1  0.28632095  0.90524469  0.38460937  1
  Mo  Mo199  1  0.00158576  0.40245839  0.25260219  1
