# generated using pymatgen
data_HfZrTaTiMo
_symmetry_space_group_name_H-M   'P 1'
_cell_length_a   15.84355333
_cell_length_b   15.82648057
_cell_length_c   15.41771959
_cell_angle_alpha   90.05071975
_cell_angle_beta   90.07537912
_cell_angle_gamma   89.96565765
_symmetry_Int_Tables_number   1
_chemical_formula_structural   HfZrTaTiMo
_chemical_formula_sum   'Hf40 Zr40 Ta40 Ti40 Mo40'
_cell_volume   3865.95200212
_cell_formula_units_Z   40
loop_
 _symmetry_equiv_pos_site_id
 _symmetry_equiv_pos_as_xyz
  1  'x, y, z'
loop_
 _atom_site_type_symbol
 _atom_site_label
 _atom_site_symmetry_multiplicity
 _atom_site_fract_x
 _atom_site_fract_y
 _atom_site_fract_z
 _atom_site_occupancy
  Hf  Hf0  1  0.89338182  0.49013135  0.87582978  1
  Hf  Hf1  1  0.30348439  0.50620442  0.88778416  1
  Hf  Hf2  1  0.01062100  -0.00685761  0.49136687  1
  Hf  Hf3  1  0.21383607  0.20081112  0.73033714  1
  Hf  Hf4  1  0.79635044  0.40020594  0.24180513  1
  Hf  Hf5  1  0.79804287  0.78407167  0.75646864  1
  Hf  Hf6  1  0.60015987  0.58686131  0.76358547  1
  Hf  Hf7  1  -0.00163314  0.38125264  -0.00677679  1
  Hf  Hf8  1  0.89013661  0.89329871  0.37575691  1
  Hf  Hf9  1  0.51628180  0.10829267  0.63477842  1
  Hf  Hf10  1  0.28795529  0.10979488  0.14283994  1
  Hf  Hf11  1  0.91705467  0.89059943  0.64055155  1
  Hf  Hf12  1  0.09923448  0.50184100  0.11736126  1
  Hf  Hf13  1  0.31787514  0.08299140  0.61645109  1
  Hf  Hf14  1  0.39600690  0.01263935  0.00947669  1
  Hf  Hf15  1  0.59201147  0.19982875  0.00099030  1
  Hf  Hf16  1  0.39807132  0.60629948  0.74824926  1
  Hf  Hf17  1  0.80776528  0.19156985  0.24416411  1
  Hf  Hf18  1  0.68718748  0.47597954  0.61439979  1
  Hf  Hf19  1  0.40153932  0.80804817  0.48586386  1
  Hf  Hf20  1  0.00069687  0.79985138  -0.00586813  1
  Hf  Hf21  1  0.30130696  0.68824381  0.36065533  1
  Hf  Hf22  1  0.49627251  0.69421581  0.36075830  1
  Hf  Hf23  1  0.80055210  -0.00829639  0.23905923  1
  Hf  Hf24  1  0.87813037  0.30010943  0.63664497  1
  Hf  Hf25  1  0.89628843  0.69424782  0.12035068  1
  Hf  Hf26  1  0.20118247  0.80676963  0.00859799  1
  Hf  Hf27  1  0.30525647  0.30668810  0.86544232  1
  Hf  Hf28  1  0.20458406  0.41349447  0.25182602  1
  Hf  Hf29  1  -0.00104669  0.39039752  0.25353287  1
  Hf  Hf30  1  0.20442469  0.60778434  0.74688056  1
  Hf  Hf31  1  0.00298020  0.59823635  0.25416486  1
  Hf  Hf32  1  0.10153141  0.29613993  0.85109269  1
  Hf  Hf33  1  0.10872010  0.89538354  0.85208553  1
  Hf  Hf34  1  0.12127041  0.89033514  0.63534502  1
  Hf  Hf35  1  0.09723166  0.30240245  0.62206421  1
  Hf  Hf36  1  0.60644560  0.01161918  0.49658943  1
  Hf  Hf37  1  0.49279213  0.70258865  0.89646279  1
  Hf  Hf38  1  -0.00583516  0.80361116  0.25117860  1
  Hf  Hf39  1  0.50192862  0.30378282  0.14661049  1
  Zr  Zr40  1  0.89580135  0.49712455  0.11391181  1
  Zr  Zr41  1  0.61107171  0.79965582  0.25073091  1
  Zr  Zr42  1  -0.00913843  0.60793714  0.76600196  1
  Zr  Zr43  1  0.20380626  0.38727997  0.01067610  1
  Zr  Zr44  1  0.80041024  0.80111282  -0.00664471  1
  Zr  Zr45  1  0.50065729  0.70086370  0.61866912  1
  Zr  Zr46  1  0.09711856  0.92226641  0.13487575  1
  Zr  Zr47  1  0.49105358  0.90480599  0.88710428  1
  Zr  Zr48  1  0.38233570  0.81968409  0.74882944  1
  Zr  Zr49  1  0.49178430  0.91102211  0.62275900  1
  Zr  Zr50  1  0.31576781  0.33094352  0.38787209  1
  Zr  Zr51  1  0.09924376  0.27279453  0.13426541  1
  Zr  Zr52  1  0.70059532  0.29980870  0.11802191  1
  Zr  Zr53  1  0.80333284  -0.00402629  0.51912916  1
  Zr  Zr54  1  0.50489941  0.50780011  0.12450443  1
  Zr  Zr55  1  0.20162784  0.19901308  0.28516228  1
  Zr  Zr56  1  0.50460622  0.88805723  0.11799047  1
  Zr  Zr57  1  0.40532084  0.00763781  0.25347494  1
  Zr  Zr58  1  0.68121432  0.28454688  0.36053148  1
  Zr  Zr59  1  0.00544404  0.78902350  0.49021039  1
  Zr  Zr60  1  0.79299791  -0.00589817  0.75626622  1
  Zr  Zr61  1  0.41901636  0.20818464  0.49313994  1
  Zr  Zr62  1  0.89664993  0.50228575  0.36822206  1
  Zr  Zr63  1  0.69644634  0.49356109  0.38523756  1
  Zr  Zr64  1  0.19567925  0.79934526  0.24549029  1
  Zr  Zr65  1  0.10621093  0.49672727  0.87844684  1
  Zr  Zr66  1  0.51709031  0.31407933  0.63659084  1
  Zr  Zr67  1  -0.01063994  0.19234719  0.50409350  1
  Zr  Zr68  1  0.08837351  0.51572129  0.61720770  1
  Zr  Zr69  1  -0.02535140  0.41613679  0.51318046  1
  Zr  Zr70  1  0.29143986  0.71806260  0.61161931  1
  Zr  Zr71  1  0.20032939  0.19275747  -0.01125067  1
  Zr  Zr72  1  0.19825756  0.00800527  -0.00855694  1
  Zr  Zr73  1  0.09714003  0.31233122  0.39941245  1
  Zr  Zr74  1  0.81974776  0.58674174  0.51792732  1
  Zr  Zr75  1  0.68129107  0.69539097  0.10843660  1
  Zr  Zr76  1  0.00110482  0.00424702  -0.02121512  1
  Zr  Zr77  1  0.69284286  0.68991944  0.61610752  1
  Zr  Zr78  1  0.10676213  0.08588942  0.63127938  1
  Zr  Zr79  1  0.77410619  0.18811533  0.51462702  1
  Ta  Ta80  1  0.88220132  0.29936532  0.38672371  1
  Ta  Ta81  1  0.11278790  0.50628335  0.38793270  1
  Ta  Ta82  1  0.79172160  0.59092576  0.75639338  1
  Ta  Ta83  1  0.19648729  0.61309091  0.49926525  1
  Ta  Ta84  1  0.91883703  0.09942887  0.12361491  1
  Ta  Ta85  1  0.49697812  0.30623471  0.86973032  1
  Ta  Ta86  1  0.69949108  0.09744921  0.88384918  1
  Ta  Ta87  1  0.80817207  0.00067415  -0.00696007  1
  Ta  Ta88  1  0.00287410  0.18818327  -0.02151031  1
  Ta  Ta89  1  0.69040639  0.89850159  0.88544757  1
  Ta  Ta90  1  0.40241516  0.39451742  0.01171723  1
  Ta  Ta91  1  0.30425438  0.50722704  0.60377822  1
  Ta  Ta92  1  0.30636934  0.89868490  0.35887705  1
  Ta  Ta93  1  0.70333873  0.89728612  0.38260970  1
  Ta  Ta94  1  0.69559399  0.50084508  0.11339176  1
  Ta  Ta95  1  0.50025204  0.10641417  0.87019531  1
  Ta  Ta96  1  0.30292806  0.90332526  0.13681151  1
  Ta  Ta97  1  -0.00839342  0.40162915  0.74508521  1
  Ta  Ta98  1  0.90425796  0.10242009  0.65437102  1
  Ta  Ta99  1  0.31141793  0.09911517  0.85973122  1
  Ta  Ta100  1  0.30376157  0.50942612  0.12118620  1
  Ta  Ta101  1  0.20806056  0.41007582  0.73068365  1
  Ta  Ta102  1  0.61194835  0.00087489  0.23529874  1
  Ta  Ta103  1  0.60104621  0.80354550  0.48834872  1
  Ta  Ta104  1  0.00192438  0.01184165  0.26979765  1
  Ta  Ta105  1  0.30097486  0.71025386  0.88987334  1
  Ta  Ta106  1  0.59866725  0.80013235  0.76061528  1
  Ta  Ta107  1  0.77472496  0.39467304  0.76176330  1
  Ta  Ta108  1  0.61390562  0.20541329  0.76382739  1
  Ta  Ta109  1  0.21078924  0.19639781  0.50055382  1
  Ta  Ta110  1  0.39980510  0.41233099  0.74184910  1
  Ta  Ta111  1  0.68926441  0.89162052  0.62722139  1
  Ta  Ta112  1  0.71015531  0.09746871  0.10952587  1
  Ta  Ta113  1  0.09968135  0.69370231  0.12439537  1
  Ta  Ta114  1  0.90053949  0.90479615  0.12333777  1
  Ta  Ta115  1  0.51771769  0.12045916  0.35591688  1
  Ta  Ta116  1  0.49227799  0.49911344  0.88914881  1
  Ta  Ta117  1  0.70645000  0.69753298  0.38600982  1
  Ta  Ta118  1  0.40596725  0.20659186  0.74537223  1
  Ta  Ta119  1  0.90438267  0.28556165  0.11918920  1
  Ti  Ti120  1  0.59930959  -0.00273420  0.75706006  1
  Ti  Ti121  1  0.49821498  0.11050573  0.13521055  1
  Ti  Ti122  1  0.81497256  0.19314497  -0.00982490  1
  Ti  Ti123  1  0.19197249  0.00967752  0.27599736  1
  Ti  Ti124  1  0.20915128  -0.00147910  0.47920021  1
  Ti  Ti125  1  0.70013732  0.29634920  0.88628901  1
  Ti  Ti126  1  0.49003747  0.69572980  0.12171382  1
  Ti  Ti127  1  0.39615777  0.20650752  -0.00095294  1
  Ti  Ti128  1  0.58245920  0.59200374  0.48547113  1
  Ti  Ti129  1  0.30903038  0.31244619  0.61174410  1
  Ti  Ti130  1  0.79984868  0.39038815  -0.00422029  1
  Ti  Ti131  1  0.69140301  0.69636535  0.88336463  1
  Ti  Ti132  1  0.79322980  0.79804041  0.23965885  1
  Ti  Ti133  1  0.91124299  0.69205930  0.62841208  1
  Ti  Ti134  1  0.88998285  0.69699558  0.37355375  1
  Ti  Ti135  1  0.50992152  0.90394022  0.36118010  1
  Ti  Ti136  1  0.20007595  0.60860247  0.00342887  1
  Ti  Ti137  1  0.60218482  0.59011323  0.25948733  1
  Ti  Ti138  1  0.78842212  0.60466270  0.24604636  1
  Ti  Ti139  1  0.10172277  0.09602404  0.83876863  1
  Ti  Ti140  1  0.89054814  0.09771675  0.38113145  1
  Ti  Ti141  1  -0.00144469  0.60404839  -0.01046294  1
  Ti  Ti142  1  0.10411140  0.70299141  0.87536735  1
  Ti  Ti143  1  0.79354789  0.59567190  -0.01493108  1
  Ti  Ti144  1  0.90477704  0.89565857  0.86119328  1
  Ti  Ti145  1  0.58259033  0.38431201  0.47970777  1
  Ti  Ti146  1  0.09496670  0.70927234  0.63157110  1
  Ti  Ti147  1  0.59886612  0.40167403  -0.00954303  1
  Ti  Ti148  1  0.30952011  0.30024597  0.14444989  1
  Ti  Ti149  1  0.89726394  0.28675507  0.85745938  1
  Ti  Ti150  1  0.23700288  -0.02032649  0.75112293  1
  Ti  Ti151  1  0.79939299  0.79573487  0.51247157  1
  Ti  Ti152  1  0.60257422  0.00139968  0.00928780  1
  Ti  Ti153  1  0.30504031  0.69813682  0.13191593  1
  Ti  Ti154  1  0.19701641  0.81243131  0.47524970  1
  Ti  Ti155  1  0.10359606  0.69594864  0.36563812  1
  Ti  Ti156  1  0.49748234  0.50327336  0.61857083  1
  Ti  Ti157  1  0.70099968  0.09213992  0.36111622  1
  Ti  Ti158  1  0.40740925  0.00646066  0.47161923  1
  Ti  Ti159  1  -0.00018333  0.19438587  0.27367976  1
  Mo  Mo160  1  0.59874185  0.59580801  -0.01158336  1
  Mo  Mo161  1  0.69656967  0.49428790  0.89280106  1
  Mo  Mo162  1  0.50162384  0.30583127  0.35318430  1
  Mo  Mo163  1  0.60841927  0.18792146  0.22639120  1
  Mo  Mo164  1  0.39099919  0.80188526  0.02083924  1
  Mo  Mo165  1  -0.00017679  -0.00247069  0.75456313  1
  Mo  Mo166  1  0.10004208  0.10240665  0.39700428  1
  Mo  Mo167  1  0.40237700  0.60047494  0.49533870  1
  Mo  Mo168  1  0.69833667  0.09497104  0.65157442  1
  Mo  Mo169  1  0.48431900  0.49223353  0.36194823  1
  Mo  Mo170  1  0.70473704  0.90502676  0.10302511  1
  Mo  Mo171  1  0.30276638  0.90222689  0.89428783  1
  Mo  Mo172  1  0.88299217  0.49503529  0.65508173  1
  Mo  Mo173  1  0.40130460  0.20628047  0.26320291  1
  Mo  Mo174  1  0.29956405  0.90934133  0.59520882  1
  Mo  Mo175  1  0.78663999  0.38861588  0.50402086  1
  Mo  Mo176  1  0.59956386  0.19651069  0.50016668  1
  Mo  Mo177  1  0.20577592  0.79268455  0.75972981  1
  Mo  Mo178  1  0.00686583  0.61271333  0.48459948  1
  Mo  Mo179  1  0.30785807  0.10176165  0.38355480  1
  Mo  Mo180  1  0.59906731  0.40883326  0.25669637  1
  Mo  Mo181  1  0.19666258  0.59760434  0.24428619  1
  Mo  Mo182  1  0.39647611  0.41022831  0.23943519  1
  Mo  Mo183  1  0.30342788  0.51125284  0.38970435  1
  Mo  Mo184  1  0.10387444  0.90001598  0.36630559  1
  Mo  Mo185  1  0.89964710  0.10165844  0.86491035  1
  Mo  Mo186  1  0.59674346  0.40231755  0.77294473  1
  Mo  Mo187  1  0.41103125  0.41113695  0.51004271  1
  Mo  Mo188  1  0.39293895  0.60250448  0.00973176  1
  Mo  Mo189  1  0.00025219  0.79220040  0.75939021  1
  Mo  Mo190  1  0.89368972  0.69463861  0.88398334  1
  Mo  Mo191  1  0.09186336  0.10500118  0.13763344  1
  Mo  Mo192  1  0.00136528  0.20097355  0.75096269  1
  Mo  Mo193  1  0.79346642  0.19778248  0.76382814  1
  Mo  Mo194  1  0.68929660  0.29277251  0.63022935  1
  Mo  Mo195  1  0.40805907  0.00834253  0.75607415  1
  Mo  Mo196  1  0.59789436  0.79982537  -0.00993844  1
  Mo  Mo197  1  0.20246972  0.40781300  0.51543407  1
  Mo  Mo198  1  0.39571223  0.59734222  0.23896711  1
  Mo  Mo199  1  0.40122747  0.80075043  0.24217017  1
