# generated using pymatgen
data_HfZrTaTiMo
_symmetry_space_group_name_H-M   'P 1'
_cell_length_a   15.82325668
_cell_length_b   15.83837008
_cell_length_c   15.40315003
_cell_angle_alpha   90.01181889
_cell_angle_beta   89.96770435
_cell_angle_gamma   89.81577593
_symmetry_Int_Tables_number   1
_chemical_formula_structural   HfZrTaTiMo
_chemical_formula_sum   'Hf40 Zr40 Ta40 Ti40 Mo40'
_cell_volume   3860.23355866
_cell_formula_units_Z   40
loop_
 _symmetry_equiv_pos_site_id
 _symmetry_equiv_pos_as_xyz
  1  'x, y, z'
loop_
 _atom_site_type_symbol
 _atom_site_label
 _atom_site_symmetry_multiplicity
 _atom_site_fract_x
 _atom_site_fract_y
 _atom_site_fract_z
 _atom_site_occupancy
  Hf  Hf0  1  0.40487629  0.61700645  0.75818755  1
  Hf  Hf1  1  0.29255473  0.71280946  0.87624478  1
  Hf  Hf2  1  0.39077011  0.01343115  0.48757868  1
  Hf  Hf3  1  0.39273812  0.40658261  -0.00531065  1
  Hf  Hf4  1  0.49563773  0.90912977  0.36840645  1
  Hf  Hf5  1  0.10798677  0.09333654  0.63455267  1
  Hf  Hf6  1  0.50216587  0.50485282  0.63354623  1
  Hf  Hf7  1  0.70310317  0.50087319  0.13218532  1
  Hf  Hf8  1  0.29069455  0.70677259  0.12069864  1
  Hf  Hf9  1  0.19407333  0.60832821  0.51804895  1
  Hf  Hf10  1  0.20463205  0.58876910  -0.00110638  1
  Hf  Hf11  1  0.28335399  0.90763091  0.13248769  1
  Hf  Hf12  1  0.10843171  0.29702471  0.39393001  1
  Hf  Hf13  1  0.50610220  0.28901521  0.62328824  1
  Hf  Hf14  1  0.40680755  0.40168985  0.50412220  1
  Hf  Hf15  1  0.60271932  0.61155736  0.76012572  1
  Hf  Hf16  1  0.89813076  0.89181820  0.37824485  1
  Hf  Hf17  1  0.09754622  0.68709661  0.87008850  1
  Hf  Hf18  1  0.60627345  0.19862027  0.75597707  1
  Hf  Hf19  1  -0.01082969  0.79524709  0.74765783  1
  Hf  Hf20  1  0.49310326  0.72210053  0.61448622  1
  Hf  Hf21  1  -0.00270484  -0.00859472  0.76031551  1
  Hf  Hf22  1  0.50254187  0.49775678  0.36637658  1
  Hf  Hf23  1  0.69960198  0.49982123  0.35758679  1
  Hf  Hf24  1  0.40601556  0.20211635  0.00780245  1
  Hf  Hf25  1  0.69959408  0.90305566  0.38478671  1
  Hf  Hf26  1  0.89497395  0.49633288  0.12646915  1
  Hf  Hf27  1  0.68600751  0.89964701  0.60849269  1
  Hf  Hf28  1  0.70934586  0.28874438  0.60974815  1
  Hf  Hf29  1  0.60565547  0.00778633  0.02197649  1
  Hf  Hf30  1  0.81096381  0.20149725  0.26020709  1
  Hf  Hf31  1  0.70252345  0.90662953  0.88097640  1
  Hf  Hf32  1  0.88060518  0.91329044  0.62513906  1
  Hf  Hf33  1  0.79933872  0.59860694  0.50678085  1
  Hf  Hf34  1  0.59938308  0.59725223  0.49922007  1
  Hf  Hf35  1  0.70903805  0.08938055  0.62217200  1
  Hf  Hf36  1  0.30555037  0.29290009  0.63329086  1
  Hf  Hf37  1  0.90831071  0.09456208  0.12494871  1
  Hf  Hf38  1  0.20226717  0.39813972  0.24869676  1
  Hf  Hf39  1  -0.00381520  0.00205400  0.49929352  1
  Zr  Zr40  1  0.39579693  0.80338641  0.25176039  1
  Zr  Zr41  1  0.61110917  0.40098454  0.75840143  1
  Zr  Zr42  1  0.31042076  0.29610169  0.37728723  1
  Zr  Zr43  1  0.09521728  0.70068327  0.37237923  1
  Zr  Zr44  1  0.88944414  0.08813372  0.87354349  1
  Zr  Zr45  1  0.21090261  0.18696338  0.24386928  1
  Zr  Zr46  1  0.61365743  0.80074984  0.23876240  1
  Zr  Zr47  1  0.01161351  0.18957300  0.25840585  1
  Zr  Zr48  1  -0.00054525  0.79111810  0.51666456  1
  Zr  Zr49  1  0.49236451  0.91099812  0.12938423  1
  Zr  Zr50  1  -0.00111585  -0.01353408  -0.01091373  1
  Zr  Zr51  1  0.20051854  0.39767105  -0.01790158  1
  Zr  Zr52  1  0.10218279  0.28689049  0.62478441  1
  Zr  Zr53  1  -0.00018868  0.38261058  0.24822275  1
  Zr  Zr54  1  0.89291005  0.48953599  0.37041407  1
  Zr  Zr55  1  0.30195766  0.89831763  0.63188963  1
  Zr  Zr56  1  -0.00400954  0.59775068  0.25827200  1
  Zr  Zr57  1  0.31339138  0.09414817  0.64244242  1
  Zr  Zr58  1  0.20615374  0.19595501  -0.01166773  1
  Zr  Zr59  1  0.80143587  0.59783139  0.73088926  1
  Zr  Zr60  1  0.68728132  0.71076094  0.61788940  1
  Zr  Zr61  1  0.80379728  0.39090477  0.74646046  1
  Zr  Zr62  1  0.40255102  0.39436465  0.76469668  1
  Zr  Zr63  1  0.60094721  0.60834037  0.00014979  1
  Zr  Zr64  1  0.08975887  0.30337754  0.86521608  1
  Zr  Zr65  1  0.39426180  0.60167209  0.24479511  1
  Zr  Zr66  1  0.09753141  0.70319251  0.11897725  1
  Zr  Zr67  1  0.91434311  0.49481798  0.86933960  1
  Zr  Zr68  1  0.70621598  0.31371431  0.37154923  1
  Zr  Zr69  1  0.28871070  0.71223133  0.37423958  1
  Zr  Zr70  1  0.80800198  0.17382466  0.47773998  1
  Zr  Zr71  1  0.60311823  0.39585746  -0.00236372  1
  Zr  Zr72  1  0.49280920  0.90767781  0.89193505  1
  Zr  Zr73  1  -0.01054601  0.59630956  0.51528635  1
  Zr  Zr74  1  0.80207324  0.38833995  -0.00749287  1
  Zr  Zr75  1  0.10115555  0.49190563  0.12694974  1
  Zr  Zr76  1  0.59136926  0.00212568  0.74818735  1
  Zr  Zr77  1  0.88478599  0.69546253  0.88406812  1
  Zr  Zr78  1  0.29348574  0.50328663  0.38349782  1
  Zr  Zr79  1  0.89387847  0.69579161  0.11565450  1
  Ta  Ta80  1  0.78912254  0.80939141  0.01982409  1
  Ta  Ta81  1  0.50493110  0.09899716  0.89289194  1
  Ta  Ta82  1  0.09719298  0.89445607  0.12108531  1
  Ta  Ta83  1  0.50060427  0.50940699  0.87933888  1
  Ta  Ta84  1  0.50704517  0.30660016  0.13364392  1
  Ta  Ta85  1  0.80372709  -0.00248648  0.25412019  1
  Ta  Ta86  1  0.38929206  0.80931091  -0.00102377  1
  Ta  Ta87  1  0.39675492  0.60694813  0.50306795  1
  Ta  Ta88  1  -0.00522476  0.39627219  0.72809872  1
  Ta  Ta89  1  0.00763158  -0.00761476  0.25055308  1
  Ta  Ta90  1  -0.00344010  0.19881899  -0.00538613  1
  Ta  Ta91  1  0.50746449  0.30445123  0.35968595  1
  Ta  Ta92  1  0.20353391  0.40030873  0.51814743  1
  Ta  Ta93  1  0.20956562  0.19616043  0.77029230  1
  Ta  Ta94  1  0.30170235  0.50564953  0.63419872  1
  Ta  Ta95  1  0.49627976  0.50473842  0.12168695  1
  Ta  Ta96  1  0.79542833  0.19811235  -0.00154689  1
  Ta  Ta97  1  0.00363621  0.58640957  -0.00501187  1
  Ta  Ta98  1  0.39805897  0.40240067  0.23890119  1
  Ta  Ta99  1  0.70860812  0.10678305  0.13789860  1
  Ta  Ta100  1  0.78884280  0.80541528  0.75007903  1
  Ta  Ta101  1  0.19816329  0.40193493  0.74791950  1
  Ta  Ta102  1  0.00327133  0.18947810  0.49590632  1
  Ta  Ta103  1  0.27785204  0.91857871  0.36401275  1
  Ta  Ta104  1  0.10939771  0.08650627  0.10967302  1
  Ta  Ta105  1  0.30048964  0.30374063  0.12397981  1
  Ta  Ta106  1  0.60872698  0.20310957  0.01497751  1
  Ta  Ta107  1  0.09751961  0.48953631  0.39215930  1
  Ta  Ta108  1  0.10349602  0.90162595  0.63135750  1
  Ta  Ta109  1  0.49541155  0.91201243  0.61159751  1
  Ta  Ta110  1  0.21596492  0.18152447  0.49875036  1
  Ta  Ta111  1  0.11978221  0.08044794  0.38338726  1
  Ta  Ta112  1  0.80234240  0.20223776  0.76083051  1
  Ta  Ta113  1  0.31868747  0.08536905  0.87597663  1
  Ta  Ta114  1  0.59607192  0.61077271  0.24082309  1
  Ta  Ta115  1  -0.01200982  0.80129261  0.24631438  1
  Ta  Ta116  1  0.49654431  0.70781374  0.10953546  1
  Ta  Ta117  1  0.50281307  0.70426133  0.38135393  1
  Ta  Ta118  1  0.71078032  0.51082930  0.88312305  1
  Ta  Ta119  1  0.59969394  0.19496172  0.48077956  1
  Ti  Ti120  1  0.29098214  0.50998787  0.85386042  1
  Ti  Ti121  1  0.90910457  0.30415988  0.39369022  1
  Ti  Ti122  1  0.89844976  0.10384752  0.63524575  1
  Ti  Ti123  1  0.20996745  -0.01100243  -0.01504487  1
  Ti  Ti124  1  0.60581518  0.20573371  0.24432284  1
  Ti  Ti125  1  0.10135342  0.09599682  0.87548918  1
  Ti  Ti126  1  0.58886090  0.80197707  0.76160252  1
  Ti  Ti127  1  0.10741678  0.88398118  0.87791914  1
  Ti  Ti128  1  0.89871456  0.29394128  0.12061278  1
  Ti  Ti129  1  0.10281342  0.89356467  0.37271734  1
  Ti  Ti130  1  0.59396507  0.01860900  0.48829882  1
  Ti  Ti131  1  0.69587987  0.71172499  0.88926307  1
  Ti  Ti132  1  0.80528527  0.78994717  0.50597380  1
  Ti  Ti133  1  0.49905156  0.11052687  0.35476253  1
  Ti  Ti134  1  0.00178863  0.39303335  -0.00022716  1
  Ti  Ti135  1  0.80212517  -0.00569077  0.01610085  1
  Ti  Ti136  1  0.60626297  0.40169455  0.50616315  1
  Ti  Ti137  1  0.10111422  0.28871781  0.11447904  1
  Ti  Ti138  1  0.19718054  0.59506613  0.24754276  1
  Ti  Ti139  1  0.41397543  0.18833374  0.76253257  1
  Ti  Ti140  1  0.40212599  0.20203199  0.23488755  1
  Ti  Ti141  1  0.60384345  0.01071597  0.24505066  1
  Ti  Ti142  1  0.19651927  0.80750061  0.51023650  1
  Ti  Ti143  1  0.79220797  0.62311738  0.25213255  1
  Ti  Ti144  1  0.50637267  0.29386667  0.88178803  1
  Ti  Ti145  1  -0.00846439  0.20176266  0.75389176  1
  Ti  Ti146  1  0.70023647  0.70787264  0.38071244  1
  Ti  Ti147  1  0.20501885  -0.00744041  0.76767591  1
  Ti  Ti148  1  0.39700151  0.60365761  -0.00672303  1
  Ti  Ti149  1  0.38347695  0.02422621  0.24254877  1
  Ti  Ti150  1  0.81350489  0.40580321  0.52108153  1
  Ti  Ti151  1  0.10184215  0.49682255  0.62819923  1
  Ti  Ti152  1  0.19514130  0.79640692  0.74444716  1
  Ti  Ti153  1  0.69865815  0.09961196  0.88194732  1
  Ti  Ti154  1  0.40382644  0.81525286  0.76176050  1
  Ti  Ti155  1  0.30053865  0.70522815  0.63016382  1
  Ti  Ti156  1  0.39135217  0.80926452  0.48716547  1
  Ti  Ti157  1  -0.01031711  0.80292396  -0.00518813  1
  Ti  Ti158  1  0.41219520  0.19595880  0.49298805  1
  Ti  Ti159  1  0.00388378  0.59746022  0.73425729  1
  Mo  Mo160  1  0.09943034  0.50008589  0.85294672  1
  Mo  Mo161  1  0.19746257  -0.00772074  0.50528630  1
  Mo  Mo162  1  0.91441868  0.09123840  0.36217026  1
  Mo  Mo163  1  0.89389557  0.70476029  0.63937948  1
  Mo  Mo164  1  0.88456777  0.70417501  0.36646068  1
  Mo  Mo165  1  0.29566650  0.90092984  0.86787208  1
  Mo  Mo166  1  0.70824846  0.29762173  0.13698297  1
  Mo  Mo167  1  0.50752742  0.10258187  0.61267626  1
  Mo  Mo168  1  0.10478950  0.70309140  0.63872197  1
  Mo  Mo169  1  0.79828662  -0.00008564  0.48189299  1
  Mo  Mo170  1  0.88521359  0.88951383  0.87339356  1
  Mo  Mo171  1  0.49516112  0.71047092  0.89235322  1
  Mo  Mo172  1  0.18350226  0.80655320  0.25228322  1
  Mo  Mo173  1  0.70081058  0.28994702  0.87769639  1
  Mo  Mo174  1  0.69734367  0.70240448  0.11701040  1
  Mo  Mo175  1  0.70630994  0.90911862  0.13475433  1
  Mo  Mo176  1  0.59587775  0.40494837  0.23585926  1
  Mo  Mo177  1  0.79856043  0.59924179  -0.00184746  1
  Mo  Mo178  1  0.00197540  0.39264627  0.51533263  1
  Mo  Mo179  1  0.80085528  0.80156388  0.24279532  1
  Mo  Mo180  1  0.30759316  0.29369695  0.86159642  1
  Mo  Mo181  1  0.19123999  0.80347763  -0.00679881  1
  Mo  Mo182  1  0.69319059  0.09730000  0.35455152  1
  Mo  Mo183  1  0.90230670  0.89865791  0.13484512  1
  Mo  Mo184  1  0.90399043  0.49514836  0.62797546  1
  Mo  Mo185  1  0.40844122  0.00089737  0.74997973  1
  Mo  Mo186  1  0.30676565  0.10212112  0.37052126  1
  Mo  Mo187  1  0.90417231  0.28561781  0.61137060  1
  Mo  Mo188  1  0.39479651  0.00777150  0.01535365  1
  Mo  Mo189  1  0.80108779  0.39009623  0.23952424  1
  Mo  Mo190  1  0.79326055  0.00162360  0.75481140  1
  Mo  Mo191  1  0.20034232  0.60247492  0.73641683  1
  Mo  Mo192  1  0.69664067  0.49166739  0.61845875  1
  Mo  Mo193  1  0.58751198  0.80648053  0.48458417  1
  Mo  Mo194  1  0.29928254  0.09964719  0.10797202  1
  Mo  Mo195  1  0.30469910  0.50062437  0.12609925  1
  Mo  Mo196  1  0.18913398  0.00358349  0.24146136  1
  Mo  Mo197  1  0.60007729  0.80554363  0.01162180  1
  Mo  Mo198  1  0.90216558  0.29169212  0.87962438  1
  Mo  Mo199  1  0.50375495  0.11153469  0.13729360  1
