# generated using pymatgen
data_HfZrTaTiMo
_symmetry_space_group_name_H-M   'P 1'
_cell_length_a   15.84020229
_cell_length_b   15.84958915
_cell_length_c   15.40390819
_cell_angle_alpha   90.04177505
_cell_angle_beta   89.94052484
_cell_angle_gamma   90.12012049
_symmetry_Int_Tables_number   1
_chemical_formula_structural   HfZrTaTiMo
_chemical_formula_sum   'Hf40 Zr40 Ta40 Ti40 Mo40'
_cell_volume   3867.30434357
_cell_formula_units_Z   40
loop_
 _symmetry_equiv_pos_site_id
 _symmetry_equiv_pos_as_xyz
  1  'x, y, z'
loop_
 _atom_site_type_symbol
 _atom_site_label
 _atom_site_symmetry_multiplicity
 _atom_site_fract_x
 _atom_site_fract_y
 _atom_site_fract_z
 _atom_site_occupancy
  Hf  Hf0  1  0.09723756  0.68225492  0.61372676  1
  Hf  Hf1  1  0.49162436  0.30063413  0.62452518  1
  Hf  Hf2  1  0.89465150  0.09357496  0.88478663  1
  Hf  Hf3  1  0.79483311  0.18825962  0.73802123  1
  Hf  Hf4  1  0.40278773  0.60150125  0.76187371  1
  Hf  Hf5  1  0.18913506  0.58963453  -0.00461942  1
  Hf  Hf6  1  0.01268508  0.81683696  0.50499303  1
  Hf  Hf7  1  0.18717119  0.20572428  0.49412051  1
  Hf  Hf8  1  0.10400117  0.71481861  0.11796008  1
  Hf  Hf9  1  0.19447204  0.20967911  -0.00126575  1
  Hf  Hf10  1  0.80235612  0.20183759  0.23930689  1
  Hf  Hf11  1  0.90077017  0.29312912  0.88856556  1
  Hf  Hf12  1  0.90115052  0.29639014  0.10619690  1
  Hf  Hf13  1  0.80479475  0.80462264  0.74446940  1
  Hf  Hf14  1  0.49816157  0.08766065  0.14304673  1
  Hf  Hf15  1  0.18336560  -0.01092994  0.50501632  1
  Hf  Hf16  1  0.49986472  0.89728366  0.37306547  1
  Hf  Hf17  1  0.29847968  0.09017736  0.88319923  1
  Hf  Hf18  1  0.59535037  0.19519184  0.74150747  1
  Hf  Hf19  1  0.91039589  0.90520752  0.87675815  1
  Hf  Hf20  1  0.30332536  0.09658767  0.61089149  1
  Hf  Hf21  1  0.50237830  0.50418067  0.37475027  1
  Hf  Hf22  1  0.40003962  -0.01091702  0.00879196  1
  Hf  Hf23  1  0.39307633  0.20851508  0.47895821  1
  Hf  Hf24  1  0.69497098  0.29228071  0.87948103  1
  Hf  Hf25  1  0.77984163  0.61839450  0.49470876  1
  Hf  Hf26  1  0.00379504  0.60487849  -0.00468800  1
  Hf  Hf27  1  0.59860962  0.59740807  0.22355149  1
  Hf  Hf28  1  0.69831948  0.90871622  0.86299148  1
  Hf  Hf29  1  0.89492399  0.49407854  0.38355099  1
  Hf  Hf30  1  0.39957415  0.19574391  0.75786331  1
  Hf  Hf31  1  0.89834411  0.30876782  0.61163516  1
  Hf  Hf32  1  0.78452157  0.18703113  0.50304436  1
  Hf  Hf33  1  0.80033668  0.39750687  0.75349215  1
  Hf  Hf34  1  0.50031685  0.09454891  0.37012251  1
  Hf  Hf35  1  0.19855102  0.60632510  0.76516331  1
  Hf  Hf36  1  0.90094669  0.28967523  0.38670907  1
  Hf  Hf37  1  0.50379537  0.71097862  0.88302523  1
  Hf  Hf38  1  0.78989590  0.61042548  0.00016212  1
  Hf  Hf39  1  0.30760369  0.70215754  0.38056645  1
  Zr  Zr40  1  0.39712851  0.60406145  0.23532850  1
  Zr  Zr41  1  0.19471502  0.19226557  0.75768275  1
  Zr  Zr42  1  0.29604685  0.49554300  0.64013547  1
  Zr  Zr43  1  0.30355783  0.70833872  0.89161097  1
  Zr  Zr44  1  0.40624636  -0.00193969  0.75309396  1
  Zr  Zr45  1  0.40201164  0.39630032  0.24202262  1
  Zr  Zr46  1  0.90039974  0.70871643  0.38150210  1
  Zr  Zr47  1  0.00192329  0.60270113  0.76960291  1
  Zr  Zr48  1  0.02268588  0.39951164  0.49343391  1
  Zr  Zr49  1  0.60932190  0.00167772  0.01174933  1
  Zr  Zr50  1  0.69807105  0.50153676  0.62460572  1
  Zr  Zr51  1  0.04042259  0.39729068  0.00240082  1
  Zr  Zr52  1  0.70455081  0.30673564  0.36673927  1
  Zr  Zr53  1  0.90042645  0.71623264  0.12346306  1
  Zr  Zr54  1  0.71347062  0.91073379  0.14460764  1
  Zr  Zr55  1  0.38515551  0.40214890  0.48144436  1
  Zr  Zr56  1  0.89529251  0.08508365  0.09994877  1
  Zr  Zr57  1  0.00858084  0.81873471  0.25792055  1
  Zr  Zr58  1  0.10910635  0.70022651  0.37924022  1
  Zr  Zr59  1  -0.00287921  0.39379189  0.24525088  1
  Zr  Zr60  1  0.59734838  0.39319881  0.49988261  1
  Zr  Zr61  1  0.06988683  0.08819513  0.37952134  1
  Zr  Zr62  1  -0.00373083  0.19685829  0.74499997  1
  Zr  Zr63  1  0.90995555  0.51102701  0.61112973  1
  Zr  Zr64  1  0.39975538  0.19867985  0.01338184  1
  Zr  Zr65  1  0.79938623  0.60313074  0.24704580  1
  Zr  Zr66  1  0.28902803  0.49416123  0.11701116  1
  Zr  Zr67  1  0.49714012  0.50308817  0.62635900  1
  Zr  Zr68  1  0.70980961  0.89512121  0.35868238  1
  Zr  Zr69  1  0.50268197  0.90152873  0.60783424  1
  Zr  Zr70  1  0.19464113  0.19262084  0.25214065  1
  Zr  Zr71  1  0.61989650  0.79290581  0.50151219  1
  Zr  Zr72  1  0.69599877  0.50264912  0.37365716  1
  Zr  Zr73  1  0.58810225  0.39825541  0.01299941  1
  Zr  Zr74  1  0.80296021  0.60569346  0.75770817  1
  Zr  Zr75  1  0.90115288  0.49888099  0.11824133  1
  Zr  Zr76  1  0.89991103  0.48983238  0.88689316  1
  Zr  Zr77  1  0.00488684  0.80162677  0.74002020  1
  Zr  Zr78  1  0.51012955  0.70109615  0.37420596  1
  Zr  Zr79  1  0.29034585  0.30771216  0.63216434  1
  Ta  Ta80  1  0.69375686  0.71004540  0.87072845  1
  Ta  Ta81  1  0.19387650  0.39956895  0.25747342  1
  Ta  Ta82  1  0.19699769  -0.00445593  0.73978348  1
  Ta  Ta83  1  0.19704913  0.60421120  0.24193514  1
  Ta  Ta84  1  0.10495380  0.48690162  0.64156247  1
  Ta  Ta85  1  0.00578435  0.60078309  0.24654971  1
  Ta  Ta86  1  0.69176051  0.50223454  0.88050535  1
  Ta  Ta87  1  0.78342507  0.39836520  0.00779748  1
  Ta  Ta88  1  0.30733427  0.89792897  0.61366448  1
  Ta  Ta89  1  0.40252539  0.39411731  0.77553528  1
  Ta  Ta90  1  0.09957354  0.08989922  0.12295100  1
  Ta  Ta91  1  0.69943450  0.09570469  0.35565406  1
  Ta  Ta92  1  0.29143238  0.89237462  0.87202696  1
  Ta  Ta93  1  0.49938977  0.09795939  0.60268306  1
  Ta  Ta94  1  0.60281469  0.80698764  0.01150001  1
  Ta  Ta95  1  0.29891019  0.49317250  0.88342464  1
  Ta  Ta96  1  0.59990089  0.19839436  0.02384490  1
  Ta  Ta97  1  0.20197893  0.58254583  0.50019542  1
  Ta  Ta98  1  0.00485098  0.00419154  0.73540352  1
  Ta  Ta99  1  0.50174419  0.69717211  0.62123777  1
  Ta  Ta100  1  0.59813943  0.20463567  0.23781566  1
  Ta  Ta101  1  0.30307190  0.89446193  0.38773517  1
  Ta  Ta102  1  0.40567166  0.59557839  0.00441437  1
  Ta  Ta103  1  -0.00700477  0.18784756  0.23612472  1
  Ta  Ta104  1  0.29530228  0.08760268  0.37752772  1
  Ta  Ta105  1  0.60414286  0.40132716  0.22537267  1
  Ta  Ta106  1  0.51166474  0.09778434  0.88577961  1
  Ta  Ta107  1  0.10637329  0.73389134  0.89111925  1
  Ta  Ta108  1  0.39958140  0.79968124  0.74111332  1
  Ta  Ta109  1  0.20661271  0.80008711  0.73433807  1
  Ta  Ta110  1  0.91429673  0.92394190  0.38822461  1
  Ta  Ta111  1  0.79403753  0.81191180  -0.00660237  1
  Ta  Ta112  1  0.69304058  0.70309105  0.64207868  1
  Ta  Ta113  1  0.39424519  0.39123235  -0.00157069  1
  Ta  Ta114  1  0.59455347  0.39925128  0.76036181  1
  Ta  Ta115  1  0.60154585  0.60621034  0.00678941  1
  Ta  Ta116  1  0.49856763  0.70886034  0.11675832  1
  Ta  Ta117  1  0.39189505  0.19748927  0.25330932  1
  Ta  Ta118  1  0.61683565  0.00729738  0.49427366  1
  Ta  Ta119  1  0.20565085  0.79552252  0.51211198  1
  Ti  Ti120  1  0.89903023  0.70129010  0.61081019  1
  Ti  Ti121  1  0.09233583  0.29174834  0.36465559  1
  Ti  Ti122  1  0.69574161  0.30171061  0.62326085  1
  Ti  Ti123  1  0.89774022  0.91130423  0.61983394  1
  Ti  Ti124  1  0.19944372  -0.01454358  0.00587232  1
  Ti  Ti125  1  0.29160823  0.08969865  0.13100069  1
  Ti  Ti126  1  0.09669717  0.08736514  0.88100908  1
  Ti  Ti127  1  0.01394485  0.19600758  0.00281063  1
  Ti  Ti128  1  0.50118138  0.29009333  0.88173772  1
  Ti  Ti129  1  0.50019999  0.90010276  0.87379746  1
  Ti  Ti130  1  0.19078003  -0.01181028  0.25599392  1
  Ti  Ti131  1  0.82687749  0.00944222  0.25956273  1
  Ti  Ti132  1  0.89392898  0.09117323  0.60983927  1
  Ti  Ti133  1  0.70394963  0.71816818  0.13447985  1
  Ti  Ti134  1  0.21177763  0.80750752  0.24609395  1
  Ti  Ti135  1  0.09948514  0.50729547  0.36725590  1
  Ti  Ti136  1  0.90038321  0.71416215  0.88757721  1
  Ti  Ti137  1  0.50109000  0.50025586  0.88441286  1
  Ti  Ti138  1  0.30678935  0.69484870  0.61736552  1
  Ti  Ti139  1  0.19466832  0.39039758  0.78006769  1
  Ti  Ti140  1  0.09732154  0.30235589  0.63522465  1
  Ti  Ti141  1  0.69983846  0.09518200  0.87080863  1
  Ti  Ti142  1  0.29397250  0.50594488  0.36363859  1
  Ti  Ti143  1  0.59861193  0.60040038  0.76074093  1
  Ti  Ti144  1  0.38623346  -0.01125451  0.24992367  1
  Ti  Ti145  1  0.59836018  0.19763938  0.49561827  1
  Ti  Ti146  1  0.39972259  0.81180982  0.01373544  1
  Ti  Ti147  1  0.50481907  0.30065786  0.36031969  1
  Ti  Ti148  1  0.28916572  0.29913196  0.13069762  1
  Ti  Ti149  1  0.90617824  0.90034881  0.11871639  1
  Ti  Ti150  1  0.29811818  0.70712684  0.11388626  1
  Ti  Ti151  1  0.77675265  0.18794565  0.01185322  1
  Ti  Ti152  1  0.01767563  -0.01726935  0.00211607  1
  Ti  Ti153  1  0.39952852  0.59869348  0.50088594  1
  Ti  Ti154  1  0.60035175  0.00740331  0.73903113  1
  Ti  Ti155  1  0.59337516  0.80699523  0.74380679  1
  Ti  Ti156  1  0.20265564  0.39682837  0.48097148  1
  Ti  Ti157  1  0.40012504  0.80386809  0.23699464  1
  Ti  Ti158  1  0.71049141  0.91589346  0.62984366  1
  Ti  Ti159  1  0.80225835  0.81241320  0.50403159  1
  Mo  Mo160  1  0.89312797  0.10174008  0.38603520  1
  Mo  Mo161  1  0.59834806  0.79832532  0.23675547  1
  Mo  Mo162  1  0.69102205  0.09381600  0.62561676  1
  Mo  Mo163  1  0.00101672  0.00449137  0.23788610  1
  Mo  Mo164  1  0.39900665  -0.00029377  0.48816139  1
  Mo  Mo165  1  0.50080805  0.89455619  0.14121028  1
  Mo  Mo166  1  0.59601233  0.00064133  0.25559452  1
  Mo  Mo167  1  0.09454202  0.29049266  0.86371975  1
  Mo  Mo168  1  0.10290654  0.29270451  0.14057314  1
  Mo  Mo169  1  -0.00183323  0.00102003  0.52197901  1
  Mo  Mo170  1  0.39953721  0.79428189  0.51253305  1
  Mo  Mo171  1  0.10493645  0.89664439  0.63838334  1
  Mo  Mo172  1  0.30290342  0.29689661  0.87771545  1
  Mo  Mo173  1  0.79752859  -0.00466479  -0.00754102  1
  Mo  Mo174  1  0.20668683  0.81610502  0.01252215  1
  Mo  Mo175  1  0.11050404  0.90005489  0.36985180  1
  Mo  Mo176  1  0.00361664  0.81142781  -0.00055615  1
  Mo  Mo177  1  -0.00045976  0.19827326  0.51699366  1
  Mo  Mo178  1  0.80495028  0.00386610  0.74599608  1
  Mo  Mo179  1  0.10261238  0.49656419  0.85931744  1
  Mo  Mo180  1  0.10293541  0.50404601  0.14187054  1
  Mo  Mo181  1  0.70107381  0.09829814  0.14474208  1
  Mo  Mo182  1  0.20719369  0.39107428  -0.00803238  1
  Mo  Mo183  1  0.49114638  0.29481455  0.13500124  1
  Mo  Mo184  1  0.09440232  0.10210413  0.61770610  1
  Mo  Mo185  1  0.29179529  0.29769951  0.36184961  1
  Mo  Mo186  1  0.79844553  -0.00208513  0.49255260  1
  Mo  Mo187  1  0.79537132  0.39955533  0.22480721  1
  Mo  Mo188  1  0.70028659  0.50547931  0.11372971  1
  Mo  Mo189  1  0.81120814  0.80666860  0.25767052  1
  Mo  Mo190  1  0.29828764  0.90130144  0.13575294  1
  Mo  Mo191  1  0.10541376  0.90678680  0.13575097  1
  Mo  Mo192  1  0.70046737  0.70767187  0.35017235  1
  Mo  Mo193  1  0.49454589  0.50139853  0.11025857  1
  Mo  Mo194  1  0.79729429  0.39908428  0.51023755  1
  Mo  Mo195  1  0.59744664  0.60550841  0.50581332  1
  Mo  Mo196  1  0.70030292  0.30003979  0.12702541  1
  Mo  Mo197  1  0.00643574  0.59761390  0.49481119  1
  Mo  Mo198  1  0.11026280  0.90940276  0.85975495  1
  Mo  Mo199  1  0.00700915  0.39572778  0.75676427  1
