# generated using pymatgen
data_HfZrTaTiMo
_symmetry_space_group_name_H-M   'P 1'
_cell_length_a   15.83660757
_cell_length_b   15.84243386
_cell_length_c   15.42178448
_cell_angle_alpha   89.99259479
_cell_angle_beta   89.97363057
_cell_angle_gamma   90.15886582
_symmetry_Int_Tables_number   1
_chemical_formula_structural   HfZrTaTiMo
_chemical_formula_sum   'Hf40 Zr40 Ta40 Ti40 Mo40'
_cell_volume   3869.16248437
_cell_formula_units_Z   40
loop_
 _symmetry_equiv_pos_site_id
 _symmetry_equiv_pos_as_xyz
  1  'x, y, z'
loop_
 _atom_site_type_symbol
 _atom_site_label
 _atom_site_symmetry_multiplicity
 _atom_site_fract_x
 _atom_site_fract_y
 _atom_site_fract_z
 _atom_site_occupancy
  Hf  Hf0  1  0.60480309  0.59550569  0.23854644  1
  Hf  Hf1  1  0.60138255  0.39254688  0.23402483  1
  Hf  Hf2  1  0.91162541  0.71521041  0.38979876  1
  Hf  Hf3  1  0.59287773  0.00625275  -0.01794589  1
  Hf  Hf4  1  -0.00283810  0.80512217  0.00863539  1
  Hf  Hf5  1  0.88994015  0.89580876  0.62331727  1
  Hf  Hf6  1  0.69784379  0.70127508  0.37958588  1
  Hf  Hf7  1  0.51068267  0.50283504  0.89553312  1
  Hf  Hf8  1  0.32108758  0.29176764  0.88372473  1
  Hf  Hf9  1  0.28750695  0.69133733  0.62030237  1
  Hf  Hf10  1  0.59470972  0.00399987  0.25749650  1
  Hf  Hf11  1  0.91948657  0.49273210  0.13417541  1
  Hf  Hf12  1  0.20258145  -0.01375072  0.50638600  1
  Hf  Hf13  1  0.70948895  0.30867729  0.87973195  1
  Hf  Hf14  1  0.79442750  -0.00209149  0.26612581  1
  Hf  Hf15  1  0.90280412  0.29991353  0.37800702  1
  Hf  Hf16  1  0.89173448  0.69943167  0.61931036  1
  Hf  Hf17  1  0.78775587  0.58376394  0.74852885  1
  Hf  Hf18  1  0.30697306  0.71038462  0.13474122  1
  Hf  Hf19  1  0.50336552  0.70498828  0.12224063  1
  Hf  Hf20  1  0.50981742  0.30096731  0.88717537  1
  Hf  Hf21  1  0.68895911  0.90269849  0.11620969  1
  Hf  Hf22  1  0.49424942  0.70472184  0.37223987  1
  Hf  Hf23  1  0.08609202  0.89074980  0.37396155  1
  Hf  Hf24  1  0.57729876  0.59945598  0.73584270  1
  Hf  Hf25  1  0.40704575  0.40286597  0.48162508  1
  Hf  Hf26  1  0.58800996  0.80294979  -0.02039004  1
  Hf  Hf27  1  0.38191301  0.01552266  0.74790439  1
  Hf  Hf28  1  0.71836064  0.31703186  0.62338335  1
  Hf  Hf29  1  0.41268043  0.38751640  0.25097750  1
  Hf  Hf30  1  0.48798296  0.89581995  0.12925077  1
  Hf  Hf31  1  0.11698864  0.51567167  0.62483240  1
  Hf  Hf32  1  0.69120622  0.89650541  0.63371628  1
  Hf  Hf33  1  0.10143666  0.50506403  0.37668299  1
  Hf  Hf34  1  0.70315370  0.49902534  0.38082108  1
  Hf  Hf35  1  0.69167138  0.70398077  0.61750964  1
  Hf  Hf36  1  0.22011627  0.18468811  0.74409555  1
  Hf  Hf37  1  0.89649552  0.69608051  0.88179752  1
  Hf  Hf38  1  0.71018345  0.71254181  0.11557593  1
  Hf  Hf39  1  0.40418666  0.58989662  0.25258181  1
  Zr  Zr40  1  0.40209704  0.18629492  0.24680422  1
  Zr  Zr41  1  0.21318367  0.41100297  0.49232120  1
  Zr  Zr42  1  0.39179439  0.00347515  -0.01365792  1
  Zr  Zr43  1  0.09633740  0.50645603  0.86982818  1
  Zr  Zr44  1  0.80270396  0.19471969  0.01078389  1
  Zr  Zr45  1  0.20917617  0.40116476  -0.00910300  1
  Zr  Zr46  1  0.10194398  0.30827597  0.12100377  1
  Zr  Zr47  1  0.90569942  0.10002178  0.86946063  1
  Zr  Zr48  1  0.68841501  0.68334994  0.88280116  1
  Zr  Zr49  1  0.09117044  0.90534129  0.86335002  1
  Zr  Zr50  1  0.81264609  0.80311986  0.26082017  1
  Zr  Zr51  1  0.59772598  0.00248141  0.50615634  1
  Zr  Zr52  1  0.91227276  0.29621165  0.12637899  1
  Zr  Zr53  1  0.59651140  0.20394374  0.24106370  1
  Zr  Zr54  1  0.69507662  0.11410343  0.86485685  1
  Zr  Zr55  1  0.79800476  0.39991193  0.24577758  1
  Zr  Zr56  1  0.39633207  0.59634782  -0.00249452  1
  Zr  Zr57  1  0.79439249  0.19740151  0.24671260  1
  Zr  Zr58  1  0.10366318  0.70877965  0.88182815  1
  Zr  Zr59  1  0.89402663  0.48396291  0.61359911  1
  Zr  Zr60  1  0.19776694  0.59738981  0.24617246  1
  Zr  Zr61  1  0.00239061  0.20059442  0.74591641  1
  Zr  Zr62  1  0.20792530  0.40195366  0.76317533  1
  Zr  Zr63  1  0.00075112  0.00877405  0.00834100  1
  Zr  Zr64  1  -0.00189328  0.60151441  0.74272797  1
  Zr  Zr65  1  0.28261707  0.28634580  0.35979848  1
  Zr  Zr66  1  0.20403293  0.59919229  0.00548436  1
  Zr  Zr67  1  0.80962869  0.19606420  0.51547708  1
  Zr  Zr68  1  0.10673869  0.10776780  0.38016678  1
  Zr  Zr69  1  0.79602813  0.00456373  0.50403446  1
  Zr  Zr70  1  -0.00021052  0.61679084  0.24592563  1
  Zr  Zr71  1  0.31054679  0.31219322  0.62916120  1
  Zr  Zr72  1  0.61059615  0.41129167  0.74928313  1
  Zr  Zr73  1  0.10195887  0.30737015  0.62692074  1
  Zr  Zr74  1  0.48777305  0.89121483  0.63330455  1
  Zr  Zr75  1  0.88000812  0.89707795  0.10947280  1
  Zr  Zr76  1  0.20394456  0.00479493  0.24741391  1
  Zr  Zr77  1  -0.00647966  -0.00738292  0.24679813  1
  Zr  Zr78  1  0.27736240  0.89972014  0.86603958  1
  Zr  Zr79  1  0.40343967  0.20245955  0.49951332  1
  Ta  Ta80  1  0.31676330  0.51250685  0.63847151  1
  Ta  Ta81  1  0.81012523  0.59725645  0.01306596  1
  Ta  Ta82  1  0.30167588  0.48293197  0.13502372  1
  Ta  Ta83  1  0.89195939  0.89928951  0.86849741  1
  Ta  Ta84  1  0.90758261  0.09890518  0.37673971  1
  Ta  Ta85  1  0.69618788  0.50058768  0.60368269  1
  Ta  Ta86  1  0.11695865  0.09166270  0.86477547  1
  Ta  Ta87  1  0.30357476  0.08946135  0.38660166  1
  Ta  Ta88  1  0.41166559  0.20724494  0.73772497  1
  Ta  Ta89  1  0.10375076  0.09251981  0.62744395  1
  Ta  Ta90  1  -0.00614120  0.79922237  0.74149424  1
  Ta  Ta91  1  0.29752563  0.89566285  0.12356891  1
  Ta  Ta92  1  0.79347480  0.79577087  0.75997977  1
  Ta  Ta93  1  0.19357365  0.80379179  0.25372910  1
  Ta  Ta94  1  0.00534368  0.39783811  0.49368378  1
  Ta  Ta95  1  -0.01157527  0.39469727  0.75562791  1
  Ta  Ta96  1  0.38473992  0.58998474  0.47868873  1
  Ta  Ta97  1  0.29234689  0.70341363  0.37062649  1
  Ta  Ta98  1  0.47625162  0.69193340  0.61145242  1
  Ta  Ta99  1  0.48906452  0.90161632  0.37654160  1
  Ta  Ta100  1  0.80078083  0.60228417  0.49559932  1
  Ta  Ta101  1  0.58610485  0.79994591  0.49929420  1
  Ta  Ta102  1  0.20273960  0.19567184  0.51381106  1
  Ta  Ta103  1  0.20796887  0.18592808  0.00169198  1
  Ta  Ta104  1  0.39430621  0.77899623  0.76318547  1
  Ta  Ta105  1  0.38857895  0.79720996  -0.02130078  1
  Ta  Ta106  1  0.01220217  0.20585975  0.25971898  1
  Ta  Ta107  1  0.59203695  0.00854764  0.75249901  1
  Ta  Ta108  1  0.79624279  0.00780609  0.74339594  1
  Ta  Ta109  1  0.50041833  0.10299699  0.62543338  1
  Ta  Ta110  1  0.90381161  0.50540524  0.37751723  1
  Ta  Ta111  1  0.30206657  0.28971728  0.12402816  1
  Ta  Ta112  1  0.51159170  0.31271707  0.61798767  1
  Ta  Ta113  1  0.49936256  0.09917426  0.38624912  1
  Ta  Ta114  1  0.10223175  0.71096331  0.12009445  1
  Ta  Ta115  1  0.19260248  -0.00201216  0.01579027  1
  Ta  Ta116  1  0.58505462  0.59768490  0.50201274  1
  Ta  Ta117  1  -0.00283701  0.00255058  0.50902666  1
  Ta  Ta118  1  0.60635735  0.20024920  0.51287026  1
  Ta  Ta119  1  0.69498900  0.30276764  0.39075749  1
  Ti  Ti120  1  0.01196670  0.19607817  -0.00695624  1
  Ti  Ti121  1  0.90258370  0.10081322  0.13301910  1
  Ti  Ti122  1  0.00475641  0.19906472  0.50836838  1
  Ti  Ti123  1  0.59833472  0.80738957  0.25742411  1
  Ti  Ti124  1  0.00679616  0.80236689  0.51804861  1
  Ti  Ti125  1  0.69724757  0.90093441  0.86191029  1
  Ti  Ti126  1  0.48906382  0.11699688  0.86990083  1
  Ti  Ti127  1  0.69680109  0.10959262  0.37885868  1
  Ti  Ti128  1  0.41753517  0.41157228  0.75164408  1
  Ti  Ti129  1  0.59925588  0.20160867  0.01524128  1
  Ti  Ti130  1  -0.00497540  0.00052952  0.73621648  1
  Ti  Ti131  1  0.01194701  0.60799921  0.50385463  1
  Ti  Ti132  1  0.80744015  0.39959500  0.01141924  1
  Ti  Ti133  1  0.70497667  0.49784221  0.89792983  1
  Ti  Ti134  1  0.29535354  0.89047553  0.63617813  1
  Ti  Ti135  1  0.69634222  0.89321489  0.38943911  1
  Ti  Ti136  1  0.89362928  0.49348668  0.88055609  1
  Ti  Ti137  1  0.39556166  -0.00598835  0.50688666  1
  Ti  Ti138  1  0.60252649  0.20575692  0.73565094  1
  Ti  Ti139  1  0.80670471  0.60558290  0.24323018  1
  Ti  Ti140  1  0.00240856  0.59780855  0.01216954  1
  Ti  Ti141  1  0.38401429  0.80420029  0.49112629  1
  Ti  Ti142  1  0.19185404  0.78986357  0.49415254  1
  Ti  Ti143  1  0.69941875  0.09194279  0.12093452  1
  Ti  Ti144  1  0.51289237  0.49396488  0.37499880  1
  Ti  Ti145  1  0.10404807  0.29070699  0.87477365  1
  Ti  Ti146  1  0.58826683  0.79204720  0.75555975  1
  Ti  Ti147  1  0.49035121  0.90173468  0.85666623  1
  Ti  Ti148  1  0.49231154  0.09500715  0.11795083  1
  Ti  Ti149  1  0.00709175  0.40324114  -0.01133589  1
  Ti  Ti150  1  0.70570504  0.50313379  0.11735984  1
  Ti  Ti151  1  0.81345977  0.21000389  0.73749602  1
  Ti  Ti152  1  0.39432602  -0.00523081  0.25588161  1
  Ti  Ti153  1  0.19071911  0.78746222  0.74033477  1
  Ti  Ti154  1  0.10182574  0.10870668  0.13331651  1
  Ti  Ti155  1  0.18870757  0.39569368  0.25037022  1
  Ti  Ti156  1  0.79142973  -0.00054872  -0.01684226  1
  Ti  Ti157  1  0.10079854  0.89472987  0.63284473  1
  Ti  Ti158  1  0.60193734  0.40043290  0.02208433  1
  Ti  Ti159  1  0.90232040  0.30200905  0.88205278  1
  Mo  Mo160  1  0.39838870  0.59657453  0.76392384  1
  Mo  Mo161  1  0.90035115  0.69724657  0.11148970  1
  Mo  Mo162  1  0.10082658  0.89726274  0.13580644  1
  Mo  Mo163  1  0.09891551  0.70511658  0.62154544  1
  Mo  Mo164  1  0.29813044  0.10232426  0.88246921  1
  Mo  Mo165  1  0.49161363  0.50225397  0.61202285  1
  Mo  Mo166  1  0.00789910  0.40147042  0.27224111  1
  Mo  Mo167  1  0.31048620  0.49772100  0.86101159  1
  Mo  Mo168  1  0.20367701  0.60511266  0.48428501  1
  Mo  Mo169  1  0.20123479  0.80780937  0.01390389  1
  Mo  Mo170  1  0.69762549  0.10676442  0.64573359  1
  Mo  Mo171  1  0.80530895  0.40454366  0.48357408  1
  Mo  Mo172  1  0.30209021  0.09313359  0.11787200  1
  Mo  Mo173  1  0.20927039  0.60553705  0.76202425  1
  Mo  Mo174  1  0.49666288  0.29716810  0.10642013  1
  Mo  Mo175  1  0.39422653  0.80764214  0.26249363  1
  Mo  Mo176  1  0.09827223  0.29902240  0.38188617  1
  Mo  Mo177  1  0.80851007  0.40096001  0.76581533  1
  Mo  Mo178  1  0.60592305  0.59508019  0.02013851  1
  Mo  Mo179  1  0.79237517  0.80168301  0.49383383  1
  Mo  Mo180  1  0.49622630  0.69955147  0.88215079  1
  Mo  Mo181  1  0.51516096  0.29378462  0.38960768  1
  Mo  Mo182  1  0.70225181  0.29996517  0.10629787  1
  Mo  Mo183  1  0.29172458  0.69826845  0.86918445  1
  Mo  Mo184  1  0.40521602  0.19575891  0.01403418  1
  Mo  Mo185  1  0.00196444  0.80268928  0.23506726  1
  Mo  Mo186  1  0.30530128  0.09602932  0.60545665  1
  Mo  Mo187  1  0.79319185  0.80206520  -0.02622944  1
  Mo  Mo188  1  0.20016646  0.19682588  0.23468004  1
  Mo  Mo189  1  0.50167441  0.49749735  0.11644224  1
  Mo  Mo190  1  0.90875108  0.30263001  0.61543188  1
  Mo  Mo191  1  0.30286261  0.49590294  0.35081593  1
  Mo  Mo192  1  0.40397708  0.39817010  0.01569446  1
  Mo  Mo193  1  0.10283748  0.49883003  0.12344577  1
  Mo  Mo194  1  0.60078391  0.40065956  0.50104106  1
  Mo  Mo195  1  0.90028763  0.90384425  0.39837218  1
  Mo  Mo196  1  0.29953925  0.89632635  0.37611341  1
  Mo  Mo197  1  0.90657340  0.09816479  0.63193210  1
  Mo  Mo198  1  0.19656386  -0.00492931  0.72858036  1
  Mo  Mo199  1  0.09977875  0.70543339  0.38411416  1
