# generated using pymatgen
data_HfZrTaTiMo
_symmetry_space_group_name_H-M   'P 1'
_cell_length_a   15.82309192
_cell_length_b   15.85042903
_cell_length_c   15.40230042
_cell_angle_alpha   89.97789403
_cell_angle_beta   89.99569934
_cell_angle_gamma   89.99526740
_symmetry_Int_Tables_number   1
_chemical_formula_structural   HfZrTaTiMo
_chemical_formula_sum   'Hf40 Zr40 Ta40 Ti40 Mo40'
_cell_volume   3862.93969158
_cell_formula_units_Z   40
loop_
 _symmetry_equiv_pos_site_id
 _symmetry_equiv_pos_as_xyz
  1  'x, y, z'
loop_
 _atom_site_type_symbol
 _atom_site_label
 _atom_site_symmetry_multiplicity
 _atom_site_fract_x
 _atom_site_fract_y
 _atom_site_fract_z
 _atom_site_occupancy
  Hf  Hf0  1  0.71000136  0.10576006  0.87453939  1
  Hf  Hf1  1  0.90463725  0.51414570  0.88222840  1
  Hf  Hf2  1  0.70876721  0.30654197  0.15122314  1
  Hf  Hf3  1  0.30004953  0.50191857  0.38932257  1
  Hf  Hf4  1  0.19123181  0.56818480  0.73207100  1
  Hf  Hf5  1  0.68546925  0.71615808  0.12929122  1
  Hf  Hf6  1  -0.00427954  0.39072030  0.49344920  1
  Hf  Hf7  1  0.00266580  0.39217363  -0.01372925  1
  Hf  Hf8  1  0.59359291  0.61082389  0.50450307  1
  Hf  Hf9  1  0.50080375  0.50268538  0.13263339  1
  Hf  Hf10  1  0.59935574  0.20383528  0.00023466  1
  Hf  Hf11  1  0.50093336  0.50118149  0.36891774  1
  Hf  Hf12  1  0.39072150  0.39485676  0.25268477  1
  Hf  Hf13  1  0.80148992  0.60818323  0.24773714  1
  Hf  Hf14  1  0.40031962  0.78850953  0.50060013  1
  Hf  Hf15  1  0.49702782  0.10468884  0.87075136  1
  Hf  Hf16  1  0.71026048  0.11225719  0.62459510  1
  Hf  Hf17  1  0.58784945  0.61241012  0.00417169  1
  Hf  Hf18  1  0.50666376  0.88404360  0.12787646  1
  Hf  Hf19  1  0.90415646  0.30882711  0.13887323  1
  Hf  Hf20  1  0.79436594  0.61029933  0.49481995  1
  Hf  Hf21  1  0.20124429  0.78815117  -0.02943765  1
  Hf  Hf22  1  0.19396109  0.39133449  0.25836304  1
  Hf  Hf23  1  0.29758623  0.69805389  0.12594086  1
  Hf  Hf24  1  0.50200267  0.89830470  0.63427873  1
  Hf  Hf25  1  0.00318548  0.19293076  0.26734324  1
  Hf  Hf26  1  0.08995910  0.89081955  0.39170236  1
  Hf  Hf27  1  0.01510169  0.41765780  0.74914848  1
  Hf  Hf28  1  0.08810266  0.67564869  0.85673494  1
  Hf  Hf29  1  0.60973916  -0.00135658  0.00244135  1
  Hf  Hf30  1  0.39183970  0.19774919  0.25405138  1
  Hf  Hf31  1  0.28728773  0.91257121  0.86227597  1
  Hf  Hf32  1  0.69016507  0.50486709  0.36481600  1
  Hf  Hf33  1  0.38827870  0.60148986  -0.00973505  1
  Hf  Hf34  1  0.60238510  0.60897797  0.75780140  1
  Hf  Hf35  1  0.70248361  0.90899814  0.37702874  1
  Hf  Hf36  1  0.19511330  0.60077299  0.25879544  1
  Hf  Hf37  1  0.60779225  0.39495731  -0.00496628  1
  Hf  Hf38  1  0.38359991  -0.00259496  0.24904813  1
  Hf  Hf39  1  0.10242662  0.08159022  0.38491607  1
  Zr  Zr40  1  0.49867678  0.90465605  0.37392018  1
  Zr  Zr41  1  0.38371130  0.80145803  0.25817586  1
  Zr  Zr42  1  0.89218722  0.70105222  0.88279627  1
  Zr  Zr43  1  0.60178063  0.40526197  0.75619005  1
  Zr  Zr44  1  0.10717420  0.70582637  0.12439008  1
  Zr  Zr45  1  0.39193475  0.78673725  0.76380717  1
  Zr  Zr46  1  0.20621611  0.18702952  0.25711868  1
  Zr  Zr47  1  0.81949505  0.00086542  0.25067128  1
  Zr  Zr48  1  0.00573920  0.60678337  0.50832213  1
  Zr  Zr49  1  0.79006165  0.80621271  0.76255773  1
  Zr  Zr50  1  0.60478799  0.79682997  0.49853062  1
  Zr  Zr51  1  0.70133910  0.90019075  0.62230616  1
  Zr  Zr52  1  0.40372370  0.79233917  -0.01455371  1
  Zr  Zr53  1  0.19464457  0.19846531  0.50367969  1
  Zr  Zr54  1  0.30385212  0.30109918  0.62781931  1
  Zr  Zr55  1  0.81048484  0.00112206  0.75908607  1
  Zr  Zr56  1  0.39364388  0.00755673  0.74104290  1
  Zr  Zr57  1  0.50837709  0.09823290  0.36946920  1
  Zr  Zr58  1  0.90854794  0.71686767  0.37764697  1
  Zr  Zr59  1  0.41578768  0.19686544  0.49857978  1
  Zr  Zr60  1  0.69519808  0.49753463  0.61603351  1
  Zr  Zr61  1  0.89482443  0.49612171  0.62337541  1
  Zr  Zr62  1  -0.00042237  0.81578856  0.23769051  1
  Zr  Zr63  1  0.28205905  0.89622374  0.11305882  1
  Zr  Zr64  1  0.50441170  0.29934010  0.13735903  1
  Zr  Zr65  1  0.00421894  0.81264496  -0.00870230  1
  Zr  Zr66  1  0.48228342  0.50810216  0.62007696  1
  Zr  Zr67  1  0.09704450  0.29063714  0.13054574  1
  Zr  Zr68  1  0.50011640  0.09362954  0.13016438  1
  Zr  Zr69  1  -0.00082457  0.20132400  0.50050611  1
  Zr  Zr70  1  0.30036260  0.29636331  0.85870373  1
  Zr  Zr71  1  0.11076294  0.29036131  0.85643072  1
  Zr  Zr72  1  0.88747497  0.70924971  0.10990285  1
  Zr  Zr73  1  0.90714497  0.10835736  0.11404058  1
  Zr  Zr74  1  0.79553910  0.39656935  0.76520770  1
  Zr  Zr75  1  -0.00556780  0.59377213  0.25272006  1
  Zr  Zr76  1  0.50711224  0.90479920  0.86585730  1
  Zr  Zr77  1  0.70097537  0.11785334  0.36828884  1
  Zr  Zr78  1  0.48982918  0.49759762  0.87539495  1
  Zr  Zr79  1  0.80323349  0.22145001  -0.00863409  1
  Ta  Ta80  1  0.50706066  0.30300448  0.63363335  1
  Ta  Ta81  1  0.80305681  0.81508176  0.25247725  1
  Ta  Ta82  1  0.20372038  0.19398296  0.00232791  1
  Ta  Ta83  1  0.90083874  0.90441034  0.61468337  1
  Ta  Ta84  1  0.50500268  0.69796573  0.35256066  1
  Ta  Ta85  1  0.29397094  0.88896151  0.62447741  1
  Ta  Ta86  1  0.91293992  0.10341101  0.87661441  1
  Ta  Ta87  1  0.29957822  0.08175148  0.39383944  1
  Ta  Ta88  1  0.39222326  0.39252903  0.00625328  1
  Ta  Ta89  1  0.60112462  0.38765275  0.49480003  1
  Ta  Ta90  1  0.81405251  0.41444070  0.26721713  1
  Ta  Ta91  1  0.39312413  0.00564851  -0.00338033  1
  Ta  Ta92  1  0.40630571  0.39479993  0.49419007  1
  Ta  Ta93  1  0.09566726  0.49797591  0.38263132  1
  Ta  Ta94  1  0.60989923  0.20790221  0.75396434  1
  Ta  Ta95  1  0.89278068  0.70602048  0.63307476  1
  Ta  Ta96  1  0.89517098  0.49566024  0.11193457  1
  Ta  Ta97  1  0.00785617  0.00219154  -0.00557545  1
  Ta  Ta98  1  0.39325575  0.59981253  0.25055299  1
  Ta  Ta99  1  0.70462719  0.50176837  0.12522208  1
  Ta  Ta100  1  0.49327697  0.29870997  0.86607656  1
  Ta  Ta101  1  0.10987227  0.09415486  0.85586720  1
  Ta  Ta102  1  -0.00634070  0.80516924  0.74696768  1
  Ta  Ta103  1  0.39232320  0.20177145  0.00275637  1
  Ta  Ta104  1  0.00395655  0.79846384  0.52271382  1
  Ta  Ta105  1  0.52228696  0.29556487  0.36210860  1
  Ta  Ta106  1  0.71089729  0.51128949  0.89633995  1
  Ta  Ta107  1  0.59926318  0.01190743  0.50810987  1
  Ta  Ta108  1  0.79345814  0.60420988  0.74580734  1
  Ta  Ta109  1  0.51186550  0.10711631  0.63134076  1
  Ta  Ta110  1  0.09482652  0.49153757  0.12371476  1
  Ta  Ta111  1  0.30853790  0.68025390  0.62833111  1
  Ta  Ta112  1  0.79792022  0.39519580  0.48221359  1
  Ta  Ta113  1  0.90125207  0.10167087  0.62085537  1
  Ta  Ta114  1  0.29240236  0.49568197  0.12340331  1
  Ta  Ta115  1  0.19354847  0.39929823  0.50713756  1
  Ta  Ta116  1  0.49992825  0.70160574  0.64195883  1
  Ta  Ta117  1  0.19675315  0.60191993  0.50877553  1
  Ta  Ta118  1  0.71106925  0.10771349  0.13113918  1
  Ta  Ta119  1  0.20129555  0.39135953  0.00694942  1
  Ti  Ti120  1  0.89886579  0.29955770  0.36367786  1
  Ti  Ti121  1  0.19522402  0.78604267  0.74521256  1
  Ti  Ti122  1  0.38665482  0.41338411  0.74281700  1
  Ti  Ti123  1  0.10041883  0.89701853  0.63530310  1
  Ti  Ti124  1  0.29248365  0.10497828  0.86658911  1
  Ti  Ti125  1  0.29858209  0.09635484  0.61927435  1
  Ti  Ti126  1  0.70514673  0.29860165  0.62318624  1
  Ti  Ti127  1  0.19389461  0.58867045  -0.00618441  1
  Ti  Ti128  1  0.10083177  0.29806401  0.63829174  1
  Ti  Ti129  1  0.10557250  0.09052594  0.12587391  1
  Ti  Ti130  1  0.19243114  0.00291549  -0.00547563  1
  Ti  Ti131  1  0.19590871  -0.00967002  0.51971458  1
  Ti  Ti132  1  0.61187770  0.00074586  0.75114566  1
  Ti  Ti133  1  0.80370735  0.00260187  0.49924521  1
  Ti  Ti134  1  0.00552316  0.59805918  0.01190102  1
  Ti  Ti135  1  0.90301184  0.29468205  0.86191572  1
  Ti  Ti136  1  0.01531650  0.19545095  -0.01010225  1
  Ti  Ti137  1  0.69234136  0.70863818  0.35529230  1
  Ti  Ti138  1  0.29400116  0.09651518  0.11824058  1
  Ti  Ti139  1  0.88973576  0.29311186  0.63281161  1
  Ti  Ti140  1  0.29134700  0.70035324  0.38270618  1
  Ti  Ti141  1  -0.00211034  -0.00250668  0.74630911  1
  Ti  Ti142  1  0.09800017  0.90554951  0.85490892  1
  Ti  Ti143  1  0.29977990  0.29468248  0.39020587  1
  Ti  Ti144  1  0.28580170  0.89729909  0.39522853  1
  Ti  Ti145  1  0.19285912  -0.01918389  0.25147666  1
  Ti  Ti146  1  0.28418959  0.48923235  0.87600732  1
  Ti  Ti147  1  0.40239052  -0.00449747  0.51139805  1
  Ti  Ti148  1  0.09981025  0.09533960  0.63452962  1
  Ti  Ti149  1  0.61233688  -0.00456567  0.23778926  1
  Ti  Ti150  1  0.90701800  0.08612409  0.39030047  1
  Ti  Ti151  1  0.80175723  0.21050457  0.48875866  1
  Ti  Ti152  1  0.80102845  0.80077452  0.49758268  1
  Ti  Ti153  1  0.70144707  0.70238065  0.88939272  1
  Ti  Ti154  1  0.19117658  0.78458276  0.51600868  1
  Ti  Ti155  1  0.71716778  0.90259495  0.11544735  1
  Ti  Ti156  1  -0.00439186  0.19381248  0.74320428  1
  Ti  Ti157  1  0.40412103  0.19942978  0.74150132  1
  Ti  Ti158  1  0.60029301  0.80304246  -0.01550752  1
  Ti  Ti159  1  0.00316564  -0.00659703  0.23784221  1
  Mo  Mo160  1  0.90156702  0.90529291  0.39961453  1
  Mo  Mo161  1  0.79296399  0.60532053  0.01610707  1
  Mo  Mo162  1  0.60693380  0.81032208  0.25434484  1
  Mo  Mo163  1  0.20105743  0.39567754  0.72992727  1
  Mo  Mo164  1  0.78956385  0.81457216  -0.00982004  1
  Mo  Mo165  1  0.10876373  0.70394771  0.37590417  1
  Mo  Mo166  1  0.80964540  0.20213108  0.26342639  1
  Mo  Mo167  1  0.39986757  0.60879780  0.48278611  1
  Mo  Mo168  1  0.10353115  0.90987380  0.11926749  1
  Mo  Mo169  1  0.60539670  0.19603417  0.23397718  1
  Mo  Mo170  1  0.89731596  0.50331299  0.38612437  1
  Mo  Mo171  1  0.70385966  0.30356718  0.36551499  1
  Mo  Mo172  1  0.28872431  0.67856824  0.85741928  1
  Mo  Mo173  1  0.00495807  -0.00177031  0.52356090  1
  Mo  Mo174  1  0.70296968  0.90449148  0.88503971  1
  Mo  Mo175  1  -0.00837043  0.60247329  0.73517303  1
  Mo  Mo176  1  0.59674240  0.60532905  0.23468646  1
  Mo  Mo177  1  0.69798499  0.30434130  0.87249822  1
  Mo  Mo178  1  0.50327192  0.69981836  0.86262914  1
  Mo  Mo179  1  0.00121957  0.40544620  0.26619565  1
  Mo  Mo180  1  0.80307958  0.40563335  -0.00615718  1
  Mo  Mo181  1  0.10224274  0.30086633  0.37195728  1
  Mo  Mo182  1  0.39004577  0.59368974  0.76273188  1
  Mo  Mo183  1  0.89760219  0.90945287  0.10451133  1
  Mo  Mo184  1  0.30291118  0.49805102  0.60224532  1
  Mo  Mo185  1  0.60674273  0.40358820  0.25472360  1
  Mo  Mo186  1  0.19418256  0.80009960  0.26973275  1
  Mo  Mo187  1  0.81002599  0.00495817  -0.00343995  1
  Mo  Mo188  1  0.70295817  0.70186410  0.62972986  1
  Mo  Mo189  1  0.09871234  0.70112849  0.64358502  1
  Mo  Mo190  1  0.90687362  0.91137296  0.88271077  1
  Mo  Mo191  1  0.29891383  0.29633432  0.11837711  1
  Mo  Mo192  1  0.20395200  0.18620125  0.73127190  1
  Mo  Mo193  1  0.60767193  0.20936410  0.51592833  1
  Mo  Mo194  1  0.19592165  -0.00506384  0.73082080  1
  Mo  Mo195  1  0.09625675  0.49433151  0.60324748  1
  Mo  Mo196  1  0.10293009  0.49333960  0.89235204  1
  Mo  Mo197  1  0.49368378  0.69975212  0.14201037  1
  Mo  Mo198  1  0.80994321  0.20397758  0.75297634  1
  Mo  Mo199  1  0.60173682  0.79704429  0.76150346  1
