# generated using pymatgen
data_HfZrTaTiMo
_symmetry_space_group_name_H-M   'P 1'
_cell_length_a   15.83092437
_cell_length_b   15.84218102
_cell_length_c   15.40140982
_cell_angle_alpha   89.99701432
_cell_angle_beta   90.03706746
_cell_angle_gamma   90.06980199
_symmetry_Int_Tables_number   1
_chemical_formula_structural   HfZrTaTiMo
_chemical_formula_sum   'Hf40 Zr40 Ta40 Ti40 Mo40'
_cell_volume   3862.61398866
_cell_formula_units_Z   40
loop_
 _symmetry_equiv_pos_site_id
 _symmetry_equiv_pos_as_xyz
  1  'x, y, z'
loop_
 _atom_site_type_symbol
 _atom_site_label
 _atom_site_symmetry_multiplicity
 _atom_site_fract_x
 _atom_site_fract_y
 _atom_site_fract_z
 _atom_site_occupancy
  Hf  Hf0  1  0.69516928  0.70394148  0.63997752  1
  Hf  Hf1  1  0.59759625  0.59764295  0.49298491  1
  Hf  Hf2  1  0.01121047  0.80181464  0.48625465  1
  Hf  Hf3  1  0.89403892  0.70563880  0.88840014  1
  Hf  Hf4  1  0.49423750  0.32128762  0.11193582  1
  Hf  Hf5  1  0.79666201  0.20136778  0.25856862  1
  Hf  Hf6  1  0.59437307  0.17885497  0.25405475  1
  Hf  Hf7  1  0.10121999  0.51127740  0.62059191  1
  Hf  Hf8  1  0.30648153  0.91372879  0.63340852  1
  Hf  Hf9  1  0.40003542  0.59877637  0.48768585  1
  Hf  Hf10  1  0.80242979  0.40130955  0.50891724  1
  Hf  Hf11  1  0.31446562  0.09589128  0.37430317  1
  Hf  Hf12  1  0.29521309  0.89779109  0.35274506  1
  Hf  Hf13  1  0.38819711  0.21071944  -0.00553961  1
  Hf  Hf14  1  0.09629723  0.89982462  0.63507609  1
  Hf  Hf15  1  0.20744084  0.39399655  0.25631279  1
  Hf  Hf16  1  -0.00711436  0.19825735  -0.00935025  1
  Hf  Hf17  1  0.58811065  -0.01447139  -0.02167230  1
  Hf  Hf18  1  0.29949733  0.90712877  0.89425477  1
  Hf  Hf19  1  0.40078703  0.79918378  0.76542293  1
  Hf  Hf20  1  0.32902530  0.49278474  0.14757845  1
  Hf  Hf21  1  0.79528602  0.40846687  0.01073806  1
  Hf  Hf22  1  0.21857356  0.58503471  0.01068646  1
  Hf  Hf23  1  0.32495816  0.70748294  0.12554134  1
  Hf  Hf24  1  0.38829234  0.19978409  0.74854456  1
  Hf  Hf25  1  0.19839225  0.39568025  0.74200445  1
  Hf  Hf26  1  0.50848606  0.89647681  0.64379891  1
  Hf  Hf27  1  0.89788037  0.09504035  0.61001419  1
  Hf  Hf28  1  0.89678057  0.90807649  0.62015833  1
  Hf  Hf29  1  0.20074156  -0.00915240  0.49957702  1
  Hf  Hf30  1  0.59195215  0.39922159  0.51558809  1
  Hf  Hf31  1  0.49774589  0.50866890  0.86112619  1
  Hf  Hf32  1  0.69817436  0.49280564  0.36962866  1
  Hf  Hf33  1  0.10487860  0.29544150  0.88458365  1
  Hf  Hf34  1  0.19850031  0.79352402  0.76106015  1
  Hf  Hf35  1  0.39986053  0.80819431  0.49474395  1
  Hf  Hf36  1  0.59851845  -0.01480874  0.50656992  1
  Hf  Hf37  1  0.49784169  0.69235223  0.63935042  1
  Hf  Hf38  1  0.31347139  0.68509691  0.88831646  1
  Hf  Hf39  1  0.70300795  0.10869076  0.87782424  1
  Zr  Zr40  1  0.81292461  0.59351383  0.24062198  1
  Zr  Zr41  1  0.19944285  0.19407536  0.49836396  1
  Zr  Zr42  1  0.20026100  0.60112961  0.47548197  1
  Zr  Zr43  1  -0.00231328  0.79902491  0.76263278  1
  Zr  Zr44  1  0.09774341  0.49842333  0.12979084  1
  Zr  Zr45  1  0.90105586  0.91652325  0.38186865  1
  Zr  Zr46  1  0.78917683  0.00137451  0.23938219  1
  Zr  Zr47  1  -0.00002563  0.41003932  0.48523318  1
  Zr  Zr48  1  0.09643118  0.09938653  0.12341969  1
  Zr  Zr49  1  0.91248415  0.70137293  0.62655099  1
  Zr  Zr50  1  0.10444277  0.90231422  0.88670935  1
  Zr  Zr51  1  0.89144165  0.10745742  0.11658394  1
  Zr  Zr52  1  0.78881337  -0.00905634  -0.00391847  1
  Zr  Zr53  1  0.80654470  0.60146506  0.49524396  1
  Zr  Zr54  1  0.59921211  0.38479050  0.25561786  1
  Zr  Zr55  1  -0.00651374  0.39980384  0.74543977  1
  Zr  Zr56  1  0.58281302  0.78865847  0.25116784  1
  Zr  Zr57  1  0.49568174  0.09973522  0.10198506  1
  Zr  Zr58  1  0.09407154  0.09520348  0.62726028  1
  Zr  Zr59  1  0.50147535  0.28450035  0.39409539  1
  Zr  Zr60  1  0.40097934  0.39286503  0.74590037  1
  Zr  Zr61  1  0.79730359  0.79963989  0.24029410  1
  Zr  Zr62  1  -0.00873905  0.40458048  0.26090838  1
  Zr  Zr63  1  0.29328458  0.70040881  0.62504099  1
  Zr  Zr64  1  0.80177951  0.20309121  0.74606722  1
  Zr  Zr65  1  0.21037325  0.60073045  0.25257686  1
  Zr  Zr66  1  0.80517864  0.39310997  0.24736884  1
  Zr  Zr67  1  0.80577295  0.59896758  0.75431302  1
  Zr  Zr68  1  0.40959686  0.01286883  0.77954325  1
  Zr  Zr69  1  0.69422039  0.28911261  0.10898510  1
  Zr  Zr70  1  0.69590883  0.09310290  0.39557208  1
  Zr  Zr71  1  0.58553100  0.20123212  0.74764450  1
  Zr  Zr72  1  0.79082657  0.80459837  0.49568256  1
  Zr  Zr73  1  0.09429757  0.08634078  0.36482766  1
  Zr  Zr74  1  0.59764915  0.79530862  0.49088720  1
  Zr  Zr75  1  0.10714371  0.49150840  0.88682990  1
  Zr  Zr76  1  0.39631345  0.20850044  0.23996385  1
  Zr  Zr77  1  0.00050870  0.20173266  0.75573911  1
  Zr  Zr78  1  -0.00725953  0.79892672  0.24538779  1
  Zr  Zr79  1  0.79131992  0.60163680  0.00293206  1
  Ta  Ta80  1  0.20634012  0.79814769  0.01294120  1
  Ta  Ta81  1  0.39366688  0.41781714  -0.01386910  1
  Ta  Ta82  1  0.88651168  0.30326383  0.88460091  1
  Ta  Ta83  1  0.68948623  0.09549930  0.10989722  1
  Ta  Ta84  1  0.20266688  0.20161189  0.24546701  1
  Ta  Ta85  1  0.69504883  0.49506682  0.86293879  1
  Ta  Ta86  1  0.30060070  0.50427357  0.62681374  1
  Ta  Ta87  1  0.09959043  0.30246156  0.60779197  1
  Ta  Ta88  1  0.00382152  0.60688350  0.46983537  1
  Ta  Ta89  1  0.89875241  0.49373802  0.87913940  1
  Ta  Ta90  1  -0.00225154  0.59554422  0.00037659  1
  Ta  Ta91  1  -0.01082721  0.00530401  0.77423657  1
  Ta  Ta92  1  0.20282299  0.59675120  0.76140678  1
  Ta  Ta93  1  0.49530837  0.09098054  0.61870371  1
  Ta  Ta94  1  0.11000872  0.09892529  0.88360965  1
  Ta  Ta95  1  0.40690340  0.00741927  0.23276970  1
  Ta  Ta96  1  0.70276519  0.28725330  0.39955975  1
  Ta  Ta97  1  0.69501321  0.31197553  0.87804459  1
  Ta  Ta98  1  0.21255958  0.38783282  0.01729261  1
  Ta  Ta99  1  0.69864825  0.69264170  0.35832300  1
  Ta  Ta100  1  0.68542727  0.69583643  0.12601856  1
  Ta  Ta101  1  0.29530665  0.30599905  0.60873806  1
  Ta  Ta102  1  0.50020088  0.89420614  0.12380498  1
  Ta  Ta103  1  0.10378806  0.29738447  0.37388647  1
  Ta  Ta104  1  0.10193017  0.70063277  0.12357731  1
  Ta  Ta105  1  0.51025942  0.51423686  0.12712720  1
  Ta  Ta106  1  -0.00397745  -0.00122490  -0.00827440  1
  Ta  Ta107  1  -0.00210903  0.60124678  0.26220351  1
  Ta  Ta108  1  0.09631903  0.29496097  0.13009259  1
  Ta  Ta109  1  0.39945907  0.19361916  0.51589198  1
  Ta  Ta110  1  0.89930768  0.89698165  0.10929938  1
  Ta  Ta111  1  0.01063898  0.60198142  0.77047803  1
  Ta  Ta112  1  -0.00344128  0.20350084  0.48598248  1
  Ta  Ta113  1  0.49286886  0.91290359  0.35948653  1
  Ta  Ta114  1  0.10756371  0.69656426  0.89879592  1
  Ta  Ta115  1  0.10110545  0.90022938  0.12255638  1
  Ta  Ta116  1  0.69948834  0.08722248  0.62507963  1
  Ta  Ta117  1  0.30465188  0.30296338  0.38696325  1
  Ta  Ta118  1  -0.00841847  0.20643938  0.26344425  1
  Ta  Ta119  1  0.11147287  0.71461282  0.35251419  1
  Ti  Ti120  1  0.79980102  -0.00287954  0.76015521  1
  Ti  Ti121  1  0.89175640  0.89527579  0.88845424  1
  Ti  Ti122  1  0.60652341  0.80039884  0.77251358  1
  Ti  Ti123  1  0.28891450  0.30332610  0.87629093  1
  Ti  Ti124  1  0.20372051  0.01287296  0.75239472  1
  Ti  Ti125  1  0.42078339  0.80465460  -0.00762476  1
  Ti  Ti126  1  0.60177245  0.59782772  -0.01066130  1
  Ti  Ti127  1  0.42735510  0.62027969  0.25798862  1
  Ti  Ti128  1  0.20375106  0.41141366  0.48574900  1
  Ti  Ti129  1  0.28589301  0.10240651  0.89896253  1
  Ti  Ti130  1  0.39870668  0.40552851  0.50115875  1
  Ti  Ti131  1  0.20063685  0.80017076  0.49622033  1
  Ti  Ti132  1  0.10096263  0.69689945  0.62404719  1
  Ti  Ti133  1  0.10610171  0.90142343  0.35024932  1
  Ti  Ti134  1  0.20985617  0.00591349  0.23061930  1
  Ti  Ti135  1  0.49679885  0.49666397  0.36091964  1
  Ti  Ti136  1  0.59392348  0.20442302  -0.01391698  1
  Ti  Ti137  1  0.20225900  0.19867030  0.73739778  1
  Ti  Ti138  1  0.90460895  0.29563327  0.61454295  1
  Ti  Ti139  1  0.60146883  0.39428157  0.73638491  1
  Ti  Ti140  1  0.79957401  0.39707024  0.74083822  1
  Ti  Ti141  1  0.69665047  0.28803880  0.61677295  1
  Ti  Ti142  1  0.00260164  0.79895502  0.00449894  1
  Ti  Ti143  1  0.69247807  0.90150387  0.36016099  1
  Ti  Ti144  1  -0.01094375  0.00198063  0.23893671  1
  Ti  Ti145  1  0.61613972  0.79807656  -0.00993999  1
  Ti  Ti146  1  0.50860059  0.69414479  0.87453220  1
  Ti  Ti147  1  0.90876847  0.50889702  0.62771623  1
  Ti  Ti148  1  0.90010838  0.29797466  0.11625516  1
  Ti  Ti149  1  0.69479128  0.50581874  0.63740124  1
  Ti  Ti150  1  0.90237929  0.69809863  0.11272006  1
  Ti  Ti151  1  0.89124361  0.10099303  0.39185862  1
  Ti  Ti152  1  0.60411026  -0.00194715  0.76435993  1
  Ti  Ti153  1  0.30781101  0.90748941  0.11640811  1
  Ti  Ti154  1  0.79599404  0.80712078  0.75590999  1
  Ti  Ti155  1  -0.00209705  0.40001841  0.00701023  1
  Ti  Ti156  1  0.30915378  0.71355137  0.35629320  1
  Ti  Ti157  1  0.68667938  0.49929405  0.13146455  1
  Ti  Ti158  1  0.50489012  0.31204746  0.88239880  1
  Ti  Ti159  1  0.49627378  0.50471990  0.63803187  1
  Mo  Mo160  1  0.49675291  0.70370024  0.38251525  1
  Mo  Mo161  1  0.89648023  0.50253180  0.38133540  1
  Mo  Mo162  1  0.50953053  0.69855401  0.10245526  1
  Mo  Mo163  1  0.90188708  0.70292873  0.37371388  1
  Mo  Mo164  1  0.39431095  0.59897564  0.74248512  1
  Mo  Mo165  1  0.70609539  0.89476232  0.86331250  1
  Mo  Mo166  1  0.40620648  0.39890907  0.26678866  1
  Mo  Mo167  1  0.79177550  -0.00488176  0.50598092  1
  Mo  Mo168  1  0.40041026  0.80734154  0.24384900  1
  Mo  Mo169  1  0.19908775  0.00148083  0.01569220  1
  Mo  Mo170  1  0.41566119  0.59919183  0.00328686  1
  Mo  Mo171  1  0.79296781  0.20492108  -0.00853097  1
  Mo  Mo172  1  0.30117228  0.09955562  0.62458758  1
  Mo  Mo173  1  0.19786651  0.20374397  0.01477645  1
  Mo  Mo174  1  0.68836730  0.89734691  0.12921851  1
  Mo  Mo175  1  0.59520800  -0.00385033  0.24033560  1
  Mo  Mo176  1  0.60209016  0.59869886  0.75580902  1
  Mo  Mo177  1  0.70048934  0.90284279  0.65169486  1
  Mo  Mo178  1  0.10512319  0.50349828  0.36456822  1
  Mo  Mo179  1  0.39767892  -0.00061333  0.00129913  1
  Mo  Mo180  1  0.59703151  0.41193989  -0.00662427  1
  Mo  Mo181  1  0.29603773  0.09937202  0.11844539  1
  Mo  Mo182  1  0.59693728  0.19354102  0.52223788  1
  Mo  Mo183  1  0.49720102  0.10987744  0.88478064  1
  Mo  Mo184  1  0.50257229  0.88997304  0.87165255  1
  Mo  Mo185  1  0.49557396  0.09021763  0.39084123  1
  Mo  Mo186  1  0.40273652  -0.00243302  0.49796260  1
  Mo  Mo187  1  0.79253144  0.79862759  0.01484602  1
  Mo  Mo188  1  0.00296838  -0.00011126  0.48996829  1
  Mo  Mo189  1  0.49491745  0.29929084  0.61647827  1
  Mo  Mo190  1  0.89484897  0.29422885  0.38676169  1
  Mo  Mo191  1  0.89936178  0.09838969  0.87896064  1
  Mo  Mo192  1  0.30003308  0.30177359  0.12652065  1
  Mo  Mo193  1  0.69743019  0.69911793  0.87242386  1
  Mo  Mo194  1  0.29998903  0.49345965  0.86646204  1
  Mo  Mo195  1  0.90683103  0.50064646  0.10982461  1
  Mo  Mo196  1  0.60269560  0.59688519  0.25543774  1
  Mo  Mo197  1  0.20198976  0.80556840  0.22437842  1
  Mo  Mo198  1  0.79857099  0.20076570  0.51245006  1
  Mo  Mo199  1  0.31463129  0.49569053  0.36623639  1
