# generated using pymatgen
data_HfZrTaTiMo
_symmetry_space_group_name_H-M   'P 1'
_cell_length_a   15.83488889
_cell_length_b   15.84219458
_cell_length_c   15.42177862
_cell_angle_alpha   89.95232806
_cell_angle_beta   90.02582165
_cell_angle_gamma   90.19904498
_symmetry_Int_Tables_number   1
_chemical_formula_structural   HfZrTaTiMo
_chemical_formula_sum   'Hf40 Zr40 Ta40 Ti40 Mo40'
_cell_volume   3868.67291986
_cell_formula_units_Z   40
loop_
 _symmetry_equiv_pos_site_id
 _symmetry_equiv_pos_as_xyz
  1  'x, y, z'
loop_
 _atom_site_type_symbol
 _atom_site_label
 _atom_site_symmetry_multiplicity
 _atom_site_fract_x
 _atom_site_fract_y
 _atom_site_fract_z
 _atom_site_occupancy
  Hf  Hf0  1  0.50209222  0.49159317  0.12897323  1
  Hf  Hf1  1  0.38824379  0.79710085  0.73070605  1
  Hf  Hf2  1  0.40665899  0.40287390  -0.01992565  1
  Hf  Hf3  1  0.10224711  0.30061975  0.10945769  1
  Hf  Hf4  1  0.10765019  0.30422216  0.38189465  1
  Hf  Hf5  1  0.00024947  0.19517399  0.23250414  1
  Hf  Hf6  1  -0.01805773  0.18960363  0.52081319  1
  Hf  Hf7  1  0.50833628  0.89948627  0.14448274  1
  Hf  Hf8  1  0.70456256  0.90169830  0.13086596  1
  Hf  Hf9  1  0.19935266  0.80193182  0.73326403  1
  Hf  Hf10  1  0.10796083  0.08085062  0.62385765  1
  Hf  Hf11  1  0.69231709  0.11232438  0.12329869  1
  Hf  Hf12  1  0.09836056  0.29091362  0.87675415  1
  Hf  Hf13  1  0.20240809  0.18782754  0.74608170  1
  Hf  Hf14  1  0.30054468  0.46910544  0.40443474  1
  Hf  Hf15  1  0.09738784  0.69993260  0.88057096  1
  Hf  Hf16  1  0.69685484  0.49437643  0.63128661  1
  Hf  Hf17  1  0.79855396  0.80610471  0.74357291  1
  Hf  Hf18  1  -0.00346434  0.39723334  0.74951782  1
  Hf  Hf19  1  0.11151538  0.50437745  0.37202606  1
  Hf  Hf20  1  0.60583857  0.58855286  0.48715734  1
  Hf  Hf21  1  0.69611150  0.71051265  0.36638924  1
  Hf  Hf22  1  0.49072422  0.70596559  0.87220902  1
  Hf  Hf23  1  0.50202296  0.90037284  0.87190990  1
  Hf  Hf24  1  0.59942934  0.80160340  0.50311607  1
  Hf  Hf25  1  0.81501784  0.01901579  0.50524358  1
  Hf  Hf26  1  0.89492512  0.70875280  0.37631774  1
  Hf  Hf27  1  0.09245403  0.69564628  0.37078440  1
  Hf  Hf28  1  0.50067400  0.90416208  0.37731907  1
  Hf  Hf29  1  0.71802512  0.12281195  0.38352630  1
  Hf  Hf30  1  0.30696443  0.51588441  0.61226653  1
  Hf  Hf31  1  0.80672671  0.00491827  0.75391235  1
  Hf  Hf32  1  0.89937401  0.90171664  0.36159160  1
  Hf  Hf33  1  0.19378352  0.78951068  0.24417143  1
  Hf  Hf34  1  -0.00192724  0.79946293  0.50916076  1
  Hf  Hf35  1  0.00716360  -0.00580128  0.49289442  1
  Hf  Hf36  1  0.48504064  0.68072553  0.61728703  1
  Hf  Hf37  1  0.20276137  0.19830427  0.24735381  1
  Hf  Hf38  1  0.80252418  0.39694971  0.25821493  1
  Hf  Hf39  1  0.59438124  0.59669129  0.75839568  1
  Zr  Zr40  1  0.50369822  0.29564189  0.13001824  1
  Zr  Zr41  1  0.29743461  0.09289873  0.88349865  1
  Zr  Zr42  1  0.91189719  0.90384443  0.88293417  1
  Zr  Zr43  1  0.30491449  0.10087447  0.39155258  1
  Zr  Zr44  1  -0.00444574  0.78623249  0.74215875  1
  Zr  Zr45  1  0.90078723  0.50784343  0.63032190  1
  Zr  Zr46  1  0.60091046  0.80518458  0.73952253  1
  Zr  Zr47  1  0.70718918  0.90643895  0.37506629  1
  Zr  Zr48  1  0.39585713  0.79268407  0.25353035  1
  Zr  Zr49  1  0.29787186  0.29995583  0.86815249  1
  Zr  Zr50  1  0.60403590  0.59225844  -0.01089228  1
  Zr  Zr51  1  0.38654725  0.57419759  0.25009693  1
  Zr  Zr52  1  0.22268762  0.39785907  0.24041816  1
  Zr  Zr53  1  -0.00138023  0.39464503  0.51244256  1
  Zr  Zr54  1  0.10309901  0.49993770  0.87200642  1
  Zr  Zr55  1  0.60772471  0.40643314  0.27209763  1
  Zr  Zr56  1  0.78922438  0.41219236  -0.02440083  1
  Zr  Zr57  1  0.28699484  0.67595191  0.38597630  1
  Zr  Zr58  1  0.39444365  0.00223949  0.74140781  1
  Zr  Zr59  1  0.70587256  0.70011405  0.61575039  1
  Zr  Zr60  1  0.29522981  0.90538496  0.12765054  1
  Zr  Zr61  1  0.60041464  0.00990759  -0.00092596  1
  Zr  Zr62  1  0.28730323  0.92950174  0.59761914  1
  Zr  Zr63  1  0.91261577  0.49919658  0.37550458  1
  Zr  Zr64  1  0.30007726  0.31129871  0.62015816  1
  Zr  Zr65  1  0.89665557  0.27643235  0.37729046  1
  Zr  Zr66  1  0.80992420  0.61098289  0.75945867  1
  Zr  Zr67  1  0.69503551  0.31660060  0.11231670  1
  Zr  Zr68  1  0.78897429  0.39034937  0.49500598  1
  Zr  Zr69  1  0.40854578  0.00146555  0.00674208  1
  Zr  Zr70  1  0.48707344  0.29854401  0.38589810  1
  Zr  Zr71  1  0.30080585  0.88765004  0.88917967  1
  Zr  Zr72  1  0.40220400  0.01524928  0.25666175  1
  Zr  Zr73  1  0.39181446  0.79644240  0.50020161  1
  Zr  Zr74  1  0.60384609  0.79181402  0.01327482  1
  Zr  Zr75  1  -0.00515455  0.60464251  0.23102565  1
  Zr  Zr76  1  0.10453771  0.89702891  0.89602782  1
  Zr  Zr77  1  0.88825731  0.49436298  0.11642689  1
  Zr  Zr78  1  0.81244860  0.01473241  -0.00197916  1
  Zr  Zr79  1  -0.00330437  0.60023845  0.00817045  1
  Ta  Ta80  1  0.08843352  0.08639058  0.88391207  1
  Ta  Ta81  1  0.69725272  0.30057179  0.64117081  1
  Ta  Ta82  1  0.00398965  0.39302620  0.23989435  1
  Ta  Ta83  1  -0.00639857  0.79893259  0.22668290  1
  Ta  Ta84  1  0.50269965  0.91245592  0.61283611  1
  Ta  Ta85  1  0.28898514  0.90179161  0.37891944  1
  Ta  Ta86  1  0.19595824  0.19819279  0.50713988  1
  Ta  Ta87  1  0.40479598  0.78801393  0.01929698  1
  Ta  Ta88  1  0.19738794  0.19193771  0.00165968  1
  Ta  Ta89  1  0.78878445  0.59556301  0.26019130  1
  Ta  Ta90  1  0.90467660  0.90629074  0.62766472  1
  Ta  Ta91  1  0.90101900  0.29336133  0.87376540  1
  Ta  Ta92  1  0.18643862  0.80196071  0.50340971  1
  Ta  Ta93  1  0.40581083  0.41047415  0.75162711  1
  Ta  Ta94  1  0.20505338  0.59522634  0.00751170  1
  Ta  Ta95  1  0.50496063  0.10591322  0.85700541  1
  Ta  Ta96  1  0.09953016  0.90728728  0.12460304  1
  Ta  Ta97  1  0.80289347  0.60126008  0.49067526  1
  Ta  Ta98  1  0.40865866  0.19839326  -0.00711012  1
  Ta  Ta99  1  0.30210501  0.68650421  0.12562251  1
  Ta  Ta100  1  0.30058927  0.10615673  0.11964310  1
  Ta  Ta101  1  -0.01141750  0.18339436  0.00325687  1
  Ta  Ta102  1  0.10629404  0.49554830  0.12418663  1
  Ta  Ta103  1  0.40277245  0.19943319  0.73411543  1
  Ta  Ta104  1  0.80050469  0.20556866  0.23313868  1
  Ta  Ta105  1  -0.00516624  0.79775206  0.02559607  1
  Ta  Ta106  1  0.70450319  0.89972674  0.88478655  1
  Ta  Ta107  1  0.60511878  0.01542449  0.26278854  1
  Ta  Ta108  1  -0.00188019  0.18818138  0.74778265  1
  Ta  Ta109  1  0.69887075  0.10674023  0.86319743  1
  Ta  Ta110  1  0.79806519  0.20302236  -0.00947273  1
  Ta  Ta111  1  0.49227141  0.49364673  0.38682291  1
  Ta  Ta112  1  0.10046431  0.29787020  0.63347389  1
  Ta  Ta113  1  0.40869432  0.19205902  0.51959014  1
  Ta  Ta114  1  0.69902826  0.10721964  0.63141323  1
  Ta  Ta115  1  0.39992444  0.59612173  -0.00199267  1
  Ta  Ta116  1  0.20407768  0.60717016  0.74527620  1
  Ta  Ta117  1  0.50065555  0.29320907  0.85691938  1
  Ta  Ta118  1  0.50002183  0.69259502  0.36639623  1
  Ta  Ta119  1  0.30886978  0.29742974  0.10856467  1
  Ti  Ti120  1  0.00082956  0.00585999  0.23827406  1
  Ti  Ti121  1  0.50017029  0.11051969  0.13404926  1
  Ti  Ti122  1  0.89704940  0.90692054  0.12410264  1
  Ti  Ti123  1  0.59802522  0.01877083  0.49156659  1
  Ti  Ti124  1  0.59657836  0.40433731  0.76299564  1
  Ti  Ti125  1  0.80125421  0.40085133  0.75984905  1
  Ti  Ti126  1  0.20708456  0.41004912  0.74998211  1
  Ti  Ti127  1  0.50036438  0.49113543  0.61266264  1
  Ti  Ti128  1  0.89533966  0.70766215  0.89527688  1
  Ti  Ti129  1  0.29520106  0.69903911  0.88804618  1
  Ti  Ti130  1  0.59758560  0.20585561  -0.01545087  1
  Ti  Ti131  1  0.10560485  0.50018744  0.62839779  1
  Ti  Ti132  1  0.60691729  -0.00220007  0.74800031  1
  Ti  Ti133  1  0.09682582  0.89699591  0.35626741  1
  Ti  Ti134  1  0.69752053  0.51770994  0.12792617  1
  Ti  Ti135  1  0.51116531  0.68854149  0.14593133  1
  Ti  Ti136  1  0.90479013  0.51068056  0.87239987  1
  Ti  Ti137  1  0.89721073  0.30061955  0.10745755  1
  Ti  Ti138  1  0.19405320  0.00832631  0.25337114  1
  Ti  Ti139  1  0.60288337  0.20370843  0.26513290  1
  Ti  Ti140  1  0.19975132  0.79065551  0.01979675  1
  Ti  Ti141  1  0.80439318  0.01656528  0.24674249  1
  Ti  Ti142  1  0.51099042  0.30453812  0.63202133  1
  Ti  Ti143  1  0.86844158  0.69435991  0.11120884  1
  Ti  Ti144  1  -0.00205216  0.39840670  -0.00687377  1
  Ti  Ti145  1  0.80678668  0.20279422  0.74844682  1
  Ti  Ti146  1  0.00133516  0.60086259  0.50778443  1
  Ti  Ti147  1  0.60823188  0.21173835  0.50485445  1
  Ti  Ti148  1  0.59751644  0.40245966  -0.02688460  1
  Ti  Ti149  1  0.20810164  0.40439122  -0.00447670  1
  Ti  Ti150  1  0.79990820  0.79592798  0.23451543  1
  Ti  Ti151  1  0.39196064  0.21101300  0.25515986  1
  Ti  Ti152  1  0.38898930  0.59588526  0.76517655  1
  Ti  Ti153  1  0.69651824  0.29493559  0.85948592  1
  Ti  Ti154  1  0.50925984  0.09897663  0.62974660  1
  Ti  Ti155  1  0.70731731  0.70826561  0.88172011  1
  Ti  Ti156  1  0.09268800  0.10368280  0.37581839  1
  Ti  Ti157  1  0.70166771  0.91290750  0.61087966  1
  Ti  Ti158  1  0.19489234  -0.00845675  0.75721269  1
  Ti  Ti159  1  0.09800467  0.68879096  0.62583918  1
  Mo  Mo160  1  0.18758046  -0.00083000  0.47257502  1
  Mo  Mo161  1  0.10490089  0.09456766  0.11574116  1
  Mo  Mo162  1  0.79731454  0.20404134  0.53260585  1
  Mo  Mo163  1  0.79969555  0.80364153  0.00727704  1
  Mo  Mo164  1  0.70232548  0.50163390  0.37913989  1
  Mo  Mo165  1  0.10363955  0.69963146  0.12128651  1
  Mo  Mo166  1  0.09884881  0.89710080  0.62740717  1
  Mo  Mo167  1  0.29862990  0.29040289  0.39813969  1
  Mo  Mo168  1  0.59588111  0.59740760  0.26155245  1
  Mo  Mo169  1  0.00908675  -0.00683102  0.74559632  1
  Mo  Mo170  1  0.80334497  0.80846964  0.51346738  1
  Mo  Mo171  1  0.18863551  0.60053927  0.51565763  1
  Mo  Mo172  1  0.90670633  0.09459951  0.35320900  1
  Mo  Mo173  1  0.70001081  0.29695774  0.37991195  1
  Mo  Mo174  1  0.00701592  0.60035173  0.74846057  1
  Mo  Mo175  1  0.51179340  0.10818323  0.38146311  1
  Mo  Mo176  1  0.89551926  0.10287356  0.13389509  1
  Mo  Mo177  1  0.60027583  0.80295581  0.24967545  1
  Mo  Mo178  1  0.70118894  0.49933541  0.85510519  1
  Mo  Mo179  1  0.90330129  0.09448680  0.64505600  1
  Mo  Mo180  1  0.90560398  0.10739630  0.86498095  1
  Mo  Mo181  1  0.28895299  0.69889136  0.61133731  1
  Mo  Mo182  1  0.59983962  0.39362150  0.50129904  1
  Mo  Mo183  1  0.19878822  0.00126102  0.00711474  1
  Mo  Mo184  1  0.30042340  0.10428322  0.61243558  1
  Mo  Mo185  1  0.40437001  0.59589701  0.48743185  1
  Mo  Mo186  1  0.41385425  0.00683682  0.49640828  1
  Mo  Mo187  1  0.00140496  0.00185942  0.02110443  1
  Mo  Mo188  1  0.49652938  0.49959174  0.87144560  1
  Mo  Mo189  1  0.89512869  0.29898125  0.64805826  1
  Mo  Mo190  1  0.29676148  0.50964168  0.87332634  1
  Mo  Mo191  1  0.39847082  0.38739599  0.24691906  1
  Mo  Mo192  1  0.79167984  0.60686878  -0.01498921  1
  Mo  Mo193  1  0.89849523  0.70148618  0.60668583  1
  Mo  Mo194  1  0.69549832  0.69564198  0.14244220  1
  Mo  Mo195  1  0.60152439  0.19994183  0.74696281  1
  Mo  Mo196  1  0.19056136  0.39694503  0.51688662  1
  Mo  Mo197  1  0.41056362  0.39182882  0.52168559  1
  Mo  Mo198  1  0.19794498  0.59223256  0.22880685  1
  Mo  Mo199  1  0.30299759  0.49142895  0.10503536  1
