# generated using pymatgen
data_HfZrTaTiMo
_symmetry_space_group_name_H-M   'P 1'
_cell_length_a   15.83444771
_cell_length_b   15.84245704
_cell_length_c   15.44103636
_cell_angle_alpha   90.03063492
_cell_angle_beta   89.98120756
_cell_angle_gamma   90.04197754
_symmetry_Int_Tables_number   1
_chemical_formula_structural   HfZrTaTiMo
_chemical_formula_sum   'Hf40 Zr40 Ta40 Ti40 Mo40'
_cell_volume   3873.48342482
_cell_formula_units_Z   40
loop_
 _symmetry_equiv_pos_site_id
 _symmetry_equiv_pos_as_xyz
  1  'x, y, z'
loop_
 _atom_site_type_symbol
 _atom_site_label
 _atom_site_symmetry_multiplicity
 _atom_site_fract_x
 _atom_site_fract_y
 _atom_site_fract_z
 _atom_site_occupancy
  Hf  Hf0  1  0.49416004  0.88571076  0.64355145  1
  Hf  Hf1  1  -0.01407744  0.00555343  -0.00464402  1
  Hf  Hf2  1  0.48003276  0.30103522  0.61299908  1
  Hf  Hf3  1  0.38893730  0.79000214  -0.00366584  1
  Hf  Hf4  1  0.50021406  0.68545557  0.13710796  1
  Hf  Hf5  1  0.70288366  0.68890071  0.36154650  1
  Hf  Hf6  1  0.10258099  0.30777593  0.14764534  1
  Hf  Hf7  1  0.60538360  0.59354918  -0.01367762  1
  Hf  Hf8  1  0.11085008  0.50899209  0.36582366  1
  Hf  Hf9  1  0.82675461  0.58814148  0.25196454  1
  Hf  Hf10  1  0.70410372  0.29507124  0.36895616  1
  Hf  Hf11  1  0.91070148  0.50652105  0.10309082  1
  Hf  Hf12  1  0.59006809  0.01317623  -0.01208033  1
  Hf  Hf13  1  0.20317775  0.01134943  0.25262612  1
  Hf  Hf14  1  0.89646900  0.30079648  0.13081764  1
  Hf  Hf15  1  0.91376041  0.50390339  0.87106867  1
  Hf  Hf16  1  0.11623332  0.70564428  0.13580836  1
  Hf  Hf17  1  0.80498585  0.80732804  -0.01343396  1
  Hf  Hf18  1  0.29564947  0.10635434  0.87187177  1
  Hf  Hf19  1  0.39940790  0.39518571  0.26062292  1
  Hf  Hf20  1  0.39189099  0.00051686  0.00822136  1
  Hf  Hf21  1  0.70687368  0.69627518  0.12871981  1
  Hf  Hf22  1  0.07754291  0.88787016  0.86812007  1
  Hf  Hf23  1  0.08781439  0.89908127  0.12520626  1
  Hf  Hf24  1  0.68965697  0.70438938  0.65256071  1
  Hf  Hf25  1  -0.01433241  0.42080638  0.26036012  1
  Hf  Hf26  1  0.37264427  0.78049533  0.24946605  1
  Hf  Hf27  1  0.49145168  0.68707528  0.35876981  1
  Hf  Hf28  1  0.69138955  0.09315311  0.61722758  1
  Hf  Hf29  1  0.40760378  0.58948555  -0.01546426  1
  Hf  Hf30  1  0.20568369  -0.00462858  0.75876954  1
  Hf  Hf31  1  0.91551066  0.70560152  0.11877903  1
  Hf  Hf32  1  0.10422471  0.90268051  0.37721151  1
  Hf  Hf33  1  -0.00603648  0.21025760  0.50106228  1
  Hf  Hf34  1  0.39282063  0.19673899  0.25937685  1
  Hf  Hf35  1  0.70545275  0.49526771  0.13069726  1
  Hf  Hf36  1  0.81090028  0.40413748  0.49651260  1
  Hf  Hf37  1  0.30159748  0.30668233  0.39836133  1
  Hf  Hf38  1  0.18799895  0.20591335  0.50670981  1
  Hf  Hf39  1  0.89164356  0.90624639  0.13066893  1
  Zr  Zr40  1  0.59744773  0.38666441  0.24784333  1
  Zr  Zr41  1  0.30919864  0.51249400  0.38767530  1
  Zr  Zr42  1  0.00276087  0.79390959  0.50262777  1
  Zr  Zr43  1  0.69162392  0.30062858  0.62968486  1
  Zr  Zr44  1  0.69720709  0.90257222  0.63241868  1
  Zr  Zr45  1  0.79870632  0.19767939  0.50034606  1
  Zr  Zr46  1  0.02250755  0.39281762  -0.00099940  1
  Zr  Zr47  1  0.59132120  0.79265261  0.49279636  1
  Zr  Zr48  1  0.40869376  0.19747386  -0.00355975  1
  Zr  Zr49  1  0.10517596  0.69601368  0.63807925  1
  Zr  Zr50  1  0.70430774  0.49857449  0.64851256  1
  Zr  Zr51  1  0.31461133  0.70760154  0.62753984  1
  Zr  Zr52  1  0.69382569  0.90625890  0.12302479  1
  Zr  Zr53  1  0.30651710  0.49847122  0.12169655  1
  Zr  Zr54  1  0.28968401  0.32207999  0.89780092  1
  Zr  Zr55  1  0.47740525  0.90586655  0.86151770  1
  Zr  Zr56  1  0.60001402  0.40148339  0.49381671  1
  Zr  Zr57  1  0.11464232  0.49200065  0.85814233  1
  Zr  Zr58  1  0.31131467  0.90998856  0.37451976  1
  Zr  Zr59  1  0.49207276  0.90174932  0.14607415  1
  Zr  Zr60  1  0.59136340  0.79843418  -0.00430524  1
  Zr  Zr61  1  0.91784548  0.49844930  0.64511854  1
  Zr  Zr62  1  0.58266053  0.18808950  0.48432117  1
  Zr  Zr63  1  0.80119409  0.00820471  0.76368251  1
  Zr  Zr64  1  0.60512304  0.59825677  0.50800981  1
  Zr  Zr65  1  0.29742330  0.30351608  0.11858663  1
  Zr  Zr66  1  0.11092583  0.90525877  0.62102192  1
  Zr  Zr67  1  0.78816053  0.39693683  -0.01128787  1
  Zr  Zr68  1  -0.00041996  0.01006914  0.50038309  1
  Zr  Zr69  1  0.48095367  0.07163773  0.35937353  1
  Zr  Zr70  1  0.18595105  0.00546298  -0.00809936  1
  Zr  Zr71  1  0.38617722  0.21179857  0.75202967  1
  Zr  Zr72  1  0.29600961  0.10096813  0.62099586  1
  Zr  Zr73  1  0.92374911  0.71094110  0.87117840  1
  Zr  Zr74  1  0.27839158  0.88717286  0.12368914  1
  Zr  Zr75  1  0.90384976  0.29558702  0.87186241  1
  Zr  Zr76  1  0.80814421  0.60034487  0.50491463  1
  Zr  Zr77  1  0.79663253  0.79917342  0.49895938  1
  Zr  Zr78  1  0.21447092  0.38600562  0.72789746  1
  Zr  Zr79  1  0.60482827  0.20519452  -0.00088480  1
  Ta  Ta80  1  0.50033343  0.70012156  0.85112420  1
  Ta  Ta81  1  0.18920617  0.78704468  -0.02199910  1
  Ta  Ta82  1  0.70783183  0.49585018  0.35893369  1
  Ta  Ta83  1  0.29972046  0.69201015  0.86272497  1
  Ta  Ta84  1  0.89731254  0.90226822  0.37844559  1
  Ta  Ta85  1  0.79329457  0.00891855  -0.01233790  1
  Ta  Ta86  1  0.59628217  -0.01607936  0.48172838  1
  Ta  Ta87  1  0.40367949  -0.00778602  0.51433114  1
  Ta  Ta88  1  0.50173443  0.09686884  0.14116899  1
  Ta  Ta89  1  0.91400959  0.69561671  0.37134279  1
  Ta  Ta90  1  0.80361420  0.80193996  0.25809977  1
  Ta  Ta91  1  0.89393324  0.10163019  0.37448894  1
  Ta  Ta92  1  0.78900002  -0.00067145  0.26768377  1
  Ta  Ta93  1  0.59862525  0.18993137  0.25745972  1
  Ta  Ta94  1  0.21078507  0.80593014  0.75847518  1
  Ta  Ta95  1  -0.00753305  0.19521303  0.73355441  1
  Ta  Ta96  1  0.09331240  0.10806765  0.13693630  1
  Ta  Ta97  1  0.00882414  0.59498815  0.50259999  1
  Ta  Ta98  1  -0.00691275  0.00587502  0.25783546  1
  Ta  Ta99  1  0.79692497  0.20023426  0.74262940  1
  Ta  Ta100  1  0.31567555  0.49347650  0.60673179  1
  Ta  Ta101  1  0.60358270  0.80450351  0.26160497  1
  Ta  Ta102  1  0.22813367  0.62005035  0.25408678  1
  Ta  Ta103  1  0.79575307  0.19194726  0.24917521  1
  Ta  Ta104  1  0.00582105  0.40394712  0.49568368  1
  Ta  Ta105  1  0.11166022  0.50938514  0.14122575  1
  Ta  Ta106  1  0.50542557  0.49877567  0.64150750  1
  Ta  Ta107  1  0.20658445  0.59608096  -0.00796481  1
  Ta  Ta108  1  0.17869033  0.20647395  -0.00002311  1
  Ta  Ta109  1  0.20158024  0.20380541  0.26584029  1
  Ta  Ta110  1  0.50790078  0.50230967  0.36433533  1
  Ta  Ta111  1  0.69193769  0.90316867  0.87152304  1
  Ta  Ta112  1  0.59140787  0.00956811  0.76094049  1
  Ta  Ta113  1  0.90275279  0.70145211  0.64404711  1
  Ta  Ta114  1  0.89908296  0.90037176  0.62984265  1
  Ta  Ta115  1  -0.00018097  0.80280755  0.25954856  1
  Ta  Ta116  1  0.59049118  0.19916958  0.75286164  1
  Ta  Ta117  1  -0.00049732  0.19469300  0.00771690  1
  Ta  Ta118  1  0.80091900  0.19157317  0.00862292  1
  Ta  Ta119  1  0.80649195  0.80780222  0.76223832  1
  Ti  Ti120  1  0.50473686  0.49547804  0.13253544  1
  Ti  Ti121  1  0.59284910  0.40045637  -0.00286161  1
  Ti  Ti122  1  0.70265714  0.29397867  0.13255499  1
  Ti  Ti123  1  0.89942112  0.30458768  0.63192534  1
  Ti  Ti124  1  0.21458899  0.58571470  0.73854682  1
  Ti  Ti125  1  0.19170421  0.40760389  0.51179443  1
  Ti  Ti126  1  0.50387293  0.49214652  0.85905765  1
  Ti  Ti127  1  0.69485882  0.49457191  0.85880821  1
  Ti  Ti128  1  0.10491119  0.69181779  0.85084018  1
  Ti  Ti129  1  0.29003755  0.10957991  0.11914798  1
  Ti  Ti130  1  0.09123781  0.11094965  0.86005701  1
  Ti  Ti131  1  0.08899383  0.30615031  0.63316201  1
  Ti  Ti132  1  0.89503212  0.09906794  0.13452350  1
  Ti  Ti133  1  0.11190311  0.70080958  0.37124905  1
  Ti  Ti134  1  0.89853716  0.30289996  0.36503955  1
  Ti  Ti135  1  0.49385702  0.09405768  0.62953400  1
  Ti  Ti136  1  0.69683846  0.09541575  0.13248579  1
  Ti  Ti137  1  0.69432229  0.30037545  0.86403188  1
  Ti  Ti138  1  0.80307255  0.39378198  0.75782402  1
  Ti  Ti139  1  0.21308937  0.80244493  0.49564625  1
  Ti  Ti140  1  0.89057845  0.09243756  0.61859299  1
  Ti  Ti141  1  0.90074540  0.10967652  0.87240367  1
  Ti  Ti142  1  -0.00722442  0.00038173  0.74756832  1
  Ti  Ti143  1  0.40675860  0.80001712  0.49319960  1
  Ti  Ti144  1  0.10019119  0.10570977  0.37483273  1
  Ti  Ti145  1  0.09888295  0.29100067  0.85769787  1
  Ti  Ti146  1  0.50071991  0.30462219  0.87171629  1
  Ti  Ti147  1  0.80542133  0.60525596  0.76384206  1
  Ti  Ti148  1  0.09963122  0.10065524  0.63356213  1
  Ti  Ti149  1  0.41858894  0.60545145  0.51307950  1
  Ti  Ti150  1  0.10118641  0.31068324  0.36569471  1
  Ti  Ti151  1  0.20223117  0.60569187  0.50779073  1
  Ti  Ti152  1  0.69780083  0.11257049  0.87105650  1
  Ti  Ti153  1  0.79823688  0.60273018  -0.01394170  1
  Ti  Ti154  1  0.02465195  0.61083407  -0.00554623  1
  Ti  Ti155  1  0.39681365  0.40515344  0.75202221  1
  Ti  Ti156  1  -0.00287747  0.19772026  0.25796288  1
  Ti  Ti157  1  0.69673329  0.70435399  0.86562860  1
  Ti  Ti158  1  0.49958258  0.29653641  0.12125736  1
  Ti  Ti159  1  0.40104168  0.59445226  0.74787907  1
  Mo  Mo160  1  0.58983902  0.39103791  0.75544625  1
  Mo  Mo161  1  0.90809626  0.50426808  0.38924971  1
  Mo  Mo162  1  0.38967470  0.80020426  0.75925071  1
  Mo  Mo163  1  0.01013411  0.59945395  0.74695530  1
  Mo  Mo164  1  0.79717925  -0.00267039  0.48643971  1
  Mo  Mo165  1  0.70040560  0.89488954  0.37721565  1
  Mo  Mo166  1  0.30033229  0.69789531  0.40110366  1
  Mo  Mo167  1  0.42348634  0.40289427  -0.00296500  1
  Mo  Mo168  1  0.49645438  0.29474934  0.38240728  1
  Mo  Mo169  1  0.49420673  0.10610986  0.85856975  1
  Mo  Mo170  1  0.29678839  0.69251709  0.10499453  1
  Mo  Mo171  1  0.49647860  0.88979748  0.36316113  1
  Mo  Mo172  1  0.60140133  0.80379422  0.76545486  1
  Mo  Mo173  1  0.50032579  0.69269277  0.64639860  1
  Mo  Mo174  1  0.29951039  0.30400935  0.60443694  1
  Mo  Mo175  1  0.89564904  0.90876676  0.86882848  1
  Mo  Mo176  1  0.39581944  0.19105367  0.49065315  1
  Mo  Mo177  1  0.00496776  0.39244290  0.74896970  1
  Mo  Mo178  1  0.19473796  0.79975888  0.26775060  1
  Mo  Mo179  1  0.60797014  0.59499630  0.24565605  1
  Mo  Mo180  1  0.01419452  0.60917712  0.25553432  1
  Mo  Mo181  1  0.38636448  0.00248100  0.22749768  1
  Mo  Mo182  1  0.30259327  0.89901900  0.61082696  1
  Mo  Mo183  1  0.80323792  0.39444839  0.25259438  1
  Mo  Mo184  1  0.00278466  0.80536528  0.73273146  1
  Mo  Mo185  1  0.19493391  0.40766958  0.01002852  1
  Mo  Mo186  1  0.20031949  0.40374608  0.25591246  1
  Mo  Mo187  1  0.39494587  0.00161144  0.73634408  1
  Mo  Mo188  1  0.60381656  -0.00339061  0.26135665  1
  Mo  Mo189  1  0.20244199  0.00726707  0.49183839  1
  Mo  Mo190  1  0.60018474  0.59559603  0.76348120  1
  Mo  Mo191  1  0.00551876  0.79951322  0.00909210  1
  Mo  Mo192  1  0.69694580  0.09232342  0.37623294  1
  Mo  Mo193  1  0.40403600  0.59169912  0.24536636  1
  Mo  Mo194  1  0.18581146  0.19855240  0.74121177  1
  Mo  Mo195  1  0.10881522  0.49951099  0.62121981  1
  Mo  Mo196  1  0.29185456  0.10109422  0.39308058  1
  Mo  Mo197  1  0.30756319  0.50317212  0.87266076  1
  Mo  Mo198  1  0.41137700  0.41072801  0.49279793  1
  Mo  Mo199  1  0.28831517  0.89762272  0.88690159  1
