# generated using pymatgen
data_HfZrTaTiMo
_symmetry_space_group_name_H-M   'P 1'
_cell_length_a   15.84578742
_cell_length_b   15.83366257
_cell_length_c   15.37075669
_cell_angle_alpha   89.98935374
_cell_angle_beta   90.07219154
_cell_angle_gamma   89.78714948
_symmetry_Int_Tables_number   1
_chemical_formula_structural   HfZrTaTiMo
_chemical_formula_sum   'Hf40 Zr40 Ta40 Ti40 Mo40'
_cell_volume   3856.44471119
_cell_formula_units_Z   40
loop_
 _symmetry_equiv_pos_site_id
 _symmetry_equiv_pos_as_xyz
  1  'x, y, z'
loop_
 _atom_site_type_symbol
 _atom_site_label
 _atom_site_symmetry_multiplicity
 _atom_site_fract_x
 _atom_site_fract_y
 _atom_site_fract_z
 _atom_site_occupancy
  Hf  Hf0  1  0.40457354  0.39723686  0.75326127  1
  Hf  Hf1  1  0.69530432  0.50508298  0.37930291  1
  Hf  Hf2  1  0.88479781  0.09279392  0.10501931  1
  Hf  Hf3  1  0.81133134  0.00700172  0.75190670  1
  Hf  Hf4  1  0.30137682  0.50783198  0.38301304  1
  Hf  Hf5  1  0.19660560  0.00484850  0.74131095  1
  Hf  Hf6  1  0.60898277  0.79593022  0.50053900  1
  Hf  Hf7  1  0.59209233  0.59800310  0.74289840  1
  Hf  Hf8  1  0.30759126  0.70063532  0.38518457  1
  Hf  Hf9  1  -0.00310251  0.80418141  0.74406636  1
  Hf  Hf10  1  -0.00607788  0.80309823  0.51649886  1
  Hf  Hf11  1  0.50428584  0.09798784  0.36020858  1
  Hf  Hf12  1  -0.00147008  0.20647120  -0.00580196  1
  Hf  Hf13  1  0.39332798  0.20029858  -0.00698263  1
  Hf  Hf14  1  0.49474838  0.71051155  0.87694036  1
  Hf  Hf15  1  0.30062715  0.50108331  0.61498037  1
  Hf  Hf16  1  0.00279088  -0.00441064  0.24471407  1
  Hf  Hf17  1  0.30020730  0.09266737  0.36330679  1
  Hf  Hf18  1  0.40900810  0.19044936  0.49774997  1
  Hf  Hf19  1  0.01240455  0.40007928  0.74788647  1
  Hf  Hf20  1  -0.00601784  0.19153561  0.24674835  1
  Hf  Hf21  1  0.50574615  0.69403936  0.37614324  1
  Hf  Hf22  1  0.61795011  -0.00291825  0.23227965  1
  Hf  Hf23  1  0.30592329  0.29925404  0.62493276  1
  Hf  Hf24  1  -0.00106219  0.00253215  -0.01388880  1
  Hf  Hf25  1  0.60127440  0.40316924  0.24955700  1
  Hf  Hf26  1  0.79722765  0.80231051  0.26251770  1
  Hf  Hf27  1  0.09785524  0.89277196  0.11285039  1
  Hf  Hf28  1  0.19883814  0.39406177  0.49842500  1
  Hf  Hf29  1  0.09088055  0.29743440  0.37805632  1
  Hf  Hf30  1  0.39915467  0.40329738  0.25477915  1
  Hf  Hf31  1  0.09073828  0.49085736  0.13219153  1
  Hf  Hf32  1  0.00768388  0.39375884  -0.00894526  1
  Hf  Hf33  1  0.69321939  0.70305260  0.86790544  1
  Hf  Hf34  1  0.51203713  0.28411244  0.62613700  1
  Hf  Hf35  1  0.19376334  0.58842983  0.00908686  1
  Hf  Hf36  1  0.70454132  0.90517936  0.63147751  1
  Hf  Hf37  1  0.50161955  0.30002321  0.12512968  1
  Hf  Hf38  1  0.89889965  0.88975480  0.11220118  1
  Hf  Hf39  1  0.89809685  0.49901986  0.62925171  1
  Zr  Zr40  1  0.39775572  0.80529610  0.01330463  1
  Zr  Zr41  1  0.28586812  0.49461485  0.86606470  1
  Zr  Zr42  1  0.70376894  0.70349979  0.12245511  1
  Zr  Zr43  1  0.50360286  0.10736299  0.13047513  1
  Zr  Zr44  1  0.29081945  0.70081049  0.86318056  1
  Zr  Zr45  1  0.79625344  0.20739174  -0.01493275  1
  Zr  Zr46  1  0.59346261  0.81736187  0.01510854  1
  Zr  Zr47  1  0.78994704  0.61202183  0.50052929  1
  Zr  Zr48  1  0.31050453  0.89907757  0.86175443  1
  Zr  Zr49  1  0.19467532  0.80891492  0.50649872  1
  Zr  Zr50  1  0.39880650  0.60093065  0.74394870  1
  Zr  Zr51  1  0.31889580  0.88972783  0.62960098  1
  Zr  Zr52  1  0.71796945  0.49512847  0.11923329  1
  Zr  Zr53  1  0.19365584  0.20851606  0.74752909  1
  Zr  Zr54  1  0.80778024  -0.00147016  0.26286267  1
  Zr  Zr55  1  0.19378815  0.60165184  0.24747447  1
  Zr  Zr56  1  0.59991868  0.38904851  0.49867116  1
  Zr  Zr57  1  0.60164062  0.39914509  0.75879437  1
  Zr  Zr58  1  0.80023633  0.39485337  0.49773643  1
  Zr  Zr59  1  0.10682370  0.89503376  0.87495055  1
  Zr  Zr60  1  0.49966210  0.50193276  0.89306564  1
  Zr  Zr61  1  0.41024863  -0.00194594  0.00715728  1
  Zr  Zr62  1  0.29631810  0.90987761  0.37191902  1
  Zr  Zr63  1  0.48508115  0.71020206  0.60796051  1
  Zr  Zr64  1  0.29187673  0.91094439  0.14074326  1
  Zr  Zr65  1  0.79990570  0.18746705  0.25475177  1
  Zr  Zr66  1  0.08982988  0.68685861  0.87603273  1
  Zr  Zr67  1  0.29374850  0.70129660  0.13830081  1
  Zr  Zr68  1  0.09805850  0.69009143  0.39447868  1
  Zr  Zr69  1  0.09830053  0.08855407  0.38622202  1
  Zr  Zr70  1  0.79210284  0.81128181  -0.01719872  1
  Zr  Zr71  1  0.19743449  0.20993016  -0.00366621  1
  Zr  Zr72  1  0.80624481  0.59472396  0.25597332  1
  Zr  Zr73  1  0.69250305  0.11103388  0.62409035  1
  Zr  Zr74  1  0.08875785  0.49652748  0.38184787  1
  Zr  Zr75  1  0.39481726  0.59826806  0.00995018  1
  Zr  Zr76  1  0.60827247  0.39138619  -0.00177385  1
  Zr  Zr77  1  0.90265772  0.68935094  0.10019392  1
  Zr  Zr78  1  0.80319628  0.80821494  0.49507306  1
  Zr  Zr79  1  0.50089759  0.90402637  0.37458650  1
  Ta  Ta80  1  0.79813212  0.59600286  0.75554530  1
  Ta  Ta81  1  0.89820900  0.69625696  0.87073144  1
  Ta  Ta82  1  0.80820643  0.39769467  -0.01665726  1
  Ta  Ta83  1  0.70054833  0.29310780  0.36266337  1
  Ta  Ta84  1  0.50151934  0.69938393  0.14036408  1
  Ta  Ta85  1  0.61505391  0.00179774  0.00812817  1
  Ta  Ta86  1  0.89661912  0.29831668  0.63456571  1
  Ta  Ta87  1  0.70501473  0.29184586  0.13828731  1
  Ta  Ta88  1  -0.00754205  0.59900125  0.24148807  1
  Ta  Ta89  1  0.31144450  0.10194152  0.63597393  1
  Ta  Ta90  1  0.58618796  0.81196715  0.73849142  1
  Ta  Ta91  1  0.70054673  0.70335083  0.64312081  1
  Ta  Ta92  1  0.09747860  0.30139722  0.14029018  1
  Ta  Ta93  1  0.29331579  0.69612763  0.61301593  1
  Ta  Ta94  1  0.38366199  0.39401469  0.00535395  1
  Ta  Ta95  1  0.10157429  0.10407867  0.87223325  1
  Ta  Ta96  1  0.49730149  0.50949698  0.38338397  1
  Ta  Ta97  1  0.70896742  0.30175669  0.64156486  1
  Ta  Ta98  1  0.19509950  0.19836868  0.25185906  1
  Ta  Ta99  1  0.80149992  0.20096356  0.49747870  1
  Ta  Ta100  1  0.80448107  0.19935863  0.75897326  1
  Ta  Ta101  1  -0.00806199  0.19612508  0.50967856  1
  Ta  Ta102  1  0.20157717  0.19188223  0.50749255  1
  Ta  Ta103  1  0.69893465  0.49992852  0.62865045  1
  Ta  Ta104  1  0.29651456  0.10368331  0.13793990  1
  Ta  Ta105  1  0.89357650  0.69973056  0.64135086  1
  Ta  Ta106  1  0.29873047  0.29269559  0.37460809  1
  Ta  Ta107  1  -0.00157978  0.79244106  0.25701802  1
  Ta  Ta108  1  0.18550502  0.80364960  0.25811346  1
  Ta  Ta109  1  0.90988085  0.49717328  0.38705831  1
  Ta  Ta110  1  0.90930612  0.50942636  0.87358233  1
  Ta  Ta111  1  0.90264073  0.30356862  0.37157549  1
  Ta  Ta112  1  0.50614100  0.09419529  0.87163860  1
  Ta  Ta113  1  0.90705927  0.69309946  0.38128464  1
  Ta  Ta114  1  0.30608236  0.09753938  0.86139827  1
  Ta  Ta115  1  0.40447816  0.80174043  0.25196687  1
  Ta  Ta116  1  0.60141398  0.60128728  0.24586042  1
  Ta  Ta117  1  0.09531875  0.30009069  0.61678943  1
  Ta  Ta118  1  0.69499119  0.09814076  0.39250680  1
  Ta  Ta119  1  -0.00251838  0.18962488  0.74361624  1
  Ti  Ti120  1  0.89964646  0.89917146  0.87029645  1
  Ti  Ti121  1  0.50676400  0.90714173  0.86722174  1
  Ti  Ti122  1  0.09763696  0.90557575  0.62909953  1
  Ti  Ti123  1  -0.00571615  0.00311900  0.52211184  1
  Ti  Ti124  1  0.08855207  0.70496724  0.11409625  1
  Ti  Ti125  1  0.90260286  0.30494252  0.85703482  1
  Ti  Ti126  1  0.09903243  0.90306906  0.37904558  1
  Ti  Ti127  1  0.50504030  0.29341265  0.36894673  1
  Ti  Ti128  1  0.10554018  0.49188141  0.87147226  1
  Ti  Ti129  1  0.91282293  0.90539064  0.38197933  1
  Ti  Ti130  1  0.19755084  0.39499889  0.25993049  1
  Ti  Ti131  1  0.29700080  0.49212546  0.13389755  1
  Ti  Ti132  1  0.42148530  -0.00172635  0.73871449  1
  Ti  Ti133  1  0.40502468  0.00097273  0.51435786  1
  Ti  Ti134  1  0.19638327  0.79243560  0.73459976  1
  Ti  Ti135  1  0.09401376  0.50513796  0.60817942  1
  Ti  Ti136  1  0.70091897  0.09472115  0.87544626  1
  Ti  Ti137  1  0.18266956  0.59472637  0.73196218  1
  Ti  Ti138  1  0.60393827  0.60217759  0.00792917  1
  Ti  Ti139  1  -0.00155674  0.00890298  0.74425025  1
  Ti  Ti140  1  0.60590771  0.19815958  -0.00807427  1
  Ti  Ti141  1  0.50123549  0.50082031  0.60400990  1
  Ti  Ti142  1  0.58818144  0.00993726  0.51618653  1
  Ti  Ti143  1  0.20223570  0.79610078  -0.00079716  1
  Ti  Ti144  1  0.10692389  0.09670959  0.11973229  1
  Ti  Ti145  1  0.20324255  0.00700750  0.52102947  1
  Ti  Ti146  1  0.39663455  0.20505209  0.25019937  1
  Ti  Ti147  1  0.29085857  0.30152554  0.13380828  1
  Ti  Ti148  1  0.20870583  0.00860654  -0.00754702  1
  Ti  Ti149  1  0.69212012  0.90630221  0.85724610  1
  Ti  Ti150  1  0.70736026  0.49975204  0.87484292  1
  Ti  Ti151  1  0.81279087  0.00518893  0.50645616  1
  Ti  Ti152  1  0.49687252  0.50362278  0.12529450  1
  Ti  Ti153  1  0.28501681  0.30966486  0.86872421  1
  Ti  Ti154  1  0.89503726  0.31834667  0.13646865  1
  Ti  Ti155  1  0.60237146  0.19663518  0.76701953  1
  Ti  Ti156  1  0.40462115  0.39237655  0.48994470  1
  Ti  Ti157  1  0.69504590  0.90823164  0.38494573  1
  Ti  Ti158  1  0.49896354  0.29661412  0.88293913  1
  Ti  Ti159  1  0.40581508  0.19814616  0.75995449  1
  Mo  Mo160  1  0.40172264  0.59613683  0.50586803  1
  Mo  Mo161  1  0.70156410  0.29886679  0.86067132  1
  Mo  Mo162  1  0.50619293  0.90516757  0.61569371  1
  Mo  Mo163  1  0.79629693  0.80103059  0.75748570  1
  Mo  Mo164  1  0.60220493  0.00452036  0.75229323  1
  Mo  Mo165  1  0.79727878  0.59453442  -0.02510722  1
  Mo  Mo166  1  0.90019837  0.09728400  0.39753350  1
  Mo  Mo167  1  0.71229024  0.90756447  0.12322273  1
  Mo  Mo168  1  -0.00525648  0.39247903  0.51482632  1
  Mo  Mo169  1  0.40826613  0.59401962  0.24240100  1
  Mo  Mo170  1  0.50488530  0.89652972  0.14570631  1
  Mo  Mo171  1  0.10147797  0.09963631  0.61884597  1
  Mo  Mo172  1  0.79581451  -0.00026708  -0.02519679  1
  Mo  Mo173  1  0.20264852  0.39406486  0.01249262  1
  Mo  Mo174  1  0.19568350  0.59951693  0.51136026  1
  Mo  Mo175  1  -0.01054172  0.40131385  0.24689754  1
  Mo  Mo176  1  0.80556442  0.39665249  0.26052223  1
  Mo  Mo177  1  0.89996155  0.49484341  0.10401187  1
  Mo  Mo178  1  0.50015738  0.10226490  0.64111168  1
  Mo  Mo179  1  0.90616329  0.10148187  0.87485654  1
  Mo  Mo180  1  0.40292949  0.00175666  0.23657424  1
  Mo  Mo181  1  0.60379583  0.19838110  0.48911185  1
  Mo  Mo182  1  0.19652011  0.40591179  0.72962030  1
  Mo  Mo183  1  0.60388097  0.20047647  0.25842608  1
  Mo  Mo184  1  0.69690528  0.70472252  0.36190328  1
  Mo  Mo185  1  0.09576236  0.69336810  0.62624712  1
  Mo  Mo186  1  0.70187235  0.10735458  0.10660715  1
  Mo  Mo187  1  -0.00980342  0.60144022  0.51798502  1
  Mo  Mo188  1  0.18734259  0.00444949  0.24265815  1
  Mo  Mo189  1  0.60687733  0.80121321  0.25234493  1
  Mo  Mo190  1  0.00069679  0.79797789  -0.02147506  1
  Mo  Mo191  1  0.10178483  0.30395363  0.86057321  1
  Mo  Mo192  1  0.60295388  0.59769851  0.51393455  1
  Mo  Mo193  1  0.89786962  0.10321256  0.61811678  1
  Mo  Mo194  1  -0.00124889  0.59064173  0.00343695  1
  Mo  Mo195  1  0.00042018  0.59908898  0.73769684  1
  Mo  Mo196  1  0.80315406  0.40173044  0.76262734  1
  Mo  Mo197  1  0.40331183  0.80336881  0.75367906  1
  Mo  Mo198  1  0.40133171  0.80479376  0.47988588  1
  Mo  Mo199  1  0.90060490  0.90422357  0.63482144  1
