# generated using pymatgen
data_HfZrTaTiMo
_symmetry_space_group_name_H-M   'P 1'
_cell_length_a   15.82949078
_cell_length_b   15.83868448
_cell_length_c   15.41133662
_cell_angle_alpha   89.98847506
_cell_angle_beta   90.01832148
_cell_angle_gamma   89.98603028
_symmetry_Int_Tables_number   1
_chemical_formula_structural   HfZrTaTiMo
_chemical_formula_sum   'Hf40 Zr40 Ta40 Ti40 Mo40'
_cell_volume   3863.90388339
_cell_formula_units_Z   40
loop_
 _symmetry_equiv_pos_site_id
 _symmetry_equiv_pos_as_xyz
  1  'x, y, z'
loop_
 _atom_site_type_symbol
 _atom_site_label
 _atom_site_symmetry_multiplicity
 _atom_site_fract_x
 _atom_site_fract_y
 _atom_site_fract_z
 _atom_site_occupancy
  Hf  Hf0  1  0.49846048  0.28917182  0.86172845  1
  Hf  Hf1  1  0.41914380  0.59038434  0.47879481  1
  Hf  Hf2  1  0.59896053  0.80814420  0.24572124  1
  Hf  Hf3  1  0.30408899  0.70035517  0.60489446  1
  Hf  Hf4  1  0.60065356  0.41633948  0.49087304  1
  Hf  Hf5  1  0.80623503  0.40263967  0.25713786  1
  Hf  Hf6  1  0.18962901  0.80502558  0.23946204  1
  Hf  Hf7  1  0.09324733  0.30870693  0.61429000  1
  Hf  Hf8  1  0.49855591  0.29152241  0.14250829  1
  Hf  Hf9  1  0.40140686  0.79893619  0.24269858  1
  Hf  Hf10  1  0.69855618  0.69829665  0.11745969  1
  Hf  Hf11  1  0.29875513  0.70084587  0.37369414  1
  Hf  Hf12  1  0.39838530  0.00092735  0.24014248  1
  Hf  Hf13  1  0.40315701  0.39170219  0.49173133  1
  Hf  Hf14  1  0.89853766  0.09686874  0.12840530  1
  Hf  Hf15  1  0.60047394  0.59664984  0.26173976  1
  Hf  Hf16  1  0.20626254  0.20112816  0.25981468  1
  Hf  Hf17  1  0.00037101  0.19262129  0.50275708  1
  Hf  Hf18  1  0.39045142  0.01319013  -0.00109005  1
  Hf  Hf19  1  0.09750281  0.69256190  0.61920100  1
  Hf  Hf20  1  0.39011686  0.80385317  0.76107502  1
  Hf  Hf21  1  0.08867552  0.09474660  0.13619539  1
  Hf  Hf22  1  0.49209226  0.10213255  0.86044221  1
  Hf  Hf23  1  0.18517846  0.00150842  0.00053281  1
  Hf  Hf24  1  0.90404080  0.70760039  0.37705755  1
  Hf  Hf25  1  0.37954870  0.20107592  0.72520952  1
  Hf  Hf26  1  0.30444698  0.09963768  0.37959129  1
  Hf  Hf27  1  0.90299192  0.30311499  0.11555195  1
  Hf  Hf28  1  0.10705276  0.30305615  0.12634869  1
  Hf  Hf29  1  0.29525213  0.90159451  0.37818212  1
  Hf  Hf30  1  0.00706490  0.19430666  -0.01635859  1
  Hf  Hf31  1  0.80153913  0.19747956  0.51594501  1
  Hf  Hf32  1  0.69515598  0.10298392  0.37887189  1
  Hf  Hf33  1  0.50818647  0.50931229  0.63014013  1
  Hf  Hf34  1  0.50017440  0.28483369  0.35971969  1
  Hf  Hf35  1  0.29131770  0.50047522  0.60843837  1
  Hf  Hf36  1  0.89199811  0.68623496  0.62684118  1
  Hf  Hf37  1  0.19477038  0.80053962  -0.00215165  1
  Hf  Hf38  1  0.60266679  -0.00062527  0.51152995  1
  Hf  Hf39  1  0.92785521  0.90247926  0.13675355  1
  Zr  Zr40  1  0.29845123  0.68931466  0.12682537  1
  Zr  Zr41  1  0.71201199  0.49032738  0.88498138  1
  Zr  Zr42  1  0.29305099  0.28769821  0.88596652  1
  Zr  Zr43  1  0.80436400  0.80089878  0.24200372  1
  Zr  Zr44  1  0.79975320  0.20049105  0.25562954  1
  Zr  Zr45  1  -0.00322206  0.80207381  -0.02081027  1
  Zr  Zr46  1  0.39044132  0.60358370  -0.00525787  1
  Zr  Zr47  1  0.38993179  0.60465137  0.75838805  1
  Zr  Zr48  1  -0.00607473  0.79599883  0.75468391  1
  Zr  Zr49  1  0.50027560  0.70999326  0.87831553  1
  Zr  Zr50  1  0.79809209  0.81061183  0.51151400  1
  Zr  Zr51  1  0.62221569  0.61415046  0.76397316  1
  Zr  Zr52  1  0.50407777  0.09746587  0.64679100  1
  Zr  Zr53  1  0.69865644  0.70358496  0.38006212  1
  Zr  Zr54  1  0.28450604  0.49078625  0.88470673  1
  Zr  Zr55  1  0.19635663  0.81265334  0.74905943  1
  Zr  Zr56  1  0.70107048  0.28920355  0.12155585  1
  Zr  Zr57  1  0.70764951  0.29107043  0.88628660  1
  Zr  Zr58  1  0.59495920  0.20939808  0.52168265  1
  Zr  Zr59  1  0.20035971  0.60269493  0.74685452  1
  Zr  Zr60  1  0.59578811  0.39611765  0.00569448  1
  Zr  Zr61  1  0.00197631  0.81039152  0.51142173  1
  Zr  Zr62  1  0.61481669  0.38325013  0.72906731  1
  Zr  Zr63  1  0.70915722  0.49371339  0.11955784  1
  Zr  Zr64  1  0.50584906  0.70373286  0.62642380  1
  Zr  Zr65  1  0.07461643  0.69595233  0.12480962  1
  Zr  Zr66  1  0.77069999  0.79911714  0.75531598  1
  Zr  Zr67  1  0.39055511  0.39726978  0.73490565  1
  Zr  Zr68  1  0.61546819  -0.02023729  0.75743144  1
  Zr  Zr69  1  0.79392283  0.20759677  0.73537627  1
  Zr  Zr70  1  0.82493244  0.60472686  -0.00156587  1
  Zr  Zr71  1  0.39888814  -0.00270810  0.51602182  1
  Zr  Zr72  1  0.48696323  0.50618787  0.14387928  1
  Zr  Zr73  1  0.70886021  0.91260449  0.11143721  1
  Zr  Zr74  1  0.39904628  0.39555284  0.00594547  1
  Zr  Zr75  1  0.01110522  0.41224942  0.00101892  1
  Zr  Zr76  1  0.60159339  0.00465479  -0.01272019  1
  Zr  Zr77  1  0.81551830  0.40060492  0.73242967  1
  Zr  Zr78  1  0.80789933  0.80377237  -0.00809249  1
  Zr  Zr79  1  0.50373660  0.49390886  0.86476420  1
  Ta  Ta80  1  0.38204741  -0.00968685  0.74593454  1
  Ta  Ta81  1  0.10263128  0.70624420  0.37830850  1
  Ta  Ta82  1  0.00536540  0.40205869  0.25963499  1
  Ta  Ta83  1  0.50181457  0.90623851  0.37119188  1
  Ta  Ta84  1  0.50110980  0.10462712  0.13143071  1
  Ta  Ta85  1  0.09986484  0.29891882  0.38308150  1
  Ta  Ta86  1  -0.00459918  0.58846864  0.75734524  1
  Ta  Ta87  1  0.39674083  0.20078249  0.51045362  1
  Ta  Ta88  1  0.19987867  0.19371334  0.49940044  1
  Ta  Ta89  1  0.90262463  0.10156539  0.85729893  1
  Ta  Ta90  1  0.80202958  0.40122774  0.50394838  1
  Ta  Ta91  1  0.60154775  0.00252136  0.24593595  1
  Ta  Ta92  1  0.00069278  0.39520999  0.75739333  1
  Ta  Ta93  1  0.28548784  0.48754280  0.13775032  1
  Ta  Ta94  1  0.90264992  0.49682025  0.38063855  1
  Ta  Ta95  1  0.10155680  0.49435428  0.86851875  1
  Ta  Ta96  1  0.79803135  0.59286836  0.49185195  1
  Ta  Ta97  1  0.00115466  0.59872966  0.26715640  1
  Ta  Ta98  1  0.88610852  0.91895052  0.85957466  1
  Ta  Ta99  1  -0.00010213  0.20417056  0.26545215  1
  Ta  Ta100  1  0.18996349  -0.00192142  0.51843208  1
  Ta  Ta101  1  0.90351934  0.30131188  0.38854867  1
  Ta  Ta102  1  0.29782050  0.90305784  0.11751839  1
  Ta  Ta103  1  0.79845621  0.00105939  0.25365078  1
  Ta  Ta104  1  0.90019020  0.09486740  0.37764376  1
  Ta  Ta105  1  0.70135200  0.30170411  0.38191434  1
  Ta  Ta106  1  0.30203931  0.50044143  0.36209026  1
  Ta  Ta107  1  0.90130096  0.91034246  0.37334829  1
  Ta  Ta108  1  0.49965629  0.90028736  0.11175175  1
  Ta  Ta109  1  0.30243143  0.28977839  0.12216327  1
  Ta  Ta110  1  0.10285307  0.10505278  0.64105124  1
  Ta  Ta111  1  0.80668752  0.59728394  0.25353618  1
  Ta  Ta112  1  0.10091319  0.68758902  0.87823773  1
  Ta  Ta113  1  0.00614245  0.59238962  0.48859839  1
  Ta  Ta114  1  0.59277513  0.80712657  0.49306737  1
  Ta  Ta115  1  0.59980398  0.60270027  -0.00224147  1
  Ta  Ta116  1  0.19835390  -0.00129110  0.24099477  1
  Ta  Ta117  1  0.70195007  0.90858094  0.37924533  1
  Ta  Ta118  1  -0.00130011  0.00104954  0.51090416  1
  Ta  Ta119  1  0.19691443  0.81062643  0.50714240  1
  Ti  Ti120  1  0.80583313  0.59862811  0.76131004  1
  Ti  Ti121  1  0.70060680  0.10140634  0.12071311  1
  Ti  Ti122  1  0.01147369  -0.00623925  0.74731799  1
  Ti  Ti123  1  0.40426665  0.80655533  0.49718240  1
  Ti  Ti124  1  0.80220848  0.00372674  0.51749711  1
  Ti  Ti125  1  0.50037426  0.09921129  0.36732110  1
  Ti  Ti126  1  0.50367164  0.88859489  0.63839867  1
  Ti  Ti127  1  -0.00241070  0.21523078  0.75459650  1
  Ti  Ti128  1  0.71517978  0.09112245  0.86738319  1
  Ti  Ti129  1  0.90711848  0.09826665  0.64297354  1
  Ti  Ti130  1  0.50057613  0.70353004  0.11667853  1
  Ti  Ti131  1  0.20697952  0.18769954  0.00931724  1
  Ti  Ti132  1  0.80911565  0.19042444  -0.00881873  1
  Ti  Ti133  1  0.18160402  0.58336996  0.01182617  1
  Ti  Ti134  1  0.60728522  0.40044670  0.26080920  1
  Ti  Ti135  1  0.90581940  0.49218491  0.87873211  1
  Ti  Ti136  1  0.10989061  0.30108186  0.87724337  1
  Ti  Ti137  1  0.09417975  0.90513187  0.37191258  1
  Ti  Ti138  1  0.19573055  0.39163887  0.74410712  1
  Ti  Ti139  1  0.09885740  0.09162409  0.37516053  1
  Ti  Ti140  1  0.60156372  0.80759675  -0.01608901  1
  Ti  Ti141  1  0.09737621  0.49638385  0.62395302  1
  Ti  Ti142  1  0.28868679  0.10385892  0.85986277  1
  Ti  Ti143  1  -0.00153015  -0.00125419  -0.01916732  1
  Ti  Ti144  1  0.91483518  0.49462411  0.61101913  1
  Ti  Ti145  1  0.70700710  0.51409969  0.61839921  1
  Ti  Ti146  1  0.10801403  0.10046359  0.85251817  1
  Ti  Ti147  1  0.19853281  0.39482335  0.26300207  1
  Ti  Ti148  1  0.68941505  0.69984177  0.60977115  1
  Ti  Ti149  1  0.89428016  0.90599802  0.64098562  1
  Ti  Ti150  1  0.39628088  0.80844682  -0.00630105  1
  Ti  Ti151  1  0.28988826  0.90906942  0.88033804  1
  Ti  Ti152  1  0.19534640  0.40580199  0.47999888  1
  Ti  Ti153  1  0.19284301  0.59474510  0.25310765  1
  Ti  Ti154  1  0.19442958  0.59660830  0.48552408  1
  Ti  Ti155  1  0.38711452  0.38922620  0.26031517  1
  Ti  Ti156  1  0.28371879  0.30166019  0.60750874  1
  Ti  Ti157  1  0.50019417  0.70481701  0.37209362  1
  Ti  Ti158  1  0.59089336  0.19291516  -0.00162251  1
  Ti  Ti159  1  0.91886339  0.51214648  0.12958998  1
  Mo  Mo160  1  0.90883657  0.30682566  0.61118964  1
  Mo  Mo161  1  0.70395002  0.90502614  0.89053877  1
  Mo  Mo162  1  0.70331079  0.30800811  0.60575082  1
  Mo  Mo163  1  0.81511847  0.01087449  -0.00516237  1
  Mo  Mo164  1  0.81461398  0.39577356  0.00499888  1
  Mo  Mo165  1  0.70135368  0.69933289  0.89571162  1
  Mo  Mo166  1  0.39653454  0.19579158  0.24923378  1
  Mo  Mo167  1  0.80393705  0.00241252  0.73583303  1
  Mo  Mo168  1  0.19900229  0.39600304  0.01220369  1
  Mo  Mo169  1  0.60354120  0.19060630  0.25025148  1
  Mo  Mo170  1  0.60414489  0.19610139  0.74120199  1
  Mo  Mo171  1  0.59697839  0.80151530  0.76266475  1
  Mo  Mo172  1  0.39849123  0.59797119  0.25944454  1
  Mo  Mo173  1  0.00480334  0.40486250  0.48698838  1
  Mo  Mo174  1  0.29650201  0.29864414  0.38834926  1
  Mo  Mo175  1  0.10582376  0.50199929  0.36445264  1
  Mo  Mo176  1  0.90505585  0.30044839  0.88875285  1
  Mo  Mo177  1  0.09576991  0.91072418  0.86348608  1
  Mo  Mo178  1  0.90234496  0.69555899  0.14361228  1
  Mo  Mo179  1  0.29678615  0.10290088  0.13126739  1
  Mo  Mo180  1  0.29152070  0.09973840  0.62064325  1
  Mo  Mo181  1  0.00443525  0.80200324  0.26874493  1
  Mo  Mo182  1  0.50051667  0.49222021  0.35491642  1
  Mo  Mo183  1  0.89960504  0.69471462  0.85495669  1
  Mo  Mo184  1  0.19028564  0.20817434  0.73988813  1
  Mo  Mo185  1  0.09509140  0.90567080  0.63229113  1
  Mo  Mo186  1  0.49654080  0.30327205  0.62816990  1
  Mo  Mo187  1  0.70572302  0.09593295  0.63197752  1
  Mo  Mo188  1  0.20245720  0.00505684  0.74341880  1
  Mo  Mo189  1  0.48865284  0.90370331  0.88042648  1
  Mo  Mo190  1  0.09899003  0.90435055  0.13103536  1
  Mo  Mo191  1  0.10184404  0.49969617  0.14710739  1
  Mo  Mo192  1  0.69243334  0.89452105  0.61172334  1
  Mo  Mo193  1  0.60589588  0.60478657  0.48674398  1
  Mo  Mo194  1  0.00360875  0.59904356  -0.01533891  1
  Mo  Mo195  1  0.30080976  0.89715236  0.61570428  1
  Mo  Mo196  1  0.00198726  0.00474379  0.27162375  1
  Mo  Mo197  1  0.28818606  0.70236674  0.89670612  1
  Mo  Mo198  1  0.70778219  0.49744330  0.37416893  1
  Mo  Mo199  1  0.40088275  0.19369015  0.00974101  1
