# generated using pymatgen
data_HfZrTaTiMo
_symmetry_space_group_name_H-M   'P 1'
_cell_length_a   15.84242820
_cell_length_b   15.83501070
_cell_length_c   15.41864616
_cell_angle_alpha   89.94182526
_cell_angle_beta   89.88076827
_cell_angle_gamma   89.84002216
_symmetry_Int_Tables_number   1
_chemical_formula_structural   HfZrTaTiMo
_chemical_formula_sum   'Hf40 Zr40 Ta40 Ti40 Mo40'
_cell_volume   3867.97355376
_cell_formula_units_Z   40
loop_
 _symmetry_equiv_pos_site_id
 _symmetry_equiv_pos_as_xyz
  1  'x, y, z'
loop_
 _atom_site_type_symbol
 _atom_site_label
 _atom_site_symmetry_multiplicity
 _atom_site_fract_x
 _atom_site_fract_y
 _atom_site_fract_z
 _atom_site_occupancy
  Hf  Hf0  1  0.70592311  0.71193881  0.37742469  1
  Hf  Hf1  1  0.20101827  0.39675411  0.74147706  1
  Hf  Hf2  1  0.90349234  0.49173612  0.88448621  1
  Hf  Hf3  1  0.08811738  0.69926422  0.13786344  1
  Hf  Hf4  1  0.59088631  -0.01545734  -0.01159747  1
  Hf  Hf5  1  0.39490422  0.80073516  0.52573264  1
  Hf  Hf6  1  0.19652541  0.79895476  0.50755563  1
  Hf  Hf7  1  0.80026312  0.40358554  0.74476137  1
  Hf  Hf8  1  0.29639494  0.49725829  0.36771584  1
  Hf  Hf9  1  0.78870454  0.78813626  0.00841121  1
  Hf  Hf10  1  0.30566838  0.50301474  0.87848034  1
  Hf  Hf11  1  0.00335848  0.59450601  0.49127170  1
  Hf  Hf12  1  0.49967367  0.90313002  0.37266563  1
  Hf  Hf13  1  0.19584244  0.19963700  0.76339724  1
  Hf  Hf14  1  0.29716932  0.89576981  0.86311818  1
  Hf  Hf15  1  0.59604293  0.80932981  0.51334973  1
  Hf  Hf16  1  0.80118759  0.39930692  0.26346607  1
  Hf  Hf17  1  0.80358812  -0.00550477  0.75606663  1
  Hf  Hf18  1  0.29697028  0.09681927  0.63021864  1
  Hf  Hf19  1  0.60393039  0.00456294  0.25042758  1
  Hf  Hf20  1  0.19938228  0.80552405  0.23829762  1
  Hf  Hf21  1  0.39809346  0.59688944  0.49715259  1
  Hf  Hf22  1  0.59678691  0.21104664  0.75970061  1
  Hf  Hf23  1  0.60354036  0.58738241  0.48405402  1
  Hf  Hf24  1  0.61026236  0.18306737  -0.01303731  1
  Hf  Hf25  1  0.79595838  0.19278520  0.26647029  1
  Hf  Hf26  1  -0.00365703  0.60369505  0.00763515  1
  Hf  Hf27  1  0.09756244  0.09804859  0.63382869  1
  Hf  Hf28  1  0.29685352  0.69825463  0.36481603  1
  Hf  Hf29  1  0.19606930  0.19308605  0.24417222  1
  Hf  Hf30  1  0.30365792  0.90694541  0.11975384  1
  Hf  Hf31  1  0.91216156  0.28667429  0.89284685  1
  Hf  Hf32  1  0.39545165  0.20476704  0.76810603  1
  Hf  Hf33  1  0.90412583  0.90224995  0.37453025  1
  Hf  Hf34  1  0.09682704  0.29713636  0.38054256  1
  Hf  Hf35  1  0.09449156  0.30360168  0.89032928  1
  Hf  Hf36  1  0.80980385  0.79714373  0.73685012  1
  Hf  Hf37  1  0.49842777  0.50576512  0.12204514  1
  Hf  Hf38  1  0.59696730  0.59431948  0.26615578  1
  Hf  Hf39  1  0.69532633  0.70766651  0.15060168  1
  Zr  Zr40  1  0.58567785  0.41802732  0.75931055  1
  Zr  Zr41  1  0.61023015  0.20812224  0.48784299  1
  Zr  Zr42  1  0.09900122  0.50639110  0.86920921  1
  Zr  Zr43  1  0.49904159  0.67319657  0.63788215  1
  Zr  Zr44  1  0.70569008  0.52682888  0.88318224  1
  Zr  Zr45  1  0.88674475  0.69102915  0.87985811  1
  Zr  Zr46  1  0.30197774  0.09808364  0.12284146  1
  Zr  Zr47  1  0.91489039  0.88918219  0.89218016  1
  Zr  Zr48  1  0.89747715  0.10219770  0.11064018  1
  Zr  Zr49  1  0.90268068  0.30321032  0.11943339  1
  Zr  Zr50  1  0.49433088  0.70884552  0.36883817  1
  Zr  Zr51  1  0.91428844  0.09841483  0.38290372  1
  Zr  Zr52  1  0.78788898  0.00779907  -0.01649796  1
  Zr  Zr53  1  0.08863046  0.70872921  0.62418819  1
  Zr  Zr54  1  0.18857597  0.80838560  0.00362848  1
  Zr  Zr55  1  0.49614495  0.29728276  0.11567680  1
  Zr  Zr56  1  0.79230541  0.00523950  0.50073580  1
  Zr  Zr57  1  0.71228673  0.30128605  0.87600847  1
  Zr  Zr58  1  0.70345041  0.50953777  0.13021011  1
  Zr  Zr59  1  0.78072650  0.40028506  0.48014225  1
  Zr  Zr60  1  0.31999784  0.69489924  0.85193337  1
  Zr  Zr61  1  0.30507562  0.09786148  0.37675158  1
  Zr  Zr62  1  0.49784351  0.11595292  0.62462824  1
  Zr  Zr63  1  -0.00176915  0.39570973  0.73052937  1
  Zr  Zr64  1  0.32256049  0.49468181  0.62685712  1
  Zr  Zr65  1  0.20480485  0.61409769  0.00560654  1
  Zr  Zr66  1  0.08904428  0.71361561  0.86410938  1
  Zr  Zr67  1  0.70069750  0.29256898  0.12463809  1
  Zr  Zr68  1  -0.01162388  0.59936890  0.73454108  1
  Zr  Zr69  1  0.30819337  0.29225254  0.61028015  1
  Zr  Zr70  1  0.19872809  -0.00834827  0.50237914  1
  Zr  Zr71  1  0.70885141  0.11874223  0.63741841  1
  Zr  Zr72  1  0.19140178  0.41215730  0.01394867  1
  Zr  Zr73  1  0.60193514  0.40779752  -0.00543112  1
  Zr  Zr74  1  0.41829794  0.79924685  -0.00617104  1
  Zr  Zr75  1  0.60377379  0.79887008  0.73413598  1
  Zr  Zr76  1  0.88775593  0.28769290  0.61282634  1
  Zr  Zr77  1  0.30457973  0.90070217  0.36851942  1
  Zr  Zr78  1  0.30157791  0.29809409  0.38109021  1
  Zr  Zr79  1  0.31309317  0.50249701  0.12518955  1
  Ta  Ta80  1  0.39919180  0.19024179  -0.00966390  1
  Ta  Ta81  1  0.40600640  -0.00618332  0.51766208  1
  Ta  Ta82  1  0.90300854  0.50646365  0.13450854  1
  Ta  Ta83  1  0.09548650  0.29131167  0.61223559  1
  Ta  Ta84  1  0.29745273  0.30441214  0.89638109  1
  Ta  Ta85  1  0.01095393  0.00372762  0.23497262  1
  Ta  Ta86  1  0.50102853  0.70089057  0.13647250  1
  Ta  Ta87  1  0.40435471  0.39555691  0.76570071  1
  Ta  Ta88  1  0.40258099  -0.00019675  0.75638517  1
  Ta  Ta89  1  0.08287853  0.10334835  0.87648014  1
  Ta  Ta90  1  0.19913117  0.59844280  0.50983306  1
  Ta  Ta91  1  0.90757158  0.09890981  0.61590047  1
  Ta  Ta92  1  0.80510095  0.80851248  0.50472391  1
  Ta  Ta93  1  0.00480190  0.19650727  0.24168659  1
  Ta  Ta94  1  0.90360223  0.70397976  0.37776489  1
  Ta  Ta95  1  0.88528211  0.50574106  0.60219793  1
  Ta  Ta96  1  -0.00566865  0.80469018  0.24737206  1
  Ta  Ta97  1  0.19666956  0.39530095  0.24010170  1
  Ta  Ta98  1  0.49520085  0.10002151  0.38315729  1
  Ta  Ta99  1  0.59325303  0.19574518  0.25834701  1
  Ta  Ta100  1  0.69311957  0.88245947  0.87141018  1
  Ta  Ta101  1  0.19087947  0.41005546  0.50786823  1
  Ta  Ta102  1  0.09858204  0.70068536  0.36791074  1
  Ta  Ta103  1  0.30254536  0.29928988  0.11251890  1
  Ta  Ta104  1  0.90000416  0.89904395  0.12232074  1
  Ta  Ta105  1  0.10128999  0.49885069  0.36574391  1
  Ta  Ta106  1  0.19808269  0.59679141  0.24325177  1
  Ta  Ta107  1  0.09842539  0.90186535  0.36244009  1
  Ta  Ta108  1  0.60013056  0.00037678  0.75410109  1
  Ta  Ta109  1  0.20274188  0.59693850  0.72880971  1
  Ta  Ta110  1  0.09805976  0.29795983  0.12121892  1
  Ta  Ta111  1  0.70888935  0.69053954  0.60775436  1
  Ta  Ta112  1  0.29523042  0.90097746  0.64877564  1
  Ta  Ta113  1  0.80533802  0.40712402  0.00758587  1
  Ta  Ta114  1  0.59839060  0.00451877  0.50543305  1
  Ta  Ta115  1  0.19755185  0.00510555  -0.01594271  1
  Ta  Ta116  1  -0.01090039  0.00495624  0.75207438  1
  Ta  Ta117  1  0.59668032  0.39229432  0.26475203  1
  Ta  Ta118  1  0.69116656  0.50314156  0.62058060  1
  Ta  Ta119  1  0.40023727  -0.00081090  -0.01817411  1
  Ti  Ti120  1  0.49366846  0.52204644  0.89143480  1
  Ti  Ti121  1  0.82206909  0.18284071  0.77122415  1
  Ti  Ti122  1  -0.00162828  0.40108001  0.50133670  1
  Ti  Ti123  1  0.68471391  0.31437430  0.62631794  1
  Ti  Ti124  1  0.40574653  0.19875211  0.24319919  1
  Ti  Ti125  1  0.89342512  0.69628901  0.14241067  1
  Ti  Ti126  1  0.00498907  -0.01375866  0.50982124  1
  Ti  Ti127  1  0.70047752  0.09963834  0.12653958  1
  Ti  Ti128  1  0.49966377  0.09497048  0.87074952  1
  Ti  Ti129  1  0.50136243  0.09470097  0.11760796  1
  Ti  Ti130  1  0.19486546  0.19463153  0.49864915  1
  Ti  Ti131  1  0.90974411  0.29603315  0.38121453  1
  Ti  Ti132  1  0.01562638  -0.00666842  0.01079616  1
  Ti  Ti133  1  0.49174336  0.29605997  0.38247990  1
  Ti  Ti134  1  0.40338211  0.80259674  0.24052005  1
  Ti  Ti135  1  0.49391679  0.31632516  0.60980012  1
  Ti  Ti136  1  0.79416546  0.60270967  0.73584989  1
  Ti  Ti137  1  0.70304053  0.90587756  0.62584852  1
  Ti  Ti138  1  0.08955887  0.50035024  0.14183064  1
  Ti  Ti139  1  0.80953207  0.59341665  0.27527597  1
  Ti  Ti140  1  0.39972990  0.39097560  0.24997103  1
  Ti  Ti141  1  0.51510040  0.70162564  0.86054808  1
  Ti  Ti142  1  0.09086309  0.90072422  0.64512924  1
  Ti  Ti143  1  0.50810361  0.89426459  0.13210028  1
  Ti  Ti144  1  0.80212458  0.00038506  0.24914495  1
  Ti  Ti145  1  0.69829686  0.90469104  0.37522500  1
  Ti  Ti146  1  0.40467554  0.00501270  0.24407368  1
  Ti  Ti147  1  -0.00161497  0.39963736  0.25718744  1
  Ti  Ti148  1  0.19874651  0.79392717  0.74159448  1
  Ti  Ti149  1  0.49437682  0.30579973  0.89312338  1
  Ti  Ti150  1  0.80098692  0.81254330  0.25232656  1
  Ti  Ti151  1  0.69722480  0.90128274  0.12541467  1
  Ti  Ti152  1  0.09856678  0.09431254  0.37853008  1
  Ti  Ti153  1  0.09688552  0.90457804  0.85780530  1
  Ti  Ti154  1  0.19609001  0.19147694  0.00045449  1
  Ti  Ti155  1  0.79566789  0.19919203  0.48033178  1
  Ti  Ti156  1  0.31312637  0.69561092  0.12987776  1
  Ti  Ti157  1  0.60403579  0.63099442  0.00265453  1
  Ti  Ti158  1  0.48965909  0.48824101  0.37268551  1
  Ti  Ti159  1  0.90122409  0.70648418  0.60327036  1
  Mo  Mo160  1  0.79957532  0.60121155  0.02076679  1
  Mo  Mo161  1  0.80175452  0.60361420  0.49148926  1
  Mo  Mo162  1  0.69862340  0.70211985  0.86891299  1
  Mo  Mo163  1  0.49827127  0.89538738  0.85569357  1
  Mo  Mo164  1  0.00322331  0.80360181  0.48293348  1
  Mo  Mo165  1  0.69429567  0.09122084  0.36809936  1
  Mo  Mo166  1  0.69368596  0.29503677  0.35984867  1
  Mo  Mo167  1  -0.00697892  0.80203483  0.02567163  1
  Mo  Mo168  1  0.40335919  0.19386625  0.50150820  1
  Mo  Mo169  1  0.10530282  0.09774724  0.11410326  1
  Mo  Mo170  1  -0.00107877  0.40472652  0.01898533  1
  Mo  Mo171  1  0.49828413  0.91130999  0.63546315  1
  Mo  Mo172  1  0.39878983  0.39709340  0.48322168  1
  Mo  Mo173  1  0.40365900  0.79825513  0.74261191  1
  Mo  Mo174  1  0.90798431  0.90016761  0.61515059  1
  Mo  Mo175  1  0.00919606  0.19274594  0.01728371  1
  Mo  Mo176  1  0.10046107  0.90620660  0.13462109  1
  Mo  Mo177  1  0.41243927  0.61140173  0.00085153  1
  Mo  Mo178  1  -0.00413601  0.59813980  0.26488451  1
  Mo  Mo179  1  0.50977083  0.48145856  0.61168832  1
  Mo  Mo180  1  0.79933377  0.19760039  -0.01060698  1
  Mo  Mo181  1  0.61090887  0.59965387  0.74775765  1
  Mo  Mo182  1  0.19608826  0.00208562  0.25574619  1
  Mo  Mo183  1  -0.00805889  0.80931023  0.74290289  1
  Mo  Mo184  1  0.60296003  0.80962784  0.25026548  1
  Mo  Mo185  1  0.19353773  -0.00115937  0.76503142  1
  Mo  Mo186  1  0.40061241  0.39998587  -0.00964445  1
  Mo  Mo187  1  -0.00228991  0.19617573  0.74125950  1
  Mo  Mo188  1  0.09752167  0.49638345  0.61923888  1
  Mo  Mo189  1  0.69914805  0.09433601  0.85865937  1
  Mo  Mo190  1  0.00458636  0.19535462  0.50164147  1
  Mo  Mo191  1  0.29795677  0.69702127  0.63704104  1
  Mo  Mo192  1  0.90649725  0.49661859  0.38017604  1
  Mo  Mo193  1  0.69943213  0.50055437  0.36440915  1
  Mo  Mo194  1  0.90808468  0.09434451  0.88882046  1
  Mo  Mo195  1  0.60178099  0.80123612  0.00308218  1
  Mo  Mo196  1  0.41623848  0.58032662  0.75171865  1
  Mo  Mo197  1  0.29572397  0.09985071  0.88090980  1
  Mo  Mo198  1  0.59199407  0.40002904  0.48460912  1
  Mo  Mo199  1  0.39858278  0.59964454  0.25304623  1
