# generated using pymatgen
data_HfZrTaTiMo
_symmetry_space_group_name_H-M   'P 1'
_cell_length_a   15.83405052
_cell_length_b   15.83428437
_cell_length_c   15.40941075
_cell_angle_alpha   90.05903722
_cell_angle_beta   89.97477136
_cell_angle_gamma   90.07403046
_symmetry_Int_Tables_number   1
_chemical_formula_structural   HfZrTaTiMo
_chemical_formula_sum   'Hf40 Zr40 Ta40 Ti40 Mo40'
_cell_volume   3863.45504602
_cell_formula_units_Z   40
loop_
 _symmetry_equiv_pos_site_id
 _symmetry_equiv_pos_as_xyz
  1  'x, y, z'
loop_
 _atom_site_type_symbol
 _atom_site_label
 _atom_site_symmetry_multiplicity
 _atom_site_fract_x
 _atom_site_fract_y
 _atom_site_fract_z
 _atom_site_occupancy
  Hf  Hf0  1  -0.00388407  -0.00067280  0.73871152  1
  Hf  Hf1  1  0.30406550  0.69942733  0.86371710  1
  Hf  Hf2  1  0.69019760  0.69020347  0.13414835  1
  Hf  Hf3  1  0.01643461  0.40377693  0.50464806  1
  Hf  Hf4  1  0.20017607  0.79547992  0.73570743  1
  Hf  Hf5  1  0.10091747  0.30754077  0.35284166  1
  Hf  Hf6  1  0.10947257  0.30826557  0.88248423  1
  Hf  Hf7  1  0.20794121  0.19780434  0.76134263  1
  Hf  Hf8  1  0.11024612  0.30825743  0.12704019  1
  Hf  Hf9  1  0.09692050  0.09371766  0.87953649  1
  Hf  Hf10  1  0.70203386  0.48107107  0.15384913  1
  Hf  Hf11  1  0.89387775  0.29919030  0.62240724  1
  Hf  Hf12  1  0.40176382  -0.00030790  0.74630974  1
  Hf  Hf13  1  0.59029294  0.60363566  0.49838552  1
  Hf  Hf14  1  0.89590286  0.10392471  0.38394277  1
  Hf  Hf15  1  0.39647046  0.39713523  -0.00008831  1
  Hf  Hf16  1  0.49475924  0.29756710  0.86715986  1
  Hf  Hf17  1  0.22074168  0.19785142  0.00211214  1
  Hf  Hf18  1  0.60677459  0.01459654  0.74009374  1
  Hf  Hf19  1  -0.00264286  0.60915906  0.24149136  1
  Hf  Hf20  1  0.09699086  0.88977482  0.38390854  1
  Hf  Hf21  1  0.70119251  0.10708315  0.37860934  1
  Hf  Hf22  1  0.78289632  0.80184627  0.01113886  1
  Hf  Hf23  1  0.89951141  0.09691263  0.11659346  1
  Hf  Hf24  1  0.70145391  0.71866707  0.62142250  1
  Hf  Hf25  1  0.70196734  0.88868079  0.84868367  1
  Hf  Hf26  1  0.30698181  0.30833653  0.35535548  1
  Hf  Hf27  1  0.79067827  0.18895218  0.74155234  1
  Hf  Hf28  1  0.09457833  0.10486106  0.37716376  1
  Hf  Hf29  1  0.31215843  0.30130628  0.14287925  1
  Hf  Hf30  1  0.90732027  0.70637206  0.39522196  1
  Hf  Hf31  1  0.78243934  0.58642925  -0.00868833  1
  Hf  Hf32  1  0.39247890  0.00035814  -0.00375162  1
  Hf  Hf33  1  0.69717793  0.49442292  0.61536183  1
  Hf  Hf34  1  0.49177393  0.70478606  0.12515539  1
  Hf  Hf35  1  0.89875943  0.50259300  0.61087804  1
  Hf  Hf36  1  0.59384239  0.20255954  0.01447701  1
  Hf  Hf37  1  0.59898836  -0.00711328  -0.00397035  1
  Hf  Hf38  1  0.89177155  0.29684412  0.87918771  1
  Hf  Hf39  1  0.59269051  0.60211639  0.73680462  1
  Zr  Zr40  1  0.68842868  0.09012107  0.13206772  1
  Zr  Zr41  1  0.10075806  0.10354249  0.62388110  1
  Zr  Zr42  1  0.59006604  0.79931211  0.27246932  1
  Zr  Zr43  1  0.89807848  0.89955140  0.38558215  1
  Zr  Zr44  1  0.90919900  0.49704088  0.37396111  1
  Zr  Zr45  1  0.00318269  0.80325213  0.00862915  1
  Zr  Zr46  1  0.79504081  0.80034652  0.25250010  1
  Zr  Zr47  1  0.00057689  0.40398053  0.74975167  1
  Zr  Zr48  1  0.90084107  0.29591147  0.36773393  1
  Zr  Zr49  1  0.49944046  0.89209390  0.86503694  1
  Zr  Zr50  1  0.79818222  0.60139081  0.74845811  1
  Zr  Zr51  1  0.11209458  0.30709136  0.63619986  1
  Zr  Zr52  1  0.79410143  -0.00424345  -0.00022096  1
  Zr  Zr53  1  0.30954056  0.10054457  0.61567391  1
  Zr  Zr54  1  0.21032132  0.81095108  -0.01349867  1
  Zr  Zr55  1  0.21264716  -0.00392621  0.26378812  1
  Zr  Zr56  1  0.39261931  0.61011652  0.26214559  1
  Zr  Zr57  1  0.11462056  0.50822949  0.35900706  1
  Zr  Zr58  1  0.11392602  0.90179473  0.12963618  1
  Zr  Zr59  1  0.89983979  0.49655107  0.88365224  1
  Zr  Zr60  1  0.31694323  0.30908565  0.64021079  1
  Zr  Zr61  1  0.89680703  0.70598700  0.88119914  1
  Zr  Zr62  1  0.09932667  0.69986314  0.38866126  1
  Zr  Zr63  1  0.90256205  0.89968222  0.86437562  1
  Zr  Zr64  1  0.20681902  0.21321164  0.49301633  1
  Zr  Zr65  1  0.20686189  0.59990094  0.00281850  1
  Zr  Zr66  1  0.00345414  0.60680155  0.73704418  1
  Zr  Zr67  1  0.77718268  -0.00986623  0.51304594  1
  Zr  Zr68  1  0.20786550  -0.00505572  0.49745362  1
  Zr  Zr69  1  0.50500017  0.90348765  0.60732292  1
  Zr  Zr70  1  0.50125199  0.89987374  0.12927779  1
  Zr  Zr71  1  0.89416523  0.49770565  0.12676120  1
  Zr  Zr72  1  0.10692909  0.49780918  0.12737745  1
  Zr  Zr73  1  0.59731055  0.59722648  -0.00930886  1
  Zr  Zr74  1  -0.00210758  0.20180458  0.00548343  1
  Zr  Zr75  1  0.39963914  0.60137545  0.72614044  1
  Zr  Zr76  1  0.61328734  0.39899811  -0.00325099  1
  Zr  Zr77  1  -0.00200500  -0.00055538  0.24732703  1
  Zr  Zr78  1  0.50009818  0.49733626  0.14135375  1
  Zr  Zr79  1  0.29995477  0.48992342  0.86195282  1
  Ta  Ta80  1  0.10856890  0.70234575  0.12887181  1
  Ta  Ta81  1  0.30072375  0.70769100  0.12848029  1
  Ta  Ta82  1  0.31155341  0.89566832  0.13882966  1
  Ta  Ta83  1  -0.00412149  -0.00351753  0.51282307  1
  Ta  Ta84  1  0.69694161  0.29824201  0.86458984  1
  Ta  Ta85  1  0.29286054  0.69378685  0.39464386  1
  Ta  Ta86  1  0.59670762  0.39836886  0.74587286  1
  Ta  Ta87  1  0.59066845  0.39000651  0.49127942  1
  Ta  Ta88  1  0.89438035  0.10344008  0.61240135  1
  Ta  Ta89  1  0.39976877  0.79665923  0.72430027  1
  Ta  Ta90  1  0.21181324  0.41115021  0.49226835  1
  Ta  Ta91  1  0.59800956  0.60517543  0.27725920  1
  Ta  Ta92  1  0.41342722  0.21318170  0.49182767  1
  Ta  Ta93  1  0.69507547  0.30019762  0.62184416  1
  Ta  Ta94  1  0.20713246  0.79646257  0.51920719  1
  Ta  Ta95  1  0.10372383  0.50397748  0.87990353  1
  Ta  Ta96  1  0.09857065  0.69819788  0.87162273  1
  Ta  Ta97  1  0.20663778  0.18836694  0.24194540  1
  Ta  Ta98  1  0.49242555  0.49755860  0.37706807  1
  Ta  Ta99  1  0.49796185  0.50070169  0.86611299  1
  Ta  Ta100  1  0.69663634  0.49507156  0.37907972  1
  Ta  Ta101  1  0.39931910  0.40006409  0.49210967  1
  Ta  Ta102  1  0.20635592  -0.00821327  0.75221009  1
  Ta  Ta103  1  0.59589900  -0.00409325  0.26917684  1
  Ta  Ta104  1  0.79125609  0.39196832  0.48986272  1
  Ta  Ta105  1  0.49721266  0.70038269  0.87139298  1
  Ta  Ta106  1  0.79536001  0.60336516  0.49280381  1
  Ta  Ta107  1  -0.00707282  0.19545983  0.75416386  1
  Ta  Ta108  1  0.50599154  0.10458985  0.60195698  1
  Ta  Ta109  1  0.79518907  0.60423072  0.26964711  1
  Ta  Ta110  1  0.88949070  0.31291029  0.13137420  1
  Ta  Ta111  1  0.11166437  0.09670209  0.11727873  1
  Ta  Ta112  1  0.39959767  0.60001361  0.00133292  1
  Ta  Ta113  1  0.89447772  0.69587256  0.11908064  1
  Ta  Ta114  1  0.00103818  0.19865466  0.23234180  1
  Ta  Ta115  1  0.89268876  0.09952921  0.87980174  1
  Ta  Ta116  1  0.79818564  0.20015513  0.23559722  1
  Ta  Ta117  1  0.78578600  0.21408262  0.01310311  1
  Ta  Ta118  1  -0.00124219  0.79844793  0.23891735  1
  Ta  Ta119  1  0.61391182  0.81641638  0.48446939  1
  Ti  Ti120  1  0.69919070  0.10754809  0.88239331  1
  Ti  Ti121  1  0.31124612  0.10208762  0.86998098  1
  Ti  Ti122  1  0.00117476  0.20421002  0.50604117  1
  Ti  Ti123  1  0.20997268  0.79118403  0.26086442  1
  Ti  Ti124  1  0.88642104  0.88624632  0.62332240  1
  Ti  Ti125  1  0.29246141  0.48881124  0.63421496  1
  Ti  Ti126  1  0.50463423  0.10428451  0.87649445  1
  Ti  Ti127  1  -0.00054616  0.40270550  0.00395878  1
  Ti  Ti128  1  0.59667706  0.19700043  0.24779370  1
  Ti  Ti129  1  0.00404861  -0.00641692  -0.00027018  1
  Ti  Ti130  1  0.31602521  0.88559616  0.38662650  1
  Ti  Ti131  1  0.00333140  0.60443374  0.00429135  1
  Ti  Ti132  1  0.19363806  0.59437980  0.52213820  1
  Ti  Ti133  1  0.89588179  0.89880703  0.12669954  1
  Ti  Ti134  1  0.50014757  0.29827207  0.35744724  1
  Ti  Ti135  1  0.60457112  0.20775513  0.49803286  1
  Ti  Ti136  1  0.79194531  0.40104136  0.75256891  1
  Ti  Ti137  1  0.79339422  -0.00371438  0.24949818  1
  Ti  Ti138  1  0.59786832  0.79812269  -0.00203484  1
  Ti  Ti139  1  0.31237637  0.10750883  0.37715353  1
  Ti  Ti140  1  0.41312489  0.19586196  0.74396937  1
  Ti  Ti141  1  0.49994735  0.10121813  0.38324796  1
  Ti  Ti142  1  0.69928411  0.29922786  0.36252016  1
  Ti  Ti143  1  0.50359487  0.30634442  0.14826357  1
  Ti  Ti144  1  0.29849097  0.49653562  0.13796709  1
  Ti  Ti145  1  0.19262926  0.59816685  0.73616364  1
  Ti  Ti146  1  0.48460324  0.09933722  0.14004012  1
  Ti  Ti147  1  0.69085095  0.70504912  0.85866989  1
  Ti  Ti148  1  0.79779791  0.00337438  0.73538564  1
  Ti  Ti149  1  0.40366348  0.19659926  0.00775399  1
  Ti  Ti150  1  0.21135212  -0.00317346  -0.01009486  1
  Ti  Ti151  1  0.10083725  0.89577989  0.86504261  1
  Ti  Ti152  1  -0.00185144  0.79416827  0.73242517  1
  Ti  Ti153  1  0.49240398  0.48084030  0.62024997  1
  Ti  Ti154  1  0.59846338  0.20078454  0.73632047  1
  Ti  Ti155  1  0.09989383  0.89956983  0.62154279  1
  Ti  Ti156  1  0.48257274  0.71331237  0.39685501  1
  Ti  Ti157  1  0.40291070  -0.00271792  0.26566629  1
  Ti  Ti158  1  0.39664905  0.80205380  -0.00819730  1
  Ti  Ti159  1  0.38950384  0.59450402  0.51049788  1
  Mo  Mo160  1  0.79989817  0.39776690  0.27205681  1
  Mo  Mo161  1  0.39720321  0.79797895  0.50945596  1
  Mo  Mo162  1  0.59535082  0.00599175  0.48594562  1
  Mo  Mo163  1  0.79849684  0.80114711  0.50376568  1
  Mo  Mo164  1  0.80379197  0.79995746  0.73927648  1
  Mo  Mo165  1  0.69697105  0.90274256  0.63930372  1
  Mo  Mo166  1  0.49980951  0.70434847  0.60208162  1
  Mo  Mo167  1  0.69944109  0.90504024  0.36341554  1
  Mo  Mo168  1  0.79372020  0.20573418  0.50675722  1
  Mo  Mo169  1  0.69520950  0.29792748  0.14510678  1
  Mo  Mo170  1  0.59082212  0.79603188  0.74388111  1
  Mo  Mo171  1  0.30102178  0.90093932  0.62406268  1
  Mo  Mo172  1  0.89922847  0.70342680  0.60807128  1
  Mo  Mo173  1  0.30114044  0.90024196  0.85755087  1
  Mo  Mo174  1  0.20141491  0.40276194  0.76182755  1
  Mo  Mo175  1  0.70137774  0.69964396  0.38736080  1
  Mo  Mo176  1  0.30575609  0.09171413  0.13137065  1
  Mo  Mo177  1  0.69365520  0.49402412  0.85419742  1
  Mo  Mo178  1  0.40479190  0.40783668  0.25923050  1
  Mo  Mo179  1  0.00288536  0.80522366  0.52363260  1
  Mo  Mo180  1  0.49440425  0.90666187  0.38859213  1
  Mo  Mo181  1  0.69420971  0.89787989  0.14439110  1
  Mo  Mo182  1  0.00389255  0.59994633  0.51423849  1
  Mo  Mo183  1  0.40838288  0.39921899  0.75152157  1
  Mo  Mo184  1  -0.00055377  0.39780816  0.23575196  1
  Mo  Mo185  1  0.20568461  0.61053834  0.24132983  1
  Mo  Mo186  1  0.79215349  0.39187496  -0.00750812  1
  Mo  Mo187  1  0.10952881  0.49783389  0.62891837  1
  Mo  Mo188  1  0.69427469  0.10699902  0.60958555  1
  Mo  Mo189  1  0.40088914  0.00608082  0.48698523  1
  Mo  Mo190  1  0.30084715  0.50885476  0.38487648  1
  Mo  Mo191  1  0.29802626  0.69211165  0.61588873  1
  Mo  Mo192  1  0.39077351  0.80333821  0.26498450  1
  Mo  Mo193  1  0.50627331  0.29730247  0.62485462  1
  Mo  Mo194  1  0.09728424  0.69882029  0.61579908  1
  Mo  Mo195  1  0.40816095  0.18962020  0.25571015  1
  Mo  Mo196  1  0.20787722  0.39830235  -0.00967364  1
  Mo  Mo197  1  0.20816329  0.40712337  0.25646432  1
  Mo  Mo198  1  0.31073294  0.28906849  0.86958949  1
  Mo  Mo199  1  0.59828607  0.39850466  0.27245046  1
