# generated using pymatgen
data_HfZrTaTiMo
_symmetry_space_group_name_H-M   'P 1'
_cell_length_a   15.84668514
_cell_length_b   15.82772603
_cell_length_c   15.40932215
_cell_angle_alpha   89.97725327
_cell_angle_beta   89.97197797
_cell_angle_gamma   90.01258254
_symmetry_Int_Tables_number   1
_chemical_formula_structural   HfZrTaTiMo
_chemical_formula_sum   'Hf40 Zr40 Ta40 Ti40 Mo40'
_cell_volume   3864.91895215
_cell_formula_units_Z   40
loop_
 _symmetry_equiv_pos_site_id
 _symmetry_equiv_pos_as_xyz
  1  'x, y, z'
loop_
 _atom_site_type_symbol
 _atom_site_label
 _atom_site_symmetry_multiplicity
 _atom_site_fract_x
 _atom_site_fract_y
 _atom_site_fract_z
 _atom_site_occupancy
  Hf  Hf0  1  0.09329071  0.49988172  0.13245225  1
  Hf  Hf1  1  0.89609053  0.29757328  0.62639553  1
  Hf  Hf2  1  0.89069728  0.69907681  0.87275757  1
  Hf  Hf3  1  0.20363959  0.60058258  -0.00883736  1
  Hf  Hf4  1  0.80314089  0.60214654  0.49594452  1
  Hf  Hf5  1  0.29972829  0.70664153  0.62277113  1
  Hf  Hf6  1  0.69201818  0.09610757  0.35942523  1
  Hf  Hf7  1  0.48663046  0.50280003  0.88002020  1
  Hf  Hf8  1  0.08972095  0.70650247  0.12946861  1
  Hf  Hf9  1  0.81259398  0.40550709  0.00223056  1
  Hf  Hf10  1  0.57833699  0.00237947  0.49418013  1
  Hf  Hf11  1  0.37663192  0.39821942  0.00575592  1
  Hf  Hf12  1  -0.00605813  0.58927146  -0.00408998  1
  Hf  Hf13  1  0.09144605  0.11647107  0.88620511  1
  Hf  Hf14  1  0.90013186  0.49633286  0.63046743  1
  Hf  Hf15  1  0.30252933  0.29989131  0.61231424  1
  Hf  Hf16  1  0.29486923  0.49912011  0.61966171  1
  Hf  Hf17  1  0.42110191  0.40381187  0.26123062  1
  Hf  Hf18  1  -0.00421125  0.00063861  0.00095800  1
  Hf  Hf19  1  0.48581627  0.67950821  0.14706545  1
  Hf  Hf20  1  0.80287977  -0.00219302  0.00795102  1
  Hf  Hf21  1  0.80679278  0.19484063  0.00121441  1
  Hf  Hf22  1  0.80480342  0.80015755  0.49201561  1
  Hf  Hf23  1  0.70559186  0.29921446  0.61366478  1
  Hf  Hf24  1  0.20210547  0.80972984  -0.00420960  1
  Hf  Hf25  1  0.90725359  0.88421696  0.87844725  1
  Hf  Hf26  1  0.10749630  0.90844062  0.13178888  1
  Hf  Hf27  1  0.19074321  0.60067499  0.26817956  1
  Hf  Hf28  1  0.00841226  -0.01153592  0.75575947  1
  Hf  Hf29  1  0.50340332  0.88317345  0.87590432  1
  Hf  Hf30  1  -0.00589536  0.19723514  0.49089505  1
  Hf  Hf31  1  0.00352312  0.60663719  0.48311642  1
  Hf  Hf32  1  0.38667154  -0.01506793  0.00948902  1
  Hf  Hf33  1  0.08260677  0.71310169  0.87506403  1
  Hf  Hf34  1  0.12300904  0.10747271  0.37506936  1
  Hf  Hf35  1  0.00112268  0.41208809  0.49343303  1
  Hf  Hf36  1  0.30975128  0.69784617  0.85743172  1
  Hf  Hf37  1  0.69361709  0.11185843  0.14013934  1
  Hf  Hf38  1  0.70291095  0.09990484  0.62593459  1
  Hf  Hf39  1  0.60574496  0.57457545  0.26309044  1
  Zr  Zr40  1  0.50254393  0.09749363  0.13726968  1
  Zr  Zr41  1  0.89329794  0.50591803  0.36150179  1
  Zr  Zr42  1  0.18446329  0.80941178  0.75316601  1
  Zr  Zr43  1  0.49701194  0.09556504  0.88021005  1
  Zr  Zr44  1  0.61219570  0.19593637  0.76287622  1
  Zr  Zr45  1  0.09912034  0.09806703  0.61027330  1
  Zr  Zr46  1  -0.00291065  0.79965814  0.48353187  1
  Zr  Zr47  1  0.30470034  0.10674797  0.87497801  1
  Zr  Zr48  1  0.19965821  0.22734670  0.00134715  1
  Zr  Zr49  1  0.31476535  0.51942928  0.13584400  1
  Zr  Zr50  1  0.59187874  0.60710009  -0.00280473  1
  Zr  Zr51  1  0.70138858  0.90351313  0.61577363  1
  Zr  Zr52  1  0.51879865  0.48423456  0.11206186  1
  Zr  Zr53  1  0.90420076  0.70641666  0.63879296  1
  Zr  Zr54  1  0.78787882  0.59885815  0.74854435  1
  Zr  Zr55  1  0.09018410  0.11230663  0.12820870  1
  Zr  Zr56  1  0.60310910  0.40031318  0.47090547  1
  Zr  Zr57  1  0.50899769  0.71390919  0.37642403  1
  Zr  Zr58  1  0.60324414  0.40306726  0.75356091  1
  Zr  Zr59  1  0.28225477  0.09393206  0.13314565  1
  Zr  Zr60  1  0.90787594  0.30029227  0.13048192  1
  Zr  Zr61  1  0.69014610  0.89353361  0.37867467  1
  Zr  Zr62  1  0.19790485  0.20783998  0.74303458  1
  Zr  Zr63  1  0.77332356  0.40489124  0.25224743  1
  Zr  Zr64  1  0.38984872  0.20721336  0.24739880  1
  Zr  Zr65  1  0.60020391  0.60067868  0.74803830  1
  Zr  Zr66  1  0.19932463  0.00535034  0.75192920  1
  Zr  Zr67  1  0.30551990  0.70296587  0.37735667  1
  Zr  Zr68  1  0.50495588  0.89164618  0.12522768  1
  Zr  Zr69  1  0.29903857  0.48497938  0.39213836  1
  Zr  Zr70  1  0.29122987  0.27836155  0.39899435  1
  Zr  Zr71  1  0.89262245  0.09423688  0.63105012  1
  Zr  Zr72  1  0.50585619  0.29282113  0.11167810  1
  Zr  Zr73  1  0.49380600  0.29959613  0.88318158  1
  Zr  Zr74  1  0.20960645  0.38585559  0.24227259  1
  Zr  Zr75  1  0.50183840  0.29549225  0.61589470  1
  Zr  Zr76  1  0.23288546  0.00151136  0.50211310  1
  Zr  Zr77  1  0.79507228  -0.01228208  0.23555908  1
  Zr  Zr78  1  0.61169938  -0.00185663  -0.00290178  1
  Zr  Zr79  1  0.39813698  0.77852067  0.00790211  1
  Ta  Ta80  1  0.09965832  0.70158531  0.62327392  1
  Ta  Ta81  1  0.79728718  0.39805035  0.75797239  1
  Ta  Ta82  1  0.29681898  0.50050434  0.85898300  1
  Ta  Ta83  1  0.50182565  0.70672381  0.61663418  1
  Ta  Ta84  1  0.69597862  0.69571808  0.12525148  1
  Ta  Ta85  1  0.30879396  0.89902734  0.63880181  1
  Ta  Ta86  1  0.69829275  0.70806642  0.89030185  1
  Ta  Ta87  1  0.40240329  0.82157744  0.49929465  1
  Ta  Ta88  1  0.10862509  0.30469539  0.39039059  1
  Ta  Ta89  1  0.70305033  0.50172673  0.89058159  1
  Ta  Ta90  1  0.19056826  0.59888949  0.74802795  1
  Ta  Ta91  1  0.09911383  0.89640435  0.60469822  1
  Ta  Ta92  1  0.69198799  0.70536853  0.61083033  1
  Ta  Ta93  1  0.79649298  0.19636728  0.48251842  1
  Ta  Ta94  1  0.61004617  -0.00821799  0.76348583  1
  Ta  Ta95  1  0.68847337  0.31214944  0.11292810  1
  Ta  Ta96  1  0.89631615  0.09823878  0.36184740  1
  Ta  Ta97  1  0.00534864  0.00074494  0.25996575  1
  Ta  Ta98  1  0.50364915  0.89599582  0.63738844  1
  Ta  Ta99  1  0.40210898  0.60514416  0.50035776  1
  Ta  Ta100  1  0.00314244  0.20618367  0.74781233  1
  Ta  Ta101  1  0.40184805  0.16232435  0.50447093  1
  Ta  Ta102  1  0.50103530  0.50007543  0.60784739  1
  Ta  Ta103  1  0.30869338  0.89665267  0.85997792  1
  Ta  Ta104  1  0.79080340  0.80504903  0.74753739  1
  Ta  Ta105  1  0.19596400  0.80587558  0.26154357  1
  Ta  Ta106  1  0.91361574  0.88695657  0.13439608  1
  Ta  Ta107  1  0.70025027  0.49559157  0.60770382  1
  Ta  Ta108  1  0.80174411  0.59907877  0.01360086  1
  Ta  Ta109  1  0.60805563  0.80116349  0.23900819  1
  Ta  Ta110  1  0.18701330  0.59983123  0.49742770  1
  Ta  Ta111  1  0.90722903  0.29730211  0.86846236  1
  Ta  Ta112  1  0.89609337  0.10396717  0.86318763  1
  Ta  Ta113  1  0.48760546  0.91698377  0.35415815  1
  Ta  Ta114  1  0.00385888  0.20911492  0.27076057  1
  Ta  Ta115  1  0.29790401  0.31246328  0.85813785  1
  Ta  Ta116  1  0.59654546  0.19167739  0.48768717  1
  Ta  Ta117  1  0.09863778  0.30916822  0.61310209  1
  Ta  Ta118  1  0.00695657  0.40018867  0.26680337  1
  Ta  Ta119  1  0.10647183  0.90705571  0.37982984  1
  Ti  Ti120  1  0.00702215  0.59514869  0.75286806  1
  Ti  Ti121  1  0.61021953  0.19561005  -0.01215327  1
  Ti  Ti122  1  0.90456346  0.69630697  0.14024002  1
  Ti  Ti123  1  0.71078412  0.30025658  0.88180277  1
  Ti  Ti124  1  0.40257329  0.40202950  0.73991876  1
  Ti  Ti125  1  0.59815997  0.22827340  0.26910824  1
  Ti  Ti126  1  0.20282965  0.80108747  0.49144063  1
  Ti  Ti127  1  0.32187728  0.07730978  0.35631496  1
  Ti  Ti128  1  0.60764196  0.79630547  0.74854933  1
  Ti  Ti129  1  0.70399704  0.69770444  0.37043862  1
  Ti  Ti130  1  0.79325090  0.60045082  0.24054985  1
  Ti  Ti131  1  0.00819807  0.40222019  0.75321436  1
  Ti  Ti132  1  0.40344622  0.59754052  0.73217940  1
  Ti  Ti133  1  0.19901490  -0.00189056  -0.01437530  1
  Ti  Ti134  1  0.40118978  0.19976317  0.74333448  1
  Ti  Ti135  1  0.40681797  -0.00155861  0.74894907  1
  Ti  Ti136  1  0.09306038  0.30158335  0.12811725  1
  Ti  Ti137  1  0.79871358  0.79361512  0.24581999  1
  Ti  Ti138  1  -0.00825840  -0.00255983  0.48588111  1
  Ti  Ti139  1  0.79458610  -0.00397122  0.76547252  1
  Ti  Ti140  1  0.60157532  0.60445636  0.49366519  1
  Ti  Ti141  1  0.49837481  0.69952427  0.86436328  1
  Ti  Ti142  1  0.19153447  0.41008756  -0.00823339  1
  Ti  Ti143  1  0.90025147  0.89854207  0.35808640  1
  Ti  Ti144  1  0.90522104  0.10483910  0.14316565  1
  Ti  Ti145  1  0.90154440  0.90297147  0.62748587  1
  Ti  Ti146  1  0.89994007  0.49762590  0.86606632  1
  Ti  Ti147  1  0.50547806  0.09322829  0.63957335  1
  Ti  Ti148  1  0.80517089  0.00210223  0.48828978  1
  Ti  Ti149  1  0.38850919  0.20012639  0.00793695  1
  Ti  Ti150  1  0.18838812  0.40741802  0.74563228  1
  Ti  Ti151  1  0.90502961  0.50055890  0.13974771  1
  Ti  Ti152  1  0.48467389  0.29116281  0.39384100  1
  Ti  Ti153  1  0.89247720  0.30454336  0.37789586  1
  Ti  Ti154  1  0.79853423  0.21073573  0.25504728  1
  Ti  Ti155  1  0.39293558  0.80629279  0.24821188  1
  Ti  Ti156  1  0.70484283  0.88578605  0.88828412  1
  Ti  Ti157  1  0.80370943  0.79456044  0.01925317  1
  Ti  Ti158  1  0.29269680  0.70250627  0.14002037  1
  Ti  Ti159  1  0.01124302  0.39259066  -0.01630635  1
  Mo  Mo160  1  0.39050441  0.59716819  -0.01093835  1
  Mo  Mo161  1  0.60535384  0.79310716  0.01324469  1
  Mo  Mo162  1  0.09548088  0.50772809  0.63552764  1
  Mo  Mo163  1  0.39648878  -0.00682452  0.23002885  1
  Mo  Mo164  1  0.19184298  0.20313950  0.24496685  1
  Mo  Mo165  1  0.70999842  0.09650961  0.86966984  1
  Mo  Mo166  1  0.80429194  0.20332457  0.76004823  1
  Mo  Mo167  1  0.09888341  0.31271308  0.86545487  1
  Mo  Mo168  1  0.60897284  0.39462139  -0.02186670  1
  Mo  Mo169  1  0.59902896  0.39214455  0.26471970  1
  Mo  Mo170  1  -0.00425859  0.60231644  0.25589081  1
  Mo  Mo171  1  0.09997278  0.70591634  0.37418972  1
  Mo  Mo172  1  0.49441610  0.50817809  0.39260688  1
  Mo  Mo173  1  0.89385262  0.70490805  0.34880474  1
  Mo  Mo174  1  0.20138317  0.19687955  0.52003780  1
  Mo  Mo175  1  0.09817398  0.50321646  0.86567012  1
  Mo  Mo176  1  0.31606069  0.09794120  0.64331918  1
  Mo  Mo177  1  0.19201692  0.40545317  0.51168375  1
  Mo  Mo178  1  0.10112250  0.49732359  0.36657510  1
  Mo  Mo179  1  0.29633981  0.30393443  0.12444300  1
  Mo  Mo180  1  0.29429673  0.89120358  0.13974408  1
  Mo  Mo181  1  0.70596894  0.29519247  0.38456155  1
  Mo  Mo182  1  0.70233137  0.50905943  0.39053433  1
  Mo  Mo183  1  0.10002408  0.90375790  0.89273412  1
  Mo  Mo184  1  0.49844913  0.10256696  0.35767805  1
  Mo  Mo185  1  0.70431797  0.49851503  0.10907637  1
  Mo  Mo186  1  -0.00662105  0.20842524  -0.00866295  1
  Mo  Mo187  1  0.40796314  -0.00535768  0.51193946  1
  Mo  Mo188  1  0.59815502  -0.00615797  0.24775522  1
  Mo  Mo189  1  0.00029987  0.80338751  0.26207024  1
  Mo  Mo190  1  -0.00259536  0.80540104  0.73512719  1
  Mo  Mo191  1  0.59408448  0.80071800  0.49872195  1
  Mo  Mo192  1  0.20155863  -0.00332643  0.26362715  1
  Mo  Mo193  1  0.30408514  0.89876948  0.36375766  1
  Mo  Mo194  1  0.70767208  0.88808754  0.11821240  1
  Mo  Mo195  1  0.40326666  0.40160905  0.50192366  1
  Mo  Mo196  1  -0.00634934  0.79599375  0.01645264  1
  Mo  Mo197  1  0.80320813  0.39882635  0.49808126  1
  Mo  Mo198  1  0.40810746  0.79779602  0.74013860  1
  Mo  Mo199  1  0.40135801  0.59977824  0.27712578  1
