# generated using pymatgen
data_HfZrTaTiMo
_symmetry_space_group_name_H-M   'P 1'
_cell_length_a   15.83347115
_cell_length_b   15.84045324
_cell_length_c   15.39021887
_cell_angle_alpha   89.99549052
_cell_angle_beta   90.02810217
_cell_angle_gamma   90.01620727
_symmetry_Int_Tables_number   1
_chemical_formula_structural   HfZrTaTiMo
_chemical_formula_sum   'Hf40 Zr40 Ta40 Ti40 Mo40'
_cell_volume   3860.01030712
_cell_formula_units_Z   40
loop_
 _symmetry_equiv_pos_site_id
 _symmetry_equiv_pos_as_xyz
  1  'x, y, z'
loop_
 _atom_site_type_symbol
 _atom_site_label
 _atom_site_symmetry_multiplicity
 _atom_site_fract_x
 _atom_site_fract_y
 _atom_site_fract_z
 _atom_site_occupancy
  Hf  Hf0  1  0.39021947  0.19674359  0.75612333  1
  Hf  Hf1  1  0.91141370  0.10168484  0.63346379  1
  Hf  Hf2  1  0.50705768  0.09005055  0.87087696  1
  Hf  Hf3  1  0.78958338  0.80595960  0.73961827  1
  Hf  Hf4  1  0.59144781  0.80345853  0.00969848  1
  Hf  Hf5  1  0.90007455  0.29999059  0.11246353  1
  Hf  Hf6  1  0.90032467  0.07946221  0.36447925  1
  Hf  Hf7  1  0.59958460  0.41056823  0.72282299  1
  Hf  Hf8  1  0.01146193  -0.00615218  0.77397853  1
  Hf  Hf9  1  0.49331102  0.69999230  0.13965718  1
  Hf  Hf10  1  0.21093070  0.39441904  0.76199761  1
  Hf  Hf11  1  0.79877814  0.60818776  0.73163002  1
  Hf  Hf12  1  0.00634763  0.19404697  0.48734660  1
  Hf  Hf13  1  0.40378363  0.80425805  0.73323341  1
  Hf  Hf14  1  0.60041687  0.60125062  0.00273482  1
  Hf  Hf15  1  0.20153821  0.59394503  0.75393455  1
  Hf  Hf16  1  -0.00544673  0.39545505  0.48701908  1
  Hf  Hf17  1  0.89937645  0.30332702  0.87771135  1
  Hf  Hf18  1  0.19698494  0.78660661  0.00156509  1
  Hf  Hf19  1  0.60004890  0.61422864  0.72106996  1
  Hf  Hf20  1  0.29088935  0.70067349  0.60441945  1
  Hf  Hf21  1  0.10609067  0.31073770  0.12542622  1
  Hf  Hf22  1  0.19806342  0.80582313  0.75650624  1
  Hf  Hf23  1  0.10278814  0.90200058  0.61225196  1
  Hf  Hf24  1  0.20485817  0.18680004  0.24563810  1
  Hf  Hf25  1  0.69644660  0.29322975  0.38263606  1
  Hf  Hf26  1  0.60076398  0.61635085  0.27660376  1
  Hf  Hf27  1  0.89376149  0.50340861  0.12653422  1
  Hf  Hf28  1  0.49942379  0.30679304  0.14100605  1
  Hf  Hf29  1  -0.00391608  0.79954236  0.75605261  1
  Hf  Hf30  1  0.59998440  0.00183074  0.25141051  1
  Hf  Hf31  1  0.49831123  0.08320014  0.62207206  1
  Hf  Hf32  1  0.70003723  0.30767171  0.13389432  1
  Hf  Hf33  1  0.40295670  0.40248151  -0.00650041  1
  Hf  Hf34  1  0.40273768  0.60132318  -0.00175135  1
  Hf  Hf35  1  0.09351212  0.29056220  0.88105334  1
  Hf  Hf36  1  0.70662405  0.10247065  0.12929953  1
  Hf  Hf37  1  0.79897083  0.40851190  0.73838341  1
  Hf  Hf38  1  0.88835826  0.90160575  0.90028719  1
  Hf  Hf39  1  0.79858443  0.60213777  0.50968925  1
  Zr  Zr40  1  0.70272162  0.10101025  0.88027197  1
  Zr  Zr41  1  0.30870793  0.69773265  0.87484565  1
  Zr  Zr42  1  0.10452135  0.09733935  0.63273678  1
  Zr  Zr43  1  0.22463283  0.20648332  0.48030617  1
  Zr  Zr44  1  0.69515259  0.09461390  0.62605955  1
  Zr  Zr45  1  0.10729105  0.29252260  0.62972710  1
  Zr  Zr46  1  0.79197226  0.60456464  0.00006528  1
  Zr  Zr47  1  0.59464271  0.00377964  0.01938861  1
  Zr  Zr48  1  0.21076757  -0.00807825  0.77256082  1
  Zr  Zr49  1  -0.00344063  0.58990495  0.49713432  1
  Zr  Zr50  1  0.90900368  0.10955684  0.89358840  1
  Zr  Zr51  1  0.20056701  0.60467386  0.26674189  1
  Zr  Zr52  1  0.30595160  0.88436265  0.13332776  1
  Zr  Zr53  1  0.39630771  0.39987380  0.73519361  1
  Zr  Zr54  1  0.70802787  0.89789645  0.37062229  1
  Zr  Zr55  1  0.08434609  0.90065418  0.37216063  1
  Zr  Zr56  1  0.48959496  0.28375000  0.60903579  1
  Zr  Zr57  1  -0.00672299  0.79522014  0.23523397  1
  Zr  Zr58  1  0.80104026  0.60984968  0.26251084  1
  Zr  Zr59  1  0.30481039  0.30473837  0.13626037  1
  Zr  Zr60  1  0.50763365  0.50808897  0.86503043  1
  Zr  Zr61  1  -0.00637189  0.40715449  0.26258187  1
  Zr  Zr62  1  0.90565263  0.90230527  0.60962167  1
  Zr  Zr63  1  0.80131399  0.40164115  0.27141484  1
  Zr  Zr64  1  0.01407759  0.42169132  -0.00519638  1
  Zr  Zr65  1  0.79604501  -0.00327123  0.74983997  1
  Zr  Zr66  1  0.20451792  0.19447959  0.00992037  1
  Zr  Zr67  1  0.19577881  0.57582454  -0.00558965  1
  Zr  Zr68  1  0.40417079  0.59891588  0.73000630  1
  Zr  Zr69  1  0.20326482  0.00931115  0.47761259  1
  Zr  Zr70  1  0.08091941  0.68482002  0.87426956  1
  Zr  Zr71  1  0.50372684  0.29806887  0.86981483  1
  Zr  Zr72  1  0.10453738  0.29653116  0.35722086  1
  Zr  Zr73  1  0.30390660  0.10113925  0.62535265  1
  Zr  Zr74  1  0.09999928  0.49932293  0.62886304  1
  Zr  Zr75  1  0.30688286  0.49373298  0.14251206  1
  Zr  Zr76  1  0.59262431  0.41472846  0.27092692  1
  Zr  Zr77  1  0.80928981  0.19925127  0.49626753  1
  Zr  Zr78  1  0.91208310  0.51971804  0.86640032  1
  Zr  Zr79  1  0.81111852  0.40356338  0.50667355  1
  Ta  Ta80  1  0.59705955  0.20938141  0.00841883  1
  Ta  Ta81  1  0.80004775  0.20715734  0.75078839  1
  Ta  Ta82  1  0.19694905  0.40225421  0.48283735  1
  Ta  Ta83  1  0.09717614  0.89736094  0.11683391  1
  Ta  Ta84  1  0.19694063  -0.00659038  0.23942390  1
  Ta  Ta85  1  0.29936128  0.89616982  0.36475090  1
  Ta  Ta86  1  0.40730622  0.59500236  0.27890334  1
  Ta  Ta87  1  0.40882077  -0.01145342  0.00973017  1
  Ta  Ta88  1  0.89926754  0.71539177  0.39047943  1
  Ta  Ta89  1  0.10761991  0.50079600  0.14627813  1
  Ta  Ta90  1  0.30803921  0.90408779  0.60734844  1
  Ta  Ta91  1  -0.00456388  0.19271996  0.23768699  1
  Ta  Ta92  1  0.30950764  0.09168606  0.89245579  1
  Ta  Ta93  1  0.59598355  0.40278969  0.50527817  1
  Ta  Ta94  1  0.79539959  -0.00190688  0.50526573  1
  Ta  Ta95  1  0.30111209  0.69286158  0.13333544  1
  Ta  Ta96  1  0.60298465  0.19941351  0.74403938  1
  Ta  Ta97  1  0.69292038  0.50424818  0.13348069  1
  Ta  Ta98  1  0.69258555  0.70966196  0.86716626  1
  Ta  Ta99  1  0.78764476  0.40884656  -0.00936407  1
  Ta  Ta100  1  0.88725092  0.70841841  0.88334307  1
  Ta  Ta101  1  0.09713149  0.70322509  0.38786442  1
  Ta  Ta102  1  0.60407275  0.40537644  0.00397398  1
  Ta  Ta103  1  0.40803113  -0.01485968  0.75521126  1
  Ta  Ta104  1  0.30841137  0.08830067  0.12462937  1
  Ta  Ta105  1  0.20405445  -0.01015622  0.00186515  1
  Ta  Ta106  1  0.49851444  0.89231000  0.14824373  1
  Ta  Ta107  1  -0.00063321  0.60908755  0.25307969  1
  Ta  Ta108  1  0.41239294  0.18886972  0.01158481  1
  Ta  Ta109  1  0.80665151  0.19625653  0.25425630  1
  Ta  Ta110  1  0.50553669  0.71716082  0.86912563  1
  Ta  Ta111  1  0.30201551  0.70088866  0.39179959  1
  Ta  Ta112  1  0.89746432  0.09500896  0.11282491  1
  Ta  Ta113  1  0.69808856  0.50655916  0.39496928  1
  Ta  Ta114  1  0.68549389  0.89963438  0.88022679  1
  Ta  Ta115  1  0.29582775  0.49837448  0.60000084  1
  Ta  Ta116  1  0.39064842  0.38983094  0.49285604  1
  Ta  Ta117  1  0.69469860  0.30696419  0.86783578  1
  Ta  Ta118  1  0.69987359  0.29470279  0.62099337  1
  Ta  Ta119  1  0.49494173  0.29427467  0.37959644  1
  Ti  Ti120  1  0.20193971  0.19297199  0.76597707  1
  Ti  Ti121  1  0.49909491  0.10093405  0.37567240  1
  Ti  Ti122  1  0.79750613  0.79852609  0.25471070  1
  Ti  Ti123  1  0.40367416  0.19240672  0.25423137  1
  Ti  Ti124  1  0.59923594  0.19056342  0.49699824  1
  Ti  Ti125  1  0.49068173  0.71278036  0.59489137  1
  Ti  Ti126  1  0.40114186  0.78657579  0.27055204  1
  Ti  Ti127  1  -0.00605502  -0.00563971  0.22846620  1
  Ti  Ti128  1  0.09434333  0.09300439  0.11412023  1
  Ti  Ti129  1  0.00477053  0.61110464  0.02574636  1
  Ti  Ti130  1  0.09922284  0.70236348  0.61379883  1
  Ti  Ti131  1  0.40094811  0.00121606  0.25125894  1
  Ti  Ti132  1  0.30087266  0.29251284  0.89241972  1
  Ti  Ti133  1  0.09361078  0.09072467  0.35830599  1
  Ti  Ti134  1  0.19937158  0.80602963  0.49064969  1
  Ti  Ti135  1  0.69503619  0.71937820  0.60503632  1
  Ti  Ti136  1  0.59889713  -0.00464581  0.48750586  1
  Ti  Ti137  1  0.19330857  0.79352615  0.25021565  1
  Ti  Ti138  1  0.59685965  0.80680543  0.49002872  1
  Ti  Ti139  1  0.88622848  0.71069787  0.11366987  1
  Ti  Ti140  1  0.69709928  0.50743224  0.86612246  1
  Ti  Ti141  1  0.91100485  0.29552825  0.64047632  1
  Ti  Ti142  1  0.59357478  0.60324257  0.49929394  1
  Ti  Ti143  1  0.30086668  0.49783268  0.38289447  1
  Ti  Ti144  1  0.31885208  0.89025719  0.89222870  1
  Ti  Ti145  1  0.39967526  -0.00013215  0.48076625  1
  Ti  Ti146  1  0.70586877  0.09533340  0.36879548  1
  Ti  Ti147  1  0.88782934  0.90261976  0.10991113  1
  Ti  Ti148  1  0.69658350  0.70811751  0.13192067  1
  Ti  Ti149  1  0.70638958  0.89589867  0.13229959  1
  Ti  Ti150  1  0.89935722  0.89783422  0.38380435  1
  Ti  Ti151  1  -0.00033556  0.79673214  0.00659902  1
  Ti  Ti152  1  0.59888020  0.19643805  0.25289127  1
  Ti  Ti153  1  0.78988474  0.20962741  -0.00231451  1
  Ti  Ti154  1  0.59196006  0.82102520  0.73223454  1
  Ti  Ti155  1  0.10006292  0.09848996  0.89481584  1
  Ti  Ti156  1  0.90833679  0.70862875  0.61387866  1
  Ti  Ti157  1  0.49759805  0.89375811  0.36880511  1
  Ti  Ti158  1  0.50033070  0.50203816  0.13697026  1
  Ti  Ti159  1  0.00325944  0.40435486  0.75262969  1
  Mo  Mo160  1  0.90513370  0.49868616  0.64015856  1
  Mo  Mo161  1  0.78520897  0.79877757  0.00072272  1
  Mo  Mo162  1  0.20438269  0.40389110  0.26916587  1
  Mo  Mo163  1  0.40010772  0.59856649  0.49571717  1
  Mo  Mo164  1  0.68933468  0.90248646  0.60991309  1
  Mo  Mo165  1  0.00151847  0.20050169  0.02002922  1
  Mo  Mo166  1  0.89925264  0.51535226  0.36882209  1
  Mo  Mo167  1  0.39882512  0.80869753  0.49081231  1
  Mo  Mo168  1  0.49728386  0.10178542  0.13679848  1
  Mo  Mo169  1  0.49946261  0.70827085  0.38693078  1
  Mo  Mo170  1  0.79351849  -0.00247486  0.01097755  1
  Mo  Mo171  1  0.30728076  0.09146602  0.34949060  1
  Mo  Mo172  1  0.49293697  0.50426758  0.60051538  1
  Mo  Mo173  1  0.69562866  0.50311489  0.60955586  1
  Mo  Mo174  1  0.40308015  0.79671706  0.00725847  1
  Mo  Mo175  1  0.09725218  0.89510913  0.90076490  1
  Mo  Mo176  1  0.40335016  0.40523726  0.27594256  1
  Mo  Mo177  1  0.59500579  -0.00879946  0.75097197  1
  Mo  Mo178  1  0.30469824  0.49107672  0.87790785  1
  Mo  Mo179  1  0.20681846  0.40293846  -0.01645368  1
  Mo  Mo180  1  0.50041840  0.89555870  0.87577759  1
  Mo  Mo181  1  0.30789861  0.30053317  0.35660112  1
  Mo  Mo182  1  0.90202513  0.28267936  0.36516135  1
  Mo  Mo183  1  0.40519742  0.18835325  0.48043820  1
  Mo  Mo184  1  -0.00216729  0.00515681  0.49254838  1
  Mo  Mo185  1  0.49723694  0.90313160  0.60180745  1
  Mo  Mo186  1  0.19666149  0.59958873  0.48899079  1
  Mo  Mo187  1  0.80728291  -0.00758334  0.23340503  1
  Mo  Mo188  1  0.10117526  0.50442433  0.36745983  1
  Mo  Mo189  1  0.10022078  0.49547830  0.85505744  1
  Mo  Mo190  1  0.00076365  0.20156090  0.75413940  1
  Mo  Mo191  1  0.49703774  0.50220443  0.39816635  1
  Mo  Mo192  1  0.79729793  0.80209532  0.50409947  1
  Mo  Mo193  1  0.29388505  0.30254983  0.61293801  1
  Mo  Mo194  1  0.00583155  -0.00435664  0.00749227  1
  Mo  Mo195  1  0.60154830  0.80147188  0.25191270  1
  Mo  Mo196  1  0.70068476  0.70779576  0.39386470  1
  Mo  Mo197  1  0.00266085  0.79795124  0.50108758  1
  Mo  Mo198  1  -0.00577381  0.60909736  0.72930237  1
  Mo  Mo199  1  0.10208555  0.69753682  0.12739930  1
