# generated using pymatgen
data_HfZrTaTiMo
_symmetry_space_group_name_H-M   'P 1'
_cell_length_a   15.84243966
_cell_length_b   15.84600834
_cell_length_c   15.41022688
_cell_angle_alpha   90.02158919
_cell_angle_beta   89.94530076
_cell_angle_gamma   90.07242967
_symmetry_Int_Tables_number   1
_chemical_formula_structural   HfZrTaTiMo
_chemical_formula_sum   'Hf40 Zr40 Ta40 Ti40 Mo40'
_cell_volume   3868.56945939
_cell_formula_units_Z   40
loop_
 _symmetry_equiv_pos_site_id
 _symmetry_equiv_pos_as_xyz
  1  'x, y, z'
loop_
 _atom_site_type_symbol
 _atom_site_label
 _atom_site_symmetry_multiplicity
 _atom_site_fract_x
 _atom_site_fract_y
 _atom_site_fract_z
 _atom_site_occupancy
  Hf  Hf0  1  0.90664792  0.09949481  0.88119966  1
  Hf  Hf1  1  0.78907490  0.40186317  0.00848829  1
  Hf  Hf2  1  0.30008796  0.70335756  0.38463290  1
  Hf  Hf3  1  0.89353879  0.09189408  0.63833109  1
  Hf  Hf4  1  0.90522220  0.29634339  0.87763085  1
  Hf  Hf5  1  0.79300058  0.18703250  0.50727414  1
  Hf  Hf6  1  -0.00115356  0.18547225  0.24590913  1
  Hf  Hf7  1  0.69191526  0.29449749  0.38404626  1
  Hf  Hf8  1  0.79675578  0.61317077  0.49382726  1
  Hf  Hf9  1  0.80306281  0.80371064  0.01399715  1
  Hf  Hf10  1  0.49478084  0.30054646  0.61930623  1
  Hf  Hf11  1  0.01277853  0.19913374  0.73890243  1
  Hf  Hf12  1  0.79352928  0.59796752  0.01259265  1
  Hf  Hf13  1  0.69648912  0.49477768  0.62513498  1
  Hf  Hf14  1  0.00710306  0.59474168  0.00475643  1
  Hf  Hf15  1  0.49450069  0.91470168  0.11873056  1
  Hf  Hf16  1  0.51426098  0.71093081  0.37210480  1
  Hf  Hf17  1  0.90321153  0.69963496  0.62617904  1
  Hf  Hf18  1  0.79212764  0.59892080  0.24211825  1
  Hf  Hf19  1  0.79967709  0.80040776  0.22717270  1
  Hf  Hf20  1  0.00900223  0.59679135  0.74589612  1
  Hf  Hf21  1  0.90489621  0.48979006  0.37426765  1
  Hf  Hf22  1  0.39891052  0.81052757  0.25545856  1
  Hf  Hf23  1  0.69414710  0.90505756  0.89222043  1
  Hf  Hf24  1  0.68311445  0.28808265  0.62755571  1
  Hf  Hf25  1  0.31165343  0.10839115  0.12839241  1
  Hf  Hf26  1  0.90312684  0.90454290  0.87800723  1
  Hf  Hf27  1  0.79928673  0.39801299  0.75141772  1
  Hf  Hf28  1  0.10681518  0.28114226  0.89163149  1
  Hf  Hf29  1  0.49364236  0.11627770  0.61832019  1
  Hf  Hf30  1  0.50570539  0.92038772  0.61770277  1
  Hf  Hf31  1  0.79176737  0.19646111  0.24009022  1
  Hf  Hf32  1  0.49510638  0.49749686  0.62979586  1
  Hf  Hf33  1  0.69866932  0.70042499  0.88342279  1
  Hf  Hf34  1  0.30149748  0.69961113  0.62211650  1
  Hf  Hf35  1  0.90681309  0.90270759  0.37517304  1
  Hf  Hf36  1  -0.00469359  0.19599125  0.51174815  1
  Hf  Hf37  1  0.10189527  0.90276591  0.87286908  1
  Hf  Hf38  1  0.20161576  0.00409996  0.00057099  1
  Hf  Hf39  1  0.69260667  0.29655771  0.87452956  1
  Zr  Zr40  1  0.20749786  0.59415356  0.24481193  1
  Zr  Zr41  1  0.10228272  0.70593619  0.38205332  1
  Zr  Zr42  1  0.10935116  0.69760849  0.87836893  1
  Zr  Zr43  1  0.11036214  0.49240710  0.86662615  1
  Zr  Zr44  1  0.58961830  0.19114622  0.24122749  1
  Zr  Zr45  1  0.19946441  0.80651043  0.24057154  1
  Zr  Zr46  1  0.88958836  0.88903566  0.64466694  1
  Zr  Zr47  1  0.40404449  0.60238136  0.49722581  1
  Zr  Zr48  1  0.60649958  0.80973000  0.74841723  1
  Zr  Zr49  1  0.41267976  0.80024673  0.74078572  1
  Zr  Zr50  1  0.30223720  0.90446890  0.86380627  1
  Zr  Zr51  1  0.80123402  0.00137625  0.23335468  1
  Zr  Zr52  1  0.79764191  0.60440871  0.75179586  1
  Zr  Zr53  1  0.20178691  0.37814106  0.73734106  1
  Zr  Zr54  1  0.49864626  0.70012799  0.89027419  1
  Zr  Zr55  1  0.01616393  0.39488692  0.24284259  1
  Zr  Zr56  1  0.46807213  0.69487503  0.11536897  1
  Zr  Zr57  1  0.38319110  0.40746550  0.49110084  1
  Zr  Zr58  1  0.58863991  0.57982468  0.01758637  1
  Zr  Zr59  1  0.00774665  0.59824562  0.25001692  1
  Zr  Zr60  1  0.80347977  0.39343809  0.50362506  1
  Zr  Zr61  1  0.60040142  0.39794228  0.23402890  1
  Zr  Zr62  1  0.10778547  0.90203740  0.63198568  1
  Zr  Zr63  1  0.20375684  0.17526743  0.73082327  1
  Zr  Zr64  1  0.11946076  0.48438119  0.38793309  1
  Zr  Zr65  1  0.32388655  0.50080792  0.13031547  1
  Zr  Zr66  1  0.30094162  0.91842227  0.62704614  1
  Zr  Zr67  1  0.78293798  -0.01440810  0.51407953  1
  Zr  Zr68  1  0.30421204  0.69981649  0.88290410  1
  Zr  Zr69  1  0.90087833  0.49826294  0.87674012  1
  Zr  Zr70  1  0.10499070  0.29169236  0.38651234  1
  Zr  Zr71  1  0.09701250  0.08897957  0.38343401  1
  Zr  Zr72  1  0.69357352  0.49797988  0.37551817  1
  Zr  Zr73  1  0.90353032  0.29308667  0.12144817  1
  Zr  Zr74  1  0.61872732  0.80831071  0.51119445  1
  Zr  Zr75  1  0.48365250  0.29843217  0.11894302  1
  Zr  Zr76  1  0.89985910  0.71094686  0.37255560  1
  Zr  Zr77  1  0.19770906  0.00178567  0.24400888  1
  Zr  Zr78  1  0.69835857  0.89253702  0.36256589  1
  Zr  Zr79  1  0.60265129  0.61181146  0.51189021  1
  Ta  Ta80  1  -0.00381437  -0.00419914  0.51326138  1
  Ta  Ta81  1  0.20846219  0.40466824  0.00614960  1
  Ta  Ta82  1  0.30002089  0.50238864  0.86388882  1
  Ta  Ta83  1  0.59311178  0.61031264  0.74046591  1
  Ta  Ta84  1  0.20654895  0.80311598  0.01400118  1
  Ta  Ta85  1  0.69323981  0.10398463  0.88092575  1
  Ta  Ta86  1  0.40795644  0.41132649  -0.01827778  1
  Ta  Ta87  1  0.59434306  0.39715927  0.00271618  1
  Ta  Ta88  1  0.11102526  0.29315752  0.11520896  1
  Ta  Ta89  1  0.39452375  0.20592629  0.26890194  1
  Ta  Ta90  1  0.00481735  0.79347957  0.75082903  1
  Ta  Ta91  1  0.00191593  0.80074978  0.51285189  1
  Ta  Ta92  1  0.30148601  0.30177321  0.12256308  1
  Ta  Ta93  1  0.10540285  0.49716876  0.62061426  1
  Ta  Ta94  1  0.90128962  0.09111338  0.10139427  1
  Ta  Ta95  1  0.89467057  0.29648444  0.63353387  1
  Ta  Ta96  1  0.69260086  0.09207202  0.37596040  1
  Ta  Ta97  1  0.89810654  0.29134091  0.37042604  1
  Ta  Ta98  1  0.59135069  0.01247164  0.75998258  1
  Ta  Ta99  1  0.79171528  0.19878433  0.00266206  1
  Ta  Ta100  1  0.00688896  0.80479120  0.01010136  1
  Ta  Ta101  1  0.40469420  0.01221749  0.26679684  1
  Ta  Ta102  1  0.00483066  0.59599314  0.50284508  1
  Ta  Ta103  1  0.90452287  0.49831552  0.62034483  1
  Ta  Ta104  1  0.78332493  -0.00084956  0.75789527  1
  Ta  Ta105  1  0.20913589  0.59573466  0.01473040  1
  Ta  Ta106  1  0.89404592  0.09377770  0.37927506  1
  Ta  Ta107  1  0.90857371  0.69808371  0.12210296  1
  Ta  Ta108  1  0.00371179  0.39305444  0.73547433  1
  Ta  Ta109  1  0.60118741  0.79774502  0.22772317  1
  Ta  Ta110  1  0.49596496  0.29523290  0.86914778  1
  Ta  Ta111  1  0.29269567  0.11051741  0.38435920  1
  Ta  Ta112  1  0.59647983  0.60182225  0.23504100  1
  Ta  Ta113  1  0.39893755  0.00541609  0.48455777  1
  Ta  Ta114  1  0.10397151  0.70016893  0.12149897  1
  Ta  Ta115  1  0.68529521  0.50162870  0.86919206  1
  Ta  Ta116  1  0.90495627  0.70613856  0.88143554  1
  Ta  Ta117  1  0.40205188  0.01431635  -0.01192112  1
  Ta  Ta118  1  0.00838546  0.40055974  0.01041161  1
  Ta  Ta119  1  0.90334554  0.49665229  0.12945911  1
  Ti  Ti120  1  0.10856514  0.69389401  0.62045330  1
  Ti  Ti121  1  0.40834629  0.80720083  0.50174232  1
  Ti  Ti122  1  0.00186424  0.39339555  0.51270230  1
  Ti  Ti123  1  0.29467914  0.90723323  0.38162091  1
  Ti  Ti124  1  0.19966958  0.20442493  0.24484164  1
  Ti  Ti125  1  0.09615161  0.89819202  0.38300957  1
  Ti  Ti126  1  0.59165491  0.40099039  0.75809190  1
  Ti  Ti127  1  0.79629038  0.39322204  0.23931040  1
  Ti  Ti128  1  0.50194172  0.30034667  0.39184280  1
  Ti  Ti129  1  0.69296586  0.09759523  0.10874747  1
  Ti  Ti130  1  0.28421361  0.30561142  0.37970743  1
  Ti  Ti131  1  0.30852747  0.28000033  0.61113743  1
  Ti  Ti132  1  0.69442175  0.91288958  0.11197615  1
  Ti  Ti133  1  0.09584355  0.10571287  0.10554530  1
  Ti  Ti134  1  0.58670118  0.01672292  -0.00527106  1
  Ti  Ti135  1  0.00424973  0.81107237  0.23022071  1
  Ti  Ti136  1  0.39685513  0.39748671  0.26774103  1
  Ti  Ti137  1  0.20084564  0.80697919  0.50324508  1
  Ti  Ti138  1  0.20097766  0.79260195  0.74644795  1
  Ti  Ti139  1  0.29647649  0.50043009  0.64153073  1
  Ti  Ti140  1  0.20960773  0.58553649  0.50342979  1
  Ti  Ti141  1  0.59488543  0.00328469  0.24369706  1
  Ti  Ti142  1  0.39158125  0.02946698  0.75591215  1
  Ti  Ti143  1  0.40400878  0.60115724  0.75300982  1
  Ti  Ti144  1  0.58917328  0.19933138  0.00364253  1
  Ti  Ti145  1  0.29022849  0.11388317  0.88091638  1
  Ti  Ti146  1  0.50869074  0.91002516  0.37893769  1
  Ti  Ti147  1  0.30953739  0.90434509  0.11981176  1
  Ti  Ti148  1  0.49645018  0.90497434  0.88473194  1
  Ti  Ti149  1  0.40587307  0.59695449  0.26781938  1
  Ti  Ti150  1  0.50471958  0.10565428  0.38703310  1
  Ti  Ti151  1  0.50672255  0.49556795  0.37783514  1
  Ti  Ti152  1  0.00110045  -0.00686108  0.23018450  1
  Ti  Ti153  1  0.39634741  0.39262814  0.75697699  1
  Ti  Ti154  1  0.59602349  0.79713850  0.01765578  1
  Ti  Ti155  1  0.40110573  0.20032047  -0.01092668  1
  Ti  Ti156  1  0.01899459  0.01002522  0.74713932  1
  Ti  Ti157  1  0.71710715  0.72236061  0.63768283  1
  Ti  Ti158  1  0.78797568  0.19159567  0.75120148  1
  Ti  Ti159  1  0.29892819  0.29955806  0.88234005  1
  Mo  Mo160  1  0.49942698  0.70579613  0.62572045  1
  Mo  Mo161  1  0.49340505  0.10777422  0.87023462  1
  Mo  Mo162  1  0.20220031  0.19529631  0.51285014  1
  Mo  Mo163  1  0.59694353  0.00663152  0.49613821  1
  Mo  Mo164  1  0.79186753  0.00565488  -0.00263272  1
  Mo  Mo165  1  0.10832500  0.49433585  0.11886311  1
  Mo  Mo166  1  0.59315356  0.19799821  0.76081130  1
  Mo  Mo167  1  0.69525085  0.70316065  0.34910444  1
  Mo  Mo168  1  0.39724454  0.20356564  0.47758200  1
  Mo  Mo169  1  0.10012091  0.29763794  0.60998652  1
  Mo  Mo170  1  0.20372201  0.39655497  0.52065101  1
  Mo  Mo171  1  0.69334140  0.70086288  0.12225972  1
  Mo  Mo172  1  0.90663356  0.90342505  0.11416183  1
  Mo  Mo173  1  0.59904274  0.19663874  0.49082291  1
  Mo  Mo174  1  0.20655519  0.59906168  0.73571992  1
  Mo  Mo175  1  0.20960947  0.20139256  0.00685890  1
  Mo  Mo176  1  0.39657044  0.82019030  0.00078097  1
  Mo  Mo177  1  0.21093775  0.38720961  0.23485409  1
  Mo  Mo178  1  0.69520231  0.29250996  0.10877785  1
  Mo  Mo179  1  0.19941356  -0.00568932  0.48511026  1
  Mo  Mo180  1  0.00316827  -0.00234821  0.00266384  1
  Mo  Mo181  1  0.10047460  0.09621497  0.88781680  1
  Mo  Mo182  1  0.80432285  0.79734658  0.49574990  1
  Mo  Mo183  1  0.30582294  0.09764020  0.60186719  1
  Mo  Mo184  1  0.00131755  0.19896144  0.00518506  1
  Mo  Mo185  1  0.49295877  0.10034451  0.12741563  1
  Mo  Mo186  1  0.30321572  0.49639905  0.36335688  1
  Mo  Mo187  1  0.30023846  0.70479816  0.11711407  1
  Mo  Mo188  1  0.80599029  0.80195642  0.77611690  1
  Mo  Mo189  1  0.49415305  0.49338336  0.13704518  1
  Mo  Mo190  1  0.10566586  0.08916935  0.60605618  1
  Mo  Mo191  1  0.68587941  0.09616571  0.63934669  1
  Mo  Mo192  1  0.10156565  0.90458509  0.11566746  1
  Mo  Mo193  1  0.70013239  0.49297046  0.13237651  1
  Mo  Mo194  1  0.59245850  0.40138991  0.50041953  1
  Mo  Mo195  1  0.39086638  0.20817627  0.75911632  1
  Mo  Mo196  1  0.20243793  0.00548012  0.76324443  1
  Mo  Mo197  1  0.39425811  0.58736345  -0.01806632  1
  Mo  Mo198  1  0.69843043  0.90747216  0.64329219  1
  Mo  Mo199  1  0.49885619  0.49675206  0.85403881  1
