# generated using pymatgen
data_HfZrTaTiMo
_symmetry_space_group_name_H-M   'P 1'
_cell_length_a   15.84733519
_cell_length_b   15.83229782
_cell_length_c   15.40886989
_cell_angle_alpha   90.02367944
_cell_angle_beta   89.97546764
_cell_angle_gamma   89.94061828
_symmetry_Int_Tables_number   1
_chemical_formula_structural   HfZrTaTiMo
_chemical_formula_sum   'Hf40 Zr40 Ta40 Ti40 Mo40'
_cell_volume   3866.07853897
_cell_formula_units_Z   40
loop_
 _symmetry_equiv_pos_site_id
 _symmetry_equiv_pos_as_xyz
  1  'x, y, z'
loop_
 _atom_site_type_symbol
 _atom_site_label
 _atom_site_symmetry_multiplicity
 _atom_site_fract_x
 _atom_site_fract_y
 _atom_site_fract_z
 _atom_site_occupancy
  Hf  Hf0  1  0.89235989  0.90111746  0.38698443  1
  Hf  Hf1  1  0.39636631  0.39679177  0.24424078  1
  Hf  Hf2  1  0.17596818  0.00493573  0.25135862  1
  Hf  Hf3  1  0.91470390  0.50000488  0.13113437  1
  Hf  Hf4  1  0.38771154  0.80138504  0.49479812  1
  Hf  Hf5  1  0.78553755  0.20703247  0.51317646  1
  Hf  Hf6  1  -0.00332057  0.40111858  0.76773683  1
  Hf  Hf7  1  0.29579325  0.30640141  0.62899049  1
  Hf  Hf8  1  0.10328851  0.50187018  0.63580714  1
  Hf  Hf9  1  0.89017010  0.08184094  0.12419654  1
  Hf  Hf10  1  0.88961966  0.10021082  0.36918832  1
  Hf  Hf11  1  0.19066808  0.21392527  0.26169606  1
  Hf  Hf12  1  -0.01652633  0.20500671  -0.01191584  1
  Hf  Hf13  1  0.50476484  0.48773037  0.38456394  1
  Hf  Hf14  1  0.29028256  0.10518976  0.13090286  1
  Hf  Hf15  1  0.20395966  -0.00420447  -0.00482650  1
  Hf  Hf16  1  0.60160391  0.39470138  0.24021652  1
  Hf  Hf17  1  0.39715768  0.20789665  0.24390261  1
  Hf  Hf18  1  0.50663486  0.50890629  0.61996907  1
  Hf  Hf19  1  0.79540627  0.80883873  0.74072311  1
  Hf  Hf20  1  0.18976723  0.19326112  0.50104315  1
  Hf  Hf21  1  0.09806463  0.30331643  0.62690291  1
  Hf  Hf22  1  0.50373240  0.29502838  0.87937939  1
  Hf  Hf23  1  0.19837193  0.20686159  -0.01548168  1
  Hf  Hf24  1  0.08878735  0.89644383  0.38382777  1
  Hf  Hf25  1  0.28277243  0.70388887  0.13691359  1
  Hf  Hf26  1  0.20274387  -0.00527215  0.50787491  1
  Hf  Hf27  1  0.39239954  0.59599694  0.26065932  1
  Hf  Hf28  1  0.51126610  0.28707440  0.11280833  1
  Hf  Hf29  1  0.20260922  0.40688230  0.26335677  1
  Hf  Hf30  1  0.50454379  0.88533774  0.89081086  1
  Hf  Hf31  1  -0.00668316  0.80351699  0.24729041  1
  Hf  Hf32  1  0.20913437  0.60741728  0.48305900  1
  Hf  Hf33  1  0.62128336  0.38751733  0.51797378  1
  Hf  Hf34  1  0.71153558  0.48635629  0.37683535  1
  Hf  Hf35  1  0.81749672  0.80820462  -0.00043467  1
  Hf  Hf36  1  0.30748100  0.90305478  0.86287315  1
  Hf  Hf37  1  0.50279926  0.08900518  0.62773655  1
  Hf  Hf38  1  0.18471984  0.00386311  0.74625066  1
  Hf  Hf39  1  0.08403290  0.09607475  0.10883857  1
  Zr  Zr40  1  0.30310954  0.50790296  0.62544645  1
  Zr  Zr41  1  0.30878137  0.30306694  0.39857226  1
  Zr  Zr42  1  0.00420799  0.19441362  0.25887814  1
  Zr  Zr43  1  0.90156853  0.50026509  0.36740609  1
  Zr  Zr44  1  0.78887365  0.00508760  0.51276239  1
  Zr  Zr45  1  0.50257443  0.50596915  0.12032944  1
  Zr  Zr46  1  0.19926296  0.61042003  -0.00909667  1
  Zr  Zr47  1  0.89529130  0.30569942  0.63186784  1
  Zr  Zr48  1  0.80296900  0.60964486  0.24727982  1
  Zr  Zr49  1  0.40171195  0.00233980  0.00876103  1
  Zr  Zr50  1  0.09169958  0.89134991  0.11115221  1
  Zr  Zr51  1  0.70297746  0.29085946  0.86043479  1
  Zr  Zr52  1  0.61449131  0.39676675  0.00415370  1
  Zr  Zr53  1  0.51012132  0.90428933  0.36979996  1
  Zr  Zr54  1  0.40274440  0.60422278  -0.00251750  1
  Zr  Zr55  1  0.60102633  0.39805407  0.73845223  1
  Zr  Zr56  1  0.00277667  0.19197009  0.76685621  1
  Zr  Zr57  1  0.01424169  0.60225551  0.49006867  1
  Zr  Zr58  1  0.81380290  0.39797377  0.00502471  1
  Zr  Zr59  1  0.70090488  0.70703732  0.87625571  1
  Zr  Zr60  1  0.30363017  0.09927325  0.37516114  1
  Zr  Zr61  1  0.30225704  0.09975516  0.63388391  1
  Zr  Zr62  1  0.90362636  0.10017585  0.63229501  1
  Zr  Zr63  1  0.69890865  0.28573852  0.35968530  1
  Zr  Zr64  1  0.39483656  0.79818802  0.01706318  1
  Zr  Zr65  1  0.10533285  0.50339615  0.86535963  1
  Zr  Zr66  1  0.80369409  0.59281220  0.50860452  1
  Zr  Zr67  1  0.88802128  0.30742617  0.37487308  1
  Zr  Zr68  1  0.49488698  0.70246077  0.60984489  1
  Zr  Zr69  1  0.51947809  0.89934926  0.13003398  1
  Zr  Zr70  1  -0.00535119  0.59978041  -0.01163081  1
  Zr  Zr71  1  0.59909616  -0.01018805  0.75877922  1
  Zr  Zr72  1  0.61082247  0.60391978  0.25272517  1
  Zr  Zr73  1  0.58896361  0.79581511  0.74262204  1
  Zr  Zr74  1  0.29398448  0.89476510  0.36065637  1
  Zr  Zr75  1  0.09053682  0.89221668  0.61664139  1
  Zr  Zr76  1  0.91258103  0.70228519  0.62818355  1
  Zr  Zr77  1  0.09673434  0.31141578  0.11356752  1
  Zr  Zr78  1  0.39625610  0.19708826  -0.00195289  1
  Zr  Zr79  1  0.51220640  0.70902761  0.37322026  1
  Ta  Ta80  1  0.61047648  0.59764981  0.49463941  1
  Ta  Ta81  1  0.01318635  0.39851199  0.26062700  1
  Ta  Ta82  1  0.28974138  0.49900298  0.12030678  1
  Ta  Ta83  1  0.50979544  0.09755589  0.13812090  1
  Ta  Ta84  1  0.50261808  0.10274124  0.37286568  1
  Ta  Ta85  1  0.19509038  0.59823684  0.26847075  1
  Ta  Ta86  1  0.60495424  0.60720497  -0.00906620  1
  Ta  Ta87  1  0.79388928  0.79979407  0.51325815  1
  Ta  Ta88  1  0.90568120  0.70125149  0.12366591  1
  Ta  Ta89  1  0.20978315  0.60546985  0.75472471  1
  Ta  Ta90  1  0.10619743  0.69824919  0.63771085  1
  Ta  Ta91  1  0.80168141  0.59467752  0.74665049  1
  Ta  Ta92  1  0.30901613  0.49972688  0.86609817  1
  Ta  Ta93  1  -0.00802303  -0.00754203  0.76047682  1
  Ta  Ta94  1  0.69168671  0.10252538  0.14056138  1
  Ta  Ta95  1  0.78386369  0.19634689  0.01194654  1
  Ta  Ta96  1  0.40186564  0.79803533  0.24338530  1
  Ta  Ta97  1  0.69530578  0.69380450  0.62311012  1
  Ta  Ta98  1  0.39301052  0.39894470  0.00197354  1
  Ta  Ta99  1  0.00106121  0.80531054  0.76093424  1
  Ta  Ta100  1  0.30678246  0.10107364  0.85702497  1
  Ta  Ta101  1  0.69099964  0.09232279  0.36256866  1
  Ta  Ta102  1  0.00018246  0.20084616  0.49257256  1
  Ta  Ta103  1  0.50570453  0.49889977  0.87694311  1
  Ta  Ta104  1  0.79806668  -0.00461730  0.75185099  1
  Ta  Ta105  1  0.19290911  0.20354027  0.75962462  1
  Ta  Ta106  1  0.40699265  0.40298587  0.74506224  1
  Ta  Ta107  1  0.71050807  0.91070271  0.11740062  1
  Ta  Ta108  1  0.70850433  0.49931415  0.86975524  1
  Ta  Ta109  1  0.41357478  0.60809291  0.76085858  1
  Ta  Ta110  1  0.69498072  0.89361200  0.37803660  1
  Ta  Ta111  1  0.20481925  0.40263202  -0.01050682  1
  Ta  Ta112  1  0.40517984  -0.00076361  0.49929340  1
  Ta  Ta113  1  0.50256121  0.28953441  0.39087563  1
  Ta  Ta114  1  0.19989322  0.80278565  0.75114269  1
  Ta  Ta115  1  0.30208722  0.30634351  0.86033083  1
  Ta  Ta116  1  0.90062438  0.71076601  0.38247820  1
  Ta  Ta117  1  0.40859763  0.20571294  0.74482934  1
  Ta  Ta118  1  0.30769524  0.71069543  0.86435982  1
  Ta  Ta119  1  0.40022976  0.00009049  0.24323321  1
  Ti  Ti120  1  0.87928125  0.09580899  0.87506216  1
  Ti  Ti121  1  0.79898197  0.39577781  0.22896185  1
  Ti  Ti122  1  0.09936420  0.89522888  0.88083729  1
  Ti  Ti123  1  0.90202726  0.69522467  0.85991071  1
  Ti  Ti124  1  0.79887509  -0.01125639  0.25152217  1
  Ti  Ti125  1  0.19116594  0.41081447  0.48608866  1
  Ti  Ti126  1  0.88325056  0.29799617  0.86462902  1
  Ti  Ti127  1  0.31497274  0.89979477  0.63998264  1
  Ti  Ti128  1  0.10309957  0.70389305  0.86119311  1
  Ti  Ti129  1  0.60307442  0.60017709  0.75782881  1
  Ti  Ti130  1  0.60870121  0.01372508  -0.00349681  1
  Ti  Ti131  1  0.79672806  0.80115869  0.24284851  1
  Ti  Ti132  1  0.67858163  0.90440538  0.61065386  1
  Ti  Ti133  1  0.70476689  0.90513839  0.89120064  1
  Ti  Ti134  1  0.70482043  0.71221545  0.38429508  1
  Ti  Ti135  1  0.51281132  0.70284325  0.13074994  1
  Ti  Ti136  1  -0.00058781  0.40153083  0.49423685  1
  Ti  Ti137  1  0.19593731  0.78888423  0.49760114  1
  Ti  Ti138  1  0.59758543  0.19110870  0.51076159  1
  Ti  Ti139  1  0.10320337  0.50594215  0.12405160  1
  Ti  Ti140  1  0.00903194  0.60406987  0.25994377  1
  Ti  Ti141  1  0.80576980  0.60139174  -0.00745509  1
  Ti  Ti142  1  0.70706841  0.51002090  0.11600095  1
  Ti  Ti143  1  0.89895977  0.29045011  0.13546997  1
  Ti  Ti144  1  0.00095883  0.39945761  -0.01805914  1
  Ti  Ti145  1  0.00142070  0.79254531  -0.01259966  1
  Ti  Ti146  1  -0.02795211  -0.01927815  -0.01821175  1
  Ti  Ti147  1  0.28700753  0.89683875  0.13563877  1
  Ti  Ti148  1  0.09303317  0.09108703  0.88632429  1
  Ti  Ti149  1  0.69637033  0.10535841  0.86752914  1
  Ti  Ti150  1  0.69447445  0.10501310  0.64603199  1
  Ti  Ti151  1  0.30066111  0.70594192  0.63803786  1
  Ti  Ti152  1  0.40857233  0.39711161  0.51453368  1
  Ti  Ti153  1  0.90510271  0.49943327  0.63397371  1
  Ti  Ti154  1  0.00496821  0.01403570  0.50402849  1
  Ti  Ti155  1  0.70278993  0.70856424  0.11351739  1
  Ti  Ti156  1  0.90306286  0.90030294  0.61867727  1
  Ti  Ti157  1  0.39625263  0.60256697  0.48112906  1
  Ti  Ti158  1  0.50075833  0.09764460  0.86675951  1
  Ti  Ti159  1  0.09806633  0.69843571  0.12888231  1
  Mo  Mo160  1  0.50245340  0.69737236  0.87903083  1
  Mo  Mo161  1  0.80432390  0.40146763  0.52267373  1
  Mo  Mo162  1  -0.00395893  0.79790592  0.49743785  1
  Mo  Mo163  1  0.40392813  -0.00222511  0.75234008  1
  Mo  Mo164  1  0.60572102  -0.00185154  0.25566361  1
  Mo  Mo165  1  0.70688332  0.50206352  0.63676579  1
  Mo  Mo166  1  0.39999784  0.79979369  0.74076185  1
  Mo  Mo167  1  0.69733479  0.28931703  0.64266558  1
  Mo  Mo168  1  -0.01040919  -0.00399248  0.25534534  1
  Mo  Mo169  1  0.09960670  0.50022772  0.37718721  1
  Mo  Mo170  1  0.79831834  0.19639090  0.23257499  1
  Mo  Mo171  1  0.00111977  0.60531209  0.75414388  1
  Mo  Mo172  1  0.19536177  0.79921879  -0.02230093  1
  Mo  Mo173  1  0.49477059  0.90279385  0.60763406  1
  Mo  Mo174  1  0.30056858  0.70470465  0.35955718  1
  Mo  Mo175  1  0.60425213  0.80079683  0.50806897  1
  Mo  Mo176  1  0.09388778  0.30513233  0.39327025  1
  Mo  Mo177  1  0.09204906  0.09604568  0.38445750  1
  Mo  Mo178  1  0.79178539  0.00714214  -0.01246624  1
  Mo  Mo179  1  0.09380143  0.10180595  0.62565566  1
  Mo  Mo180  1  0.49595832  0.29315510  0.61491858  1
  Mo  Mo181  1  0.79953980  0.40519693  0.74373177  1
  Mo  Mo182  1  0.30723458  0.49722783  0.39016769  1
  Mo  Mo183  1  0.19261340  0.79597685  0.25440251  1
  Mo  Mo184  1  0.89597797  0.89776161  0.12775541  1
  Mo  Mo185  1  0.61840864  0.79922398  0.23308322  1
  Mo  Mo186  1  0.40595967  0.19823638  0.51195916  1
  Mo  Mo187  1  0.79632147  0.19286874  0.74607827  1
  Mo  Mo188  1  0.09965809  0.70678863  0.36513569  1
  Mo  Mo189  1  0.60118123  0.00489931  0.49294450  1
  Mo  Mo190  1  0.59275070  0.19782263  0.25755686  1
  Mo  Mo191  1  0.29616842  0.31051363  0.11508713  1
  Mo  Mo192  1  0.89631813  0.89637131  0.86345318  1
  Mo  Mo193  1  0.89223436  0.50183125  0.86659632  1
  Mo  Mo194  1  0.59389487  0.19547031  0.74601917  1
  Mo  Mo195  1  0.60394934  0.18407432  -0.00714903  1
  Mo  Mo196  1  0.70664941  0.29192751  0.13282218  1
  Mo  Mo197  1  0.10018798  0.29972627  0.88235600  1
  Mo  Mo198  1  0.61022652  0.79863528  0.01187011  1
  Mo  Mo199  1  0.20553079  0.40057956  0.76061171  1
