# generated using pymatgen
data_HfZrTaTiMo
_symmetry_space_group_name_H-M   'P 1'
_cell_length_a   15.83512035
_cell_length_b   15.83316707
_cell_length_c   15.40519176
_cell_angle_alpha   90.00796373
_cell_angle_beta   89.99530480
_cell_angle_gamma   89.93284162
_symmetry_Int_Tables_number   1
_chemical_formula_structural   HfZrTaTiMo
_chemical_formula_sum   'Hf40 Zr40 Ta40 Ti40 Mo40'
_cell_volume   3862.38860805
_cell_formula_units_Z   40
loop_
 _symmetry_equiv_pos_site_id
 _symmetry_equiv_pos_as_xyz
  1  'x, y, z'
loop_
 _atom_site_type_symbol
 _atom_site_label
 _atom_site_symmetry_multiplicity
 _atom_site_fract_x
 _atom_site_fract_y
 _atom_site_fract_z
 _atom_site_occupancy
  Hf  Hf0  1  0.90315934  0.49331660  0.10960807  1
  Hf  Hf1  1  0.71608330  0.30505992  0.86813143  1
  Hf  Hf2  1  0.19386143  -0.00296233  0.23668188  1
  Hf  Hf3  1  0.49016383  0.50229852  0.11861866  1
  Hf  Hf4  1  -0.00278615  0.81419467  0.24165074  1
  Hf  Hf5  1  0.26949117  0.69593961  0.85707279  1
  Hf  Hf6  1  0.41249810  -0.00148202  0.76413965  1
  Hf  Hf7  1  0.60261288  0.59026955  0.25241797  1
  Hf  Hf8  1  0.10844736  0.87772180  0.86329348  1
  Hf  Hf9  1  0.30063536  0.30238035  0.12191049  1
  Hf  Hf10  1  0.88342326  0.49621148  0.37675071  1
  Hf  Hf11  1  0.08308620  0.30251361  0.11114102  1
  Hf  Hf12  1  0.81525921  0.00220107  0.25624924  1
  Hf  Hf13  1  0.58775707  0.79998035  0.01247792  1
  Hf  Hf14  1  0.00103224  0.20528585  0.51680456  1
  Hf  Hf15  1  0.19672996  0.80351392  0.49866477  1
  Hf  Hf16  1  0.30835885  0.88056828  0.86847611  1
  Hf  Hf17  1  0.50221793  0.28804296  0.63685073  1
  Hf  Hf18  1  0.70883213  0.69076472  0.36955852  1
  Hf  Hf19  1  0.59652652  -0.00076692  -0.00871898  1
  Hf  Hf20  1  0.69690880  0.90120044  0.37589459  1
  Hf  Hf21  1  0.19964725  0.40203852  -0.01206291  1
  Hf  Hf22  1  0.20645856  0.00458200  0.75863990  1
  Hf  Hf23  1  0.18790541  0.19941299  0.24183284  1
  Hf  Hf24  1  0.79362248  0.40360210  0.52296689  1
  Hf  Hf25  1  0.40389801  0.19159404  0.25631281  1
  Hf  Hf26  1  0.40022430  -0.01590797  -0.00371644  1
  Hf  Hf27  1  0.70935928  0.90352531  0.12090557  1
  Hf  Hf28  1  0.39754758  0.19878593  0.49521952  1
  Hf  Hf29  1  0.59312352  0.79458827  0.24158936  1
  Hf  Hf30  1  0.09655367  0.68966255  0.12618528  1
  Hf  Hf31  1  -0.00146986  -0.00016600  0.76197139  1
  Hf  Hf32  1  0.59726599  0.60417706  0.76605100  1
  Hf  Hf33  1  0.71213138  0.10569751  0.11298282  1
  Hf  Hf34  1  0.49967207  0.49697093  0.62647637  1
  Hf  Hf35  1  0.90321345  0.10439625  0.10057876  1
  Hf  Hf36  1  0.80096222  0.60730949  0.74967919  1
  Hf  Hf37  1  0.08575030  0.29907777  0.37614495  1
  Hf  Hf38  1  -0.01517075  0.39995492  0.52102597  1
  Hf  Hf39  1  0.60179953  0.00391178  0.76483058  1
  Zr  Zr40  1  0.91062633  0.09707564  0.38810549  1
  Zr  Zr41  1  0.19547162  0.80484991  0.25222613  1
  Zr  Zr42  1  0.69665753  0.11006958  0.38578358  1
  Zr  Zr43  1  0.80792686  -0.00112768  0.76018242  1
  Zr  Zr44  1  0.10521542  0.51137167  0.86711050  1
  Zr  Zr45  1  0.29622672  0.29068769  0.86189016  1
  Zr  Zr46  1  0.30961458  0.10406351  0.63355061  1
  Zr  Zr47  1  0.08246035  0.91482216  0.38443981  1
  Zr  Zr48  1  0.69879013  0.31892661  0.36626919  1
  Zr  Zr49  1  0.18759489  0.39713691  0.51024098  1
  Zr  Zr50  1  0.19121814  0.60275791  0.27387699  1
  Zr  Zr51  1  0.39957303  0.40375047  0.26987646  1
  Zr  Zr52  1  -0.00089709  0.79947667  0.00407912  1
  Zr  Zr53  1  0.59613207  0.40031589  -0.01508041  1
  Zr  Zr54  1  0.40551085  0.39238345  0.49637975  1
  Zr  Zr55  1  0.17969382  0.40768450  0.25566926  1
  Zr  Zr56  1  0.47638683  0.71657912  0.87706043  1
  Zr  Zr57  1  0.20068406  0.00434692  0.50939570  1
  Zr  Zr58  1  0.29129255  0.50038320  0.12621525  1
  Zr  Zr59  1  0.59962819  0.60816061  -0.00694811  1
  Zr  Zr60  1  0.80448175  0.79973238  0.50684280  1
  Zr  Zr61  1  -0.00315085  0.60391067  0.74918224  1
  Zr  Zr62  1  0.29466604  0.09580706  0.37321155  1
  Zr  Zr63  1  0.69848705  0.10353206  0.61830815  1
  Zr  Zr64  1  0.59207169  -0.00274608  0.24175052  1
  Zr  Zr65  1  0.00313117  0.58586895  0.25987787  1
  Zr  Zr66  1  0.20493036  0.80540998  0.02128109  1
  Zr  Zr67  1  0.60019328  0.20829357  -0.00506296  1
  Zr  Zr68  1  0.50088787  0.69237563  0.61534277  1
  Zr  Zr69  1  0.49836672  0.30531961  0.13008648  1
  Zr  Zr70  1  0.30645357  0.70887725  0.38652870  1
  Zr  Zr71  1  0.70466176  0.49248329  0.11640871  1
  Zr  Zr72  1  0.90321065  0.70344049  0.37174294  1
  Zr  Zr73  1  0.40611840  0.60171659  0.26681007  1
  Zr  Zr74  1  0.70989629  0.88902754  0.88456446  1
  Zr  Zr75  1  0.50379466  0.08184918  0.38587506  1
  Zr  Zr76  1  0.30114310  0.10136290  0.11434926  1
  Zr  Zr77  1  0.80250464  0.21911339  0.51008128  1
  Zr  Zr78  1  0.60396512  0.80002410  0.75052914  1
  Zr  Zr79  1  0.20801753  0.41618522  0.74673027  1
  Ta  Ta80  1  0.19742722  -0.00142088  -0.00847242  1
  Ta  Ta81  1  -0.00785834  0.19794287  0.24401366  1
  Ta  Ta82  1  0.80996995  0.40561009  0.73468847  1
  Ta  Ta83  1  0.38581359  0.59216938  0.75303292  1
  Ta  Ta84  1  0.29050874  0.29701357  0.37490428  1
  Ta  Ta85  1  0.80347571  0.79059079  0.00501700  1
  Ta  Ta86  1  0.90298264  0.09536292  0.62373975  1
  Ta  Ta87  1  0.71754825  0.10568095  0.88892019  1
  Ta  Ta88  1  0.09663278  0.10534562  0.38199655  1
  Ta  Ta89  1  0.60273390  0.80255796  0.50173685  1
  Ta  Ta90  1  0.80756804  0.79809318  0.74595364  1
  Ta  Ta91  1  -0.00153927  0.60327049  -0.01287386  1
  Ta  Ta92  1  0.60820554  0.20206317  0.23735319  1
  Ta  Ta93  1  0.60200990  0.39930094  0.75550477  1
  Ta  Ta94  1  0.50533679  0.90390611  0.61861034  1
  Ta  Ta95  1  0.30305521  0.50543599  0.61141766  1
  Ta  Ta96  1  0.59978239  0.19521484  0.76748013  1
  Ta  Ta97  1  0.30712340  0.69546615  0.13220941  1
  Ta  Ta98  1  0.50924524  0.09632926  0.61536861  1
  Ta  Ta99  1  0.70162418  0.90369200  0.62269978  1
  Ta  Ta100  1  0.30214939  0.29798237  0.63918534  1
  Ta  Ta101  1  0.69315859  0.50630179  0.63661918  1
  Ta  Ta102  1  0.28774574  0.49925376  0.39543168  1
  Ta  Ta103  1  0.50527302  0.70837787  0.38800366  1
  Ta  Ta104  1  0.40789723  0.80829727  0.23636119  1
  Ta  Ta105  1  0.71004302  0.50008665  0.87125968  1
  Ta  Ta106  1  0.40681470  0.59463332  0.48863889  1
  Ta  Ta107  1  0.51423163  0.28932455  0.37440647  1
  Ta  Ta108  1  0.19653506  0.20497239  0.51352238  1
  Ta  Ta109  1  0.89871584  0.49027203  0.88136999  1
  Ta  Ta110  1  0.09547290  0.89880173  0.63239583  1
  Ta  Ta111  1  0.39777028  0.79726864  0.72877976  1
  Ta  Ta112  1  0.38746202  0.60220737  -0.00978514  1
  Ta  Ta113  1  0.31835255  0.90472903  0.36946240  1
  Ta  Ta114  1  0.49764619  0.09978538  0.11808068  1
  Ta  Ta115  1  0.09300133  0.10110573  0.10214877  1
  Ta  Ta116  1  0.09875886  0.29735930  0.65211601  1
  Ta  Ta117  1  0.09237701  0.30218494  0.86058097  1
  Ta  Ta118  1  0.80952564  0.20944620  0.24778050  1
  Ta  Ta119  1  0.29811760  0.69394129  0.61541898  1
  Ti  Ti120  1  0.90511724  0.90206683  0.62451984  1
  Ti  Ti121  1  0.40449177  0.19781685  -0.01762631  1
  Ti  Ti122  1  0.61033710  0.59156434  0.49335540  1
  Ti  Ti123  1  0.00728448  0.60051879  0.49421833  1
  Ti  Ti124  1  0.90163552  0.91178955  0.10741261  1
  Ti  Ti125  1  0.70898236  0.69259241  0.13251639  1
  Ti  Ti126  1  0.80519418  0.19761730  0.74717420  1
  Ti  Ti127  1  0.90663080  0.69867974  0.61869403  1
  Ti  Ti128  1  -0.00214777  0.20474383  -0.02079161  1
  Ti  Ti129  1  0.80062335  0.59549034  0.51372155  1
  Ti  Ti130  1  0.00220150  -0.00279568  -0.02379335  1
  Ti  Ti131  1  -0.01670910  0.38867693  0.25297161  1
  Ti  Ti132  1  0.10021841  0.70337058  0.62053537  1
  Ti  Ti133  1  0.88893700  0.30326506  0.10364672  1
  Ti  Ti134  1  0.89551404  0.68754822  0.13094630  1
  Ti  Ti135  1  0.40241729  -0.01125123  0.50626073  1
  Ti  Ti136  1  0.10649070  0.10985312  0.87333511  1
  Ti  Ti137  1  0.09914890  0.09969876  0.63360205  1
  Ti  Ti138  1  0.00388181  0.00808667  0.23694245  1
  Ti  Ti139  1  0.08989476  0.49531048  0.10914215  1
  Ti  Ti140  1  0.80900629  -0.00689823  0.49748561  1
  Ti  Ti141  1  0.89844283  0.70607572  0.87678965  1
  Ti  Ti142  1  0.09641509  0.50836396  0.62662901  1
  Ti  Ti143  1  -0.00528794  0.79635755  0.75011196  1
  Ti  Ti144  1  -0.00317450  0.80550303  0.49913013  1
  Ti  Ti145  1  0.39668631  0.39765038  -0.01937791  1
  Ti  Ti146  1  0.19686029  0.60303803  0.00088771  1
  Ti  Ti147  1  0.40872544  0.18692564  0.76838700  1
  Ti  Ti148  1  0.20011442  0.19866486  -0.00887154  1
  Ti  Ti149  1  0.80770099  0.80323341  0.24241408  1
  Ti  Ti150  1  0.60866783  0.38811557  0.51792296  1
  Ti  Ti151  1  0.40285145  0.40137851  0.75736733  1
  Ti  Ti152  1  0.69916027  0.70073558  0.62078774  1
  Ti  Ti153  1  0.49229596  0.50050112  0.87307156  1
  Ti  Ti154  1  0.52193157  0.48533041  0.38241266  1
  Ti  Ti155  1  0.90209468  0.30347456  0.86905611  1
  Ti  Ti156  1  -0.00619239  0.19494255  0.75405853  1
  Ti  Ti157  1  0.80061468  0.60420503  -0.00926738  1
  Ti  Ti158  1  0.79689416  0.40156119  0.24205652  1
  Ti  Ti159  1  0.30039774  0.89713061  0.62739561  1
  Mo  Mo160  1  0.89709129  0.90328856  0.37541486  1
  Mo  Mo161  1  0.89708932  0.30103709  0.36674666  1
  Mo  Mo162  1  0.49087473  0.69473693  0.11895113  1
  Mo  Mo163  1  0.89880916  0.51241129  0.61906345  1
  Mo  Mo164  1  0.60567920  -0.00569834  0.50578462  1
  Mo  Mo165  1  0.40208581  0.80479695  0.51382071  1
  Mo  Mo166  1  0.09134599  0.91698121  0.11480988  1
  Mo  Mo167  1  0.90506734  0.10742298  0.88105267  1
  Mo  Mo168  1  0.19402769  0.60135802  0.50405883  1
  Mo  Mo169  1  0.49864888  0.90354282  0.12473668  1
  Mo  Mo170  1  -0.00205723  0.00049881  0.52269517  1
  Mo  Mo171  1  0.71118097  0.69839484  0.88217836  1
  Mo  Mo172  1  0.09454240  0.70436784  0.39433769  1
  Mo  Mo173  1  0.30514321  0.50588030  0.87776675  1
  Mo  Mo174  1  0.60046031  0.39839918  0.24887667  1
  Mo  Mo175  1  0.90402456  0.89238904  0.87985822  1
  Mo  Mo176  1  0.81148841  -0.00466761  -0.01215821  1
  Mo  Mo177  1  0.29764243  0.09761674  0.88566046  1
  Mo  Mo178  1  0.19794476  0.60371991  0.72205205  1
  Mo  Mo179  1  0.50362696  0.10160956  0.89111407  1
  Mo  Mo180  1  0.00007889  0.39725173  -0.01964824  1
  Mo  Mo181  1  0.59759906  0.20591567  0.50627560  1
  Mo  Mo182  1  0.80220053  0.59903839  0.23822912  1
  Mo  Mo183  1  0.40063000  -0.00876343  0.23671830  1
  Mo  Mo184  1  0.19720127  0.79888169  0.72235012  1
  Mo  Mo185  1  0.39470194  0.79313336  0.02026755  1
  Mo  Mo186  1  0.30024915  0.90147875  0.13391857  1
  Mo  Mo187  1  0.80146640  0.39793553  -0.00580173  1
  Mo  Mo188  1  -0.00354836  0.40251194  0.74728895  1
  Mo  Mo189  1  0.80795392  0.20679191  -0.00744809  1
  Mo  Mo190  1  0.49878509  0.89341690  0.86562254  1
  Mo  Mo191  1  0.70772893  0.30118945  0.13340818  1
  Mo  Mo192  1  0.69647676  0.30104021  0.65063819  1
  Mo  Mo193  1  0.09484880  0.69991155  0.87304859  1
  Mo  Mo194  1  0.49498610  0.88988689  0.39122338  1
  Mo  Mo195  1  0.19608720  0.19681058  0.74681125  1
  Mo  Mo196  1  0.08935961  0.49923392  0.39504913  1
  Mo  Mo197  1  0.90341692  0.29492206  0.65197103  1
  Mo  Mo198  1  0.69993895  0.50413949  0.38273123  1
  Mo  Mo199  1  0.49764782  0.30153353  0.86016470  1
