# generated using pymatgen
data_HfZrTaTiMo
_symmetry_space_group_name_H-M   'P 1'
_cell_length_a   15.82686313
_cell_length_b   15.82639310
_cell_length_c   15.41259825
_cell_angle_alpha   90.00437263
_cell_angle_beta   89.91919445
_cell_angle_gamma   90.08782489
_symmetry_Int_Tables_number   1
_chemical_formula_structural   HfZrTaTiMo
_chemical_formula_sum   'Hf40 Zr40 Ta40 Ti40 Mo40'
_cell_volume   3860.57247654
_cell_formula_units_Z   40
loop_
 _symmetry_equiv_pos_site_id
 _symmetry_equiv_pos_as_xyz
  1  'x, y, z'
loop_
 _atom_site_type_symbol
 _atom_site_label
 _atom_site_symmetry_multiplicity
 _atom_site_fract_x
 _atom_site_fract_y
 _atom_site_fract_z
 _atom_site_occupancy
  Hf  Hf0  1  0.19488156  0.58391540  -0.00481346  1
  Hf  Hf1  1  0.81223067  0.40707171  0.26521233  1
  Hf  Hf2  1  0.38313294  0.58613059  0.48965093  1
  Hf  Hf3  1  0.00955899  0.00853710  0.51328938  1
  Hf  Hf4  1  0.90792510  0.49856511  0.11222329  1
  Hf  Hf5  1  0.80488684  0.00604430  0.74706558  1
  Hf  Hf6  1  0.10501536  0.49635082  0.63155320  1
  Hf  Hf7  1  0.30730841  0.48180141  0.88606899  1
  Hf  Hf8  1  0.41009523  0.60678158  0.76488696  1
  Hf  Hf9  1  0.30110887  0.30109472  0.62915899  1
  Hf  Hf10  1  0.60548516  0.80226130  0.49301184  1
  Hf  Hf11  1  0.60101480  0.58586223  0.74424763  1
  Hf  Hf12  1  0.09106484  0.69743167  0.88204807  1
  Hf  Hf13  1  -0.00559319  0.80165064  0.51554685  1
  Hf  Hf14  1  0.80341062  0.00264146  0.25227262  1
  Hf  Hf15  1  0.20366287  0.19054677  0.49999271  1
  Hf  Hf16  1  -0.00030756  0.39865082  0.26450207  1
  Hf  Hf17  1  0.10168892  0.29926569  0.62524576  1
  Hf  Hf18  1  0.69606528  0.10468338  0.38048991  1
  Hf  Hf19  1  0.10989689  0.09474282  0.37060880  1
  Hf  Hf20  1  0.41113083  0.39771775  0.75097058  1
  Hf  Hf21  1  0.00875676  0.00743648  0.00519722  1
  Hf  Hf22  1  0.30366624  0.69577937  0.63267204  1
  Hf  Hf23  1  0.11137366  0.30484882  0.13806002  1
  Hf  Hf24  1  0.49346910  0.30437769  0.88811642  1
  Hf  Hf25  1  0.30630982  0.29309740  0.36073300  1
  Hf  Hf26  1  0.49806683  0.49712166  0.61740441  1
  Hf  Hf27  1  0.59294112  0.20535404  0.75098071  1
  Hf  Hf28  1  0.79606490  -0.00540832  0.50220426  1
  Hf  Hf29  1  0.10455203  0.69224098  0.63192694  1
  Hf  Hf30  1  -0.00220484  0.00213602  0.73807560  1
  Hf  Hf31  1  0.20547211  0.81481040  -0.00977953  1
  Hf  Hf32  1  0.78473529  0.21737415  -0.00517771  1
  Hf  Hf33  1  0.19831246  0.79537471  0.49908029  1
  Hf  Hf34  1  0.90116429  0.69583891  0.37752015  1
  Hf  Hf35  1  0.49781529  0.09775580  0.13536280  1
  Hf  Hf36  1  0.69122911  0.90205205  0.63377774  1
  Hf  Hf37  1  0.70068782  0.70105810  0.36804589  1
  Hf  Hf38  1  0.50175298  0.29474409  0.38376518  1
  Hf  Hf39  1  0.09694314  0.88861421  0.12294840  1
  Zr  Zr40  1  0.78139028  0.60421218  0.01390834  1
  Zr  Zr41  1  0.20675726  0.80238421  0.76226106  1
  Zr  Zr42  1  0.60535937  0.39248819  0.01282795  1
  Zr  Zr43  1  0.89651988  0.70368913  0.88974538  1
  Zr  Zr44  1  0.58651240  0.59974521  0.23613480  1
  Zr  Zr45  1  0.69946932  0.10308481  0.12776075  1
  Zr  Zr46  1  0.89952168  0.89910730  0.37837643  1
  Zr  Zr47  1  0.68992823  0.69245103  0.87309272  1
  Zr  Zr48  1  -0.00578516  0.20070450  0.74385357  1
  Zr  Zr49  1  0.90279456  0.10807558  0.88335008  1
  Zr  Zr50  1  0.29259190  0.69612451  0.12194766  1
  Zr  Zr51  1  0.58231256  0.78976936  0.75260486  1
  Zr  Zr52  1  0.29247576  0.90620336  0.36721147  1
  Zr  Zr53  1  -0.00353777  0.40570517  0.48230823  1
  Zr  Zr54  1  0.39617250  0.18541750  0.75204352  1
  Zr  Zr55  1  0.59664005  -0.01147851  0.00124859  1
  Zr  Zr56  1  0.39980266  0.79141830  0.24370758  1
  Zr  Zr57  1  -0.00479156  0.00596838  0.24164538  1
  Zr  Zr58  1  0.39172213  0.19491759  0.00795195  1
  Zr  Zr59  1  0.90116409  0.50195497  0.88622647  1
  Zr  Zr60  1  0.80711286  0.79741203  0.73852220  1
  Zr  Zr61  1  0.81283917  0.20583429  0.25889258  1
  Zr  Zr62  1  0.42620073  0.39928948  0.23564991  1
  Zr  Zr63  1  0.49731305  0.90558800  0.36809253  1
  Zr  Zr64  1  0.21230017  0.41043850  0.48583764  1
  Zr  Zr65  1  0.11853134  0.52062906  0.36846395  1
  Zr  Zr66  1  0.20287477  -0.00000323  0.22647990  1
  Zr  Zr67  1  -0.00643391  0.80701537  0.74498112  1
  Zr  Zr68  1  0.39725281  0.79461740  0.48846680  1
  Zr  Zr69  1  0.28034628  0.68058954  0.35739389  1
  Zr  Zr70  1  0.58936857  0.00737997  0.74652303  1
  Zr  Zr71  1  0.90061712  0.71124147  0.11666877  1
  Zr  Zr72  1  0.40998369  0.80217265  -0.00062719  1
  Zr  Zr73  1  0.79776628  0.58929128  0.50519851  1
  Zr  Zr74  1  0.79947111  -0.00297454  -0.00308217  1
  Zr  Zr75  1  0.89796424  0.31370545  0.88381882  1
  Zr  Zr76  1  0.11999296  0.11202790  0.86969506  1
  Zr  Zr77  1  0.89217122  0.30126881  0.61018322  1
  Zr  Zr78  1  0.08966383  0.69611710  0.11389625  1
  Zr  Zr79  1  0.30852464  0.92766704  0.87004868  1
  Ta  Ta80  1  0.90439278  0.11603322  0.11393381  1
  Ta  Ta81  1  0.69949291  0.49681689  0.13635704  1
  Ta  Ta82  1  0.28645453  0.28880551  0.87166339  1
  Ta  Ta83  1  0.10110418  0.89669683  0.37379409  1
  Ta  Ta84  1  0.79956119  0.59143915  0.73969174  1
  Ta  Ta85  1  0.49095182  0.89820115  0.61638490  1
  Ta  Ta86  1  0.50589404  0.50697424  0.89822774  1
  Ta  Ta87  1  0.70196070  0.30614732  0.14640529  1
  Ta  Ta88  1  0.30306041  0.90246327  0.62498283  1
  Ta  Ta89  1  -0.00867759  0.59943103  0.74670620  1
  Ta  Ta90  1  0.69735583  0.89340019  0.13837060  1
  Ta  Ta91  1  0.31164954  0.10152145  0.36080876  1
  Ta  Ta92  1  0.59374024  0.20902079  0.25187681  1
  Ta  Ta93  1  0.11460121  0.90750483  0.62552324  1
  Ta  Ta94  1  0.00135171  0.20170755  0.25024176  1
  Ta  Ta95  1  0.30069082  0.29997032  0.13702960  1
  Ta  Ta96  1  0.60176691  0.59494813  0.49990424  1
  Ta  Ta97  1  0.09675064  0.91151092  0.87323387  1
  Ta  Ta98  1  0.68969677  0.10379248  0.87385156  1
  Ta  Ta99  1  0.78780504  0.20706950  0.75449206  1
  Ta  Ta100  1  0.50206656  0.89813594  0.13709650  1
  Ta  Ta101  1  0.48705330  0.08782469  0.88778868  1
  Ta  Ta102  1  0.10569894  0.49579630  0.13368028  1
  Ta  Ta103  1  0.59458760  0.00173989  0.49641085  1
  Ta  Ta104  1  0.69930710  0.30320451  0.37874309  1
  Ta  Ta105  1  0.70268128  0.48665658  0.88118897  1
  Ta  Ta106  1  0.70020808  0.89767077  0.86746098  1
  Ta  Ta107  1  0.60315505  -0.00131295  0.26042375  1
  Ta  Ta108  1  0.60675378  0.40651610  0.49734463  1
  Ta  Ta109  1  0.79908674  0.79622944  0.51358706  1
  Ta  Ta110  1  -0.00460416  0.59824948  0.25084307  1
  Ta  Ta111  1  0.69945415  0.11093207  0.61723053  1
  Ta  Ta112  1  0.39518036  0.00721997  0.50244486  1
  Ta  Ta113  1  0.40143389  0.39708462  0.49699026  1
  Ta  Ta114  1  0.20264362  0.59383977  0.76614035  1
  Ta  Ta115  1  0.69522737  0.69218614  0.62429448  1
  Ta  Ta116  1  0.29421591  0.48658469  0.12282659  1
  Ta  Ta117  1  0.29598048  0.49872174  0.64106162  1
  Ta  Ta118  1  0.49885880  0.69733492  0.61060110  1
  Ta  Ta119  1  0.69826622  0.30086880  0.61312125  1
  Ti  Ti120  1  0.01322019  0.20816226  0.00604085  1
  Ti  Ti121  1  0.50316303  0.89949260  0.87525583  1
  Ti  Ti122  1  0.38628087  -0.00238223  0.02492698  1
  Ti  Ti123  1  0.89805728  0.89954093  0.11890248  1
  Ti  Ti124  1  0.50069674  0.29664415  0.61216607  1
  Ti  Ti125  1  0.30773197  0.69312212  0.88630097  1
  Ti  Ti126  1  0.29713883  0.09541375  0.61868259  1
  Ti  Ti127  1  0.69363940  0.50213666  0.36060601  1
  Ti  Ti128  1  0.40348041  0.00028872  0.73635920  1
  Ti  Ti129  1  0.39997109  0.59276656  0.23506499  1
  Ti  Ti130  1  0.90060689  0.49812546  0.62570938  1
  Ti  Ti131  1  0.79151549  0.40080273  0.74288937  1
  Ti  Ti132  1  0.50137826  0.49748960  0.37796731  1
  Ti  Ti133  1  0.59730836  0.19835591  0.00110436  1
  Ti  Ti134  1  0.59898508  0.79505620  0.24706763  1
  Ti  Ti135  1  0.09737849  0.70437006  0.36844882  1
  Ti  Ti136  1  0.89312217  0.11405380  0.61093779  1
  Ti  Ti137  1  0.49731141  0.10244845  0.60981650  1
  Ti  Ti138  1  0.02276699  0.40079378  0.00012583  1
  Ti  Ti139  1  0.10815378  0.30441959  0.86398666  1
  Ti  Ti140  1  0.09962092  0.49091683  0.86534806  1
  Ti  Ti141  1  0.40276203  0.80046992  0.75834107  1
  Ti  Ti142  1  0.10471609  0.29086651  0.37134999  1
  Ti  Ti143  1  0.79823301  0.80297383  0.24912701  1
  Ti  Ti144  1  0.59888119  0.20009669  0.50093765  1
  Ti  Ti145  1  0.49051128  0.10499208  0.37200179  1
  Ti  Ti146  1  0.60422929  0.78852726  0.01102579  1
  Ti  Ti147  1  0.80335854  0.60379178  0.24380263  1
  Ti  Ti148  1  0.00094851  0.60049113  0.50386967  1
  Ti  Ti149  1  0.20670760  0.01308313  0.01465613  1
  Ti  Ti150  1  0.20462471  0.01232503  0.74221059  1
  Ti  Ti151  1  0.78950278  0.80883724  0.00051796  1
  Ti  Ti152  1  -0.00272169  0.79972367  0.25386368  1
  Ti  Ti153  1  0.90277916  0.30669552  0.11340320  1
  Ti  Ti154  1  0.90812766  0.11388993  0.39222660  1
  Ti  Ti155  1  0.60631010  0.39599287  0.75025680  1
  Ti  Ti156  1  -0.00546917  0.40240769  0.74889325  1
  Ti  Ti157  1  0.79735370  0.40494105  0.48675124  1
  Ti  Ti158  1  0.49894916  0.68942471  0.37919950  1
  Ti  Ti159  1  0.20161749  0.19737398  0.01524517  1
  Mo  Mo160  1  0.10942149  0.10148553  0.63006339  1
  Mo  Mo161  1  -0.00657401  0.81752653  -0.01588405  1
  Mo  Mo162  1  0.79524222  0.20232378  0.49249605  1
  Mo  Mo163  1  0.89816950  0.90388322  0.88636840  1
  Mo  Mo164  1  0.89835516  0.90502269  0.61202407  1
  Mo  Mo165  1  0.19987801  0.19989834  0.25278544  1
  Mo  Mo166  1  0.49517384  0.50098635  0.10672033  1
  Mo  Mo167  1  0.59661315  0.60008570  0.01643162  1
  Mo  Mo168  1  0.00541131  0.58731224  -0.00430921  1
  Mo  Mo169  1  0.40375787  0.19842598  0.23955617  1
  Mo  Mo170  1  0.40393668  -0.00004436  0.24252931  1
  Mo  Mo171  1  0.50764477  0.29510453  0.12004300  1
  Mo  Mo172  1  0.09648417  0.11187210  0.12350440  1
  Mo  Mo173  1  0.30139223  0.10017055  0.87686923  1
  Mo  Mo174  1  0.18573551  0.79845431  0.25458828  1
  Mo  Mo175  1  0.70213995  0.48772305  0.62930656  1
  Mo  Mo176  1  0.69936050  0.70858729  0.14030286  1
  Mo  Mo177  1  0.50116988  0.69842555  0.11292454  1
  Mo  Mo178  1  0.49804894  0.69450951  0.89554876  1
  Mo  Mo179  1  0.29834843  0.10848403  0.14093767  1
  Mo  Mo180  1  0.20712427  0.40165125  0.26231430  1
  Mo  Mo181  1  0.19693028  0.59767085  0.22719732  1
  Mo  Mo182  1  0.20001492  0.59964665  0.51478496  1
  Mo  Mo183  1  0.89941082  0.68856236  0.61929816  1
  Mo  Mo184  1  0.39957737  0.59533753  0.00497887  1
  Mo  Mo185  1  0.19736878  0.38557232  -0.01031418  1
  Mo  Mo186  1  0.69875052  0.89865071  0.36286167  1
  Mo  Mo187  1  0.40214928  0.19530429  0.50728295  1
  Mo  Mo188  1  0.20069602  0.19678714  0.73595070  1
  Mo  Mo189  1  0.20639425  -0.00246685  0.50443665  1
  Mo  Mo190  1  0.30142559  0.90049123  0.12741582  1
  Mo  Mo191  1  0.90046034  0.51004698  0.37364076  1
  Mo  Mo192  1  0.69433744  0.30418690  0.86301446  1
  Mo  Mo193  1  0.90406224  0.29610651  0.38984811  1
  Mo  Mo194  1  0.00453318  0.20042885  0.49428064  1
  Mo  Mo195  1  0.39728231  0.39390585  0.01510722  1
  Mo  Mo196  1  0.20057996  0.39724651  0.76111943  1
  Mo  Mo197  1  0.31208325  0.49397230  0.34696824  1
  Mo  Mo198  1  0.79410188  0.39927016  0.01531195  1
  Mo  Mo199  1  0.60754723  0.40192722  0.25609210  1
