# generated using pymatgen
data_HfZrTaTiMo
_symmetry_space_group_name_H-M   'P 1'
_cell_length_a   15.83319191
_cell_length_b   15.82238766
_cell_length_c   15.38876360
_cell_angle_alpha   90.02308165
_cell_angle_beta   90.04019455
_cell_angle_gamma   89.91020121
_symmetry_Int_Tables_number   1
_chemical_formula_structural   HfZrTaTiMo
_chemical_formula_sum   'Hf40 Zr40 Ta40 Ti40 Mo40'
_cell_volume   3855.17013856
_cell_formula_units_Z   40
loop_
 _symmetry_equiv_pos_site_id
 _symmetry_equiv_pos_as_xyz
  1  'x, y, z'
loop_
 _atom_site_type_symbol
 _atom_site_label
 _atom_site_symmetry_multiplicity
 _atom_site_fract_x
 _atom_site_fract_y
 _atom_site_fract_z
 _atom_site_occupancy
  Hf  Hf0  1  0.89045155  0.90113743  0.11810722  1
  Hf  Hf1  1  0.51359070  0.70071441  0.86947537  1
  Hf  Hf2  1  0.60078528  0.40463470  0.00376913  1
  Hf  Hf3  1  0.88760371  0.90332208  0.61282000  1
  Hf  Hf4  1  0.19583539  0.80498051  -0.00848097  1
  Hf  Hf5  1  0.49598639  0.70036520  0.38164822  1
  Hf  Hf6  1  0.49843355  0.89649267  0.12984079  1
  Hf  Hf7  1  0.41244443  0.19956683  0.75939645  1
  Hf  Hf8  1  0.20781193  0.40560487  0.50335239  1
  Hf  Hf9  1  0.41384598  0.59142833  -0.01912515  1
  Hf  Hf10  1  0.40152026  0.19971234  0.24302769  1
  Hf  Hf11  1  0.70702828  0.27561440  0.13838117  1
  Hf  Hf12  1  0.30387384  0.09991189  0.63480454  1
  Hf  Hf13  1  0.39293619  0.19700548  0.48919891  1
  Hf  Hf14  1  0.58257989  0.58695623  0.24967759  1
  Hf  Hf15  1  0.28790091  0.49842589  0.87225775  1
  Hf  Hf16  1  0.20079311  0.60924287  0.51799738  1
  Hf  Hf17  1  0.89938258  0.89895782  0.38430358  1
  Hf  Hf18  1  0.69593326  0.28464316  0.61683393  1
  Hf  Hf19  1  0.29993737  0.90860823  0.62709561  1
  Hf  Hf20  1  0.19605270  0.80136907  0.75506931  1
  Hf  Hf21  1  0.10945656  0.50714298  0.37298387  1
  Hf  Hf22  1  0.30093018  0.31241173  0.36990341  1
  Hf  Hf23  1  0.30575265  0.51104908  0.10927591  1
  Hf  Hf24  1  0.59748600  0.80157133  0.73208850  1
  Hf  Hf25  1  0.19367514  0.20604538  0.23231183  1
  Hf  Hf26  1  0.49824502  0.91863612  0.61940403  1
  Hf  Hf27  1  0.90254658  0.69648662  0.10827994  1
  Hf  Hf28  1  0.77923416  0.01163901  -0.00974370  1
  Hf  Hf29  1  0.69901347  0.29634219  0.87004344  1
  Hf  Hf30  1  0.50214847  0.29430632  0.61305207  1
  Hf  Hf31  1  0.09227594  0.90646795  0.61755051  1
  Hf  Hf32  1  0.39903061  0.19111421  0.00652895  1
  Hf  Hf33  1  -0.01015243  0.00018756  0.76838474  1
  Hf  Hf34  1  0.29821093  0.89652643  0.37368963  1
  Hf  Hf35  1  0.11395824  0.29885568  0.88891030  1
  Hf  Hf36  1  0.70685122  0.48567434  0.61921426  1
  Hf  Hf37  1  0.49761973  0.49120726  0.61847027  1
  Hf  Hf38  1  0.19314321  0.20275611  0.49985394  1
  Hf  Hf39  1  0.60670408  0.81275639  0.51095947  1
  Zr  Zr40  1  0.81848647  0.38165989  0.25978530  1
  Zr  Zr41  1  0.89793863  0.09491913  0.60907863  1
  Zr  Zr42  1  0.18912576  -0.00485187  0.77421157  1
  Zr  Zr43  1  0.10512061  0.49747931  0.63689521  1
  Zr  Zr44  1  0.80550762  0.80074336  0.25649813  1
  Zr  Zr45  1  0.09992792  0.10237200  0.63026064  1
  Zr  Zr46  1  -0.01706495  0.21269368  0.24608723  1
  Zr  Zr47  1  0.80577118  0.39467119  0.00199663  1
  Zr  Zr48  1  0.60052174  0.60744866  0.51394281  1
  Zr  Zr49  1  0.49147581  0.69371150  0.12449676  1
  Zr  Zr50  1  0.82234399  0.59661258  0.25955140  1
  Zr  Zr51  1  0.69566660  0.70418426  0.36721429  1
  Zr  Zr52  1  0.69572886  0.08485940  0.60736378  1
  Zr  Zr53  1  0.51307448  0.08655102  0.12809408  1
  Zr  Zr54  1  0.28610494  0.12317089  0.87062987  1
  Zr  Zr55  1  0.40770094  0.40935827  0.23718238  1
  Zr  Zr56  1  0.80889376  0.39554783  0.75636049  1
  Zr  Zr57  1  0.40314696  0.39535575  0.77082334  1
  Zr  Zr58  1  0.09926646  0.70466636  0.37235906  1
  Zr  Zr59  1  0.79032857  0.59331049  0.00070315  1
  Zr  Zr60  1  0.30977142  0.90999973  0.12029196  1
  Zr  Zr61  1  0.20015641  0.40877783  0.23626640  1
  Zr  Zr62  1  0.69411626  0.88823868  0.87224232  1
  Zr  Zr63  1  -0.00605987  0.00757634  -0.00469229  1
  Zr  Zr64  1  0.89204625  0.87854750  0.89220344  1
  Zr  Zr65  1  -0.00841246  0.00650203  0.24952526  1
  Zr  Zr66  1  0.10294600  0.90452881  0.37067069  1
  Zr  Zr67  1  0.20055851  0.00785024  -0.00183155  1
  Zr  Zr68  1  0.80513259  0.18632295  0.75715532  1
  Zr  Zr69  1  0.40660642  0.60515160  0.74647484  1
  Zr  Zr70  1  0.20302613  0.79745540  0.23560885  1
  Zr  Zr71  1  0.90304263  0.69311899  0.88338259  1
  Zr  Zr72  1  0.00228851  0.40034978  0.75130010  1
  Zr  Zr73  1  0.60634095  0.79452279  0.00509284  1
  Zr  Zr74  1  0.59345532  0.01768333  0.76315658  1
  Zr  Zr75  1  0.70316101  0.49492191  0.37914406  1
  Zr  Zr76  1  0.70415727  0.49504205  0.14133087  1
  Zr  Zr77  1  0.89683729  0.29966236  0.60788922  1
  Zr  Zr78  1  0.68967786  0.91837794  0.14451939  1
  Zr  Zr79  1  0.81252183  0.59625082  0.74086213  1
  Ta  Ta80  1  0.91619459  0.29161744  0.88891738  1
  Ta  Ta81  1  0.69136694  0.50600433  0.86175873  1
  Ta  Ta82  1  0.00807814  0.39901757  0.49652783  1
  Ta  Ta83  1  0.59614494  0.38875702  0.25610805  1
  Ta  Ta84  1  0.69730257  0.70268886  0.13937156  1
  Ta  Ta85  1  0.48751941  0.49249632  0.39148515  1
  Ta  Ta86  1  0.39936732  0.00306884  0.48302050  1
  Ta  Ta87  1  0.30162869  0.30063698  0.62597309  1
  Ta  Ta88  1  0.09798121  0.30411903  0.37190429  1
  Ta  Ta89  1  0.50130466  0.29632620  0.37867060  1
  Ta  Ta90  1  0.00173455  0.40699935  0.25538515  1
  Ta  Ta91  1  0.38706124  0.60014088  0.26139322  1
  Ta  Ta92  1  0.09140750  0.89780815  0.12216269  1
  Ta  Ta93  1  0.38989507  0.59886581  0.50534813  1
  Ta  Ta94  1  0.50421451  0.10451621  0.60675936  1
  Ta  Ta95  1  0.39984790  0.79424681  0.25740503  1
  Ta  Ta96  1  0.51091078  0.29402119  0.12003918  1
  Ta  Ta97  1  -0.00265069  0.79274018  0.24327668  1
  Ta  Ta98  1  0.09363123  0.69853706  0.87590861  1
  Ta  Ta99  1  0.60291718  0.39156907  0.48888578  1
  Ta  Ta100  1  0.70863012  0.69916956  0.86112105  1
  Ta  Ta101  1  0.39851219  0.79858342  0.50479011  1
  Ta  Ta102  1  0.40758562  0.39767190  -0.00705449  1
  Ta  Ta103  1  0.00560373  0.20632487  0.74874384  1
  Ta  Ta104  1  0.20277782  0.00754933  0.49117696  1
  Ta  Ta105  1  0.79734602  -0.00793836  0.75935757  1
  Ta  Ta106  1  0.61373892  0.18098229  -0.00535443  1
  Ta  Ta107  1  0.20144586  0.80097681  0.51262708  1
  Ta  Ta108  1  0.39931679  0.00097620  0.77072895  1
  Ta  Ta109  1  -0.00172096  0.79977435  0.74558834  1
  Ta  Ta110  1  0.30299311  0.30542524  0.11010985  1
  Ta  Ta111  1  0.50602180  0.89791671  0.37176430  1
  Ta  Ta112  1  0.20444764  0.60493533  0.23810455  1
  Ta  Ta113  1  0.00248968  0.60189078  0.50872392  1
  Ta  Ta114  1  0.80359315  0.19265151  -0.00754124  1
  Ta  Ta115  1  0.90298498  0.70637113  0.61706224  1
  Ta  Ta116  1  0.29976842  0.70145226  0.87258276  1
  Ta  Ta117  1  0.29238359  0.09984224  0.36084193  1
  Ta  Ta118  1  0.80827606  0.60489213  0.49801669  1
  Ta  Ta119  1  0.79901758  0.19191881  0.47462199  1
  Ti  Ti120  1  0.60166462  0.60051302  0.73474006  1
  Ti  Ti121  1  0.91778248  0.48746056  0.11978891  1
  Ti  Ti122  1  0.00527792  0.59946703  0.24672327  1
  Ti  Ti123  1  -0.00728116  0.19897659  0.01649106  1
  Ti  Ti124  1  0.40210968  0.00250440  0.26283159  1
  Ti  Ti125  1  0.50765023  0.29134173  0.88729238  1
  Ti  Ti126  1  0.00239293  0.20310736  0.48932063  1
  Ti  Ti127  1  0.29485883  0.69877641  0.38107393  1
  Ti  Ti128  1  0.20253378  0.38134625  0.75013316  1
  Ti  Ti129  1  0.19687575  0.60529381  -0.00185884  1
  Ti  Ti130  1  0.40152878  0.80692935  0.75256276  1
  Ti  Ti131  1  0.10079350  0.10679808  0.36471617  1
  Ti  Ti132  1  0.90923133  0.49884072  0.38889909  1
  Ti  Ti133  1  0.30565901  0.70632552  0.63425183  1
  Ti  Ti134  1  0.60282110  0.59355527  0.00343509  1
  Ti  Ti135  1  0.09780940  0.69816877  0.11795604  1
  Ti  Ti136  1  0.90793275  0.49813231  0.88168648  1
  Ti  Ti137  1  0.00341924  0.01170586  0.48496540  1
  Ti  Ti138  1  0.59541145  0.39291321  0.75219421  1
  Ti  Ti139  1  0.08925806  0.11806626  0.87893715  1
  Ti  Ti140  1  0.30437045  0.49387718  0.63823299  1
  Ti  Ti141  1  0.71421022  0.70631537  0.63098357  1
  Ti  Ti142  1  0.19827902  0.60830957  0.74716546  1
  Ti  Ti143  1  0.86919323  0.10615278  0.13811433  1
  Ti  Ti144  1  0.00515431  0.79354958  0.50324861  1
  Ti  Ti145  1  0.69334615  0.09196576  0.36267517  1
  Ti  Ti146  1  0.30535115  0.70314397  0.11239054  1
  Ti  Ti147  1  0.09957005  0.50449011  0.86786878  1
  Ti  Ti148  1  0.00416293  0.60656719  0.73866840  1
  Ti  Ti149  1  0.20121663  0.00610236  0.23881635  1
  Ti  Ti150  1  0.08338816  0.32043633  0.11261787  1
  Ti  Ti151  1  0.01345984  0.58657935  0.00336947  1
  Ti  Ti152  1  0.49638857  0.90361963  0.88437567  1
  Ti  Ti153  1  0.09308711  0.09631560  0.12714916  1
  Ti  Ti154  1  0.69939470  0.29178035  0.37225905  1
  Ti  Ti155  1  0.90037841  0.49694731  0.60899521  1
  Ti  Ti156  1  0.19723395  0.20082625  0.02454441  1
  Ti  Ti157  1  0.19332332  0.41166897  0.00670243  1
  Ti  Ti158  1  0.79314498  0.80085336  0.49465285  1
  Ti  Ti159  1  0.39570054  0.80268449  -0.01337581  1
  Mo  Mo160  1  0.70523677  0.90116772  0.63201132  1
  Mo  Mo161  1  0.19602302  0.21311788  0.74047179  1
  Mo  Mo162  1  0.30640737  0.89766207  0.87587034  1
  Mo  Mo163  1  0.39754753  0.40080916  0.50272034  1
  Mo  Mo164  1  0.79811612  0.00461661  0.26720197  1
  Mo  Mo165  1  0.59674410  0.00172814  0.48320162  1
  Mo  Mo166  1  0.29954499  0.10150759  0.13967091  1
  Mo  Mo167  1  0.90066094  0.10002060  0.38237279  1
  Mo  Mo168  1  0.90301121  0.10524359  0.87591219  1
  Mo  Mo169  1  0.80234012  0.79942604  0.73602849  1
  Mo  Mo170  1  0.79188839  0.79468055  0.01887157  1
  Mo  Mo171  1  0.59390113  0.00094418  -0.01087562  1
  Mo  Mo172  1  0.59739958  0.20041643  0.26377894  1
  Mo  Mo173  1  0.80064727  0.19226304  0.27068043  1
  Mo  Mo174  1  0.69921085  0.10085595  0.86553989  1
  Mo  Mo175  1  0.30109281  0.51399203  0.37749776  1
  Mo  Mo176  1  0.49181869  0.70578663  0.61991356  1
  Mo  Mo177  1  0.29652918  0.30631494  0.89947795  1
  Mo  Mo178  1  0.59508076  0.20483332  0.75848793  1
  Mo  Mo179  1  0.78807347  -0.00810026  0.47924148  1
  Mo  Mo180  1  0.50089727  0.49248383  0.12417582  1
  Mo  Mo181  1  0.00605758  0.79380559  0.01325760  1
  Mo  Mo182  1  0.90114933  0.29798185  0.11064526  1
  Mo  Mo183  1  0.39932078  -0.00218242  -0.01654485  1
  Mo  Mo184  1  0.49819525  0.09914110  0.37737421  1
  Mo  Mo185  1  0.90760527  0.69916077  0.39536260  1
  Mo  Mo186  1  0.10154736  0.29816740  0.61893169  1
  Mo  Mo187  1  0.59237594  0.79617887  0.24942664  1
  Mo  Mo188  1  0.60124721  0.19601614  0.47824866  1
  Mo  Mo189  1  0.00590909  0.40562484  -0.00817193  1
  Mo  Mo190  1  0.09855173  0.51029811  0.12869855  1
  Mo  Mo191  1  0.09651834  0.70459376  0.63492814  1
  Mo  Mo192  1  0.80226525  0.39700164  0.48598788  1
  Mo  Mo193  1  0.90565021  0.30303256  0.39166030  1
  Mo  Mo194  1  0.08993407  0.88664301  0.88408450  1
  Mo  Mo195  1  0.69845714  0.10037914  0.14580867  1
  Mo  Mo196  1  0.49753603  0.09900151  0.89214115  1
  Mo  Mo197  1  0.59211188  0.00074810  0.27011847  1
  Mo  Mo198  1  0.69622303  0.90424969  0.36616944  1
  Mo  Mo199  1  0.51672591  0.49722055  0.86297362  1
