# generated using pymatgen
data_HfZrTaTiMo
_symmetry_space_group_name_H-M   'P 1'
_cell_length_a   15.84498067
_cell_length_b   15.83445086
_cell_length_c   15.38238925
_cell_angle_alpha   90.03607997
_cell_angle_beta   90.04200594
_cell_angle_gamma   90.03032500
_symmetry_Int_Tables_number   1
_chemical_formula_structural   HfZrTaTiMo
_chemical_formula_sum   'Hf40 Zr40 Ta40 Ti40 Mo40'
_cell_volume   3859.38632083
_cell_formula_units_Z   40
loop_
 _symmetry_equiv_pos_site_id
 _symmetry_equiv_pos_as_xyz
  1  'x, y, z'
loop_
 _atom_site_type_symbol
 _atom_site_label
 _atom_site_symmetry_multiplicity
 _atom_site_fract_x
 _atom_site_fract_y
 _atom_site_fract_z
 _atom_site_occupancy
  Hf  Hf0  1  0.50192621  0.29757312  0.35221756  1
  Hf  Hf1  1  0.80716299  0.59710081  -0.00277067  1
  Hf  Hf2  1  0.40175880  0.59153415  0.49423315  1
  Hf  Hf3  1  0.70263026  0.89929000  0.62119767  1
  Hf  Hf4  1  0.60289203  0.79765987  0.25993732  1
  Hf  Hf5  1  0.80190650  0.20143279  0.75269970  1
  Hf  Hf6  1  0.09651249  0.29396448  0.62247923  1
  Hf  Hf7  1  -0.01006344  0.21418191  0.25765014  1
  Hf  Hf8  1  -0.00535332  0.60378678  0.00704143  1
  Hf  Hf9  1  0.39468639  0.80568276  -0.01284488  1
  Hf  Hf10  1  0.10490508  0.49995754  0.12147426  1
  Hf  Hf11  1  0.20809446  0.59702877  0.50785385  1
  Hf  Hf12  1  0.22974436  0.20842042  0.00488406  1
  Hf  Hf13  1  0.30481841  0.49318514  0.12370861  1
  Hf  Hf14  1  0.79526049  0.41152029  0.49421510  1
  Hf  Hf15  1  -0.01499154  0.00107930  -0.01037764  1
  Hf  Hf16  1  0.70058224  0.70542226  0.61746017  1
  Hf  Hf17  1  0.30205385  0.89983224  0.63039470  1
  Hf  Hf18  1  0.89406306  0.10077792  0.60613444  1
  Hf  Hf19  1  0.09367242  0.09904509  0.61414076  1
  Hf  Hf20  1  0.89783670  0.10679474  0.38460433  1
  Hf  Hf21  1  0.49904449  0.10018933  0.37440146  1
  Hf  Hf22  1  0.31102100  0.91564303  0.86300176  1
  Hf  Hf23  1  -0.01040617  0.79941421  0.75838435  1
  Hf  Hf24  1  0.49179156  0.08143169  0.87664593  1
  Hf  Hf25  1  0.22068320  0.00108635  0.01107629  1
  Hf  Hf26  1  0.58653536  -0.00868340  0.01715259  1
  Hf  Hf27  1  0.69802247  0.50147157  0.13470699  1
  Hf  Hf28  1  0.59940275  0.39377911  0.75230153  1
  Hf  Hf29  1  0.10069001  0.89936651  0.12559226  1
  Hf  Hf30  1  0.79994756  0.80212450  0.26327102  1
  Hf  Hf31  1  0.20876797  0.59680987  0.75896757  1
  Hf  Hf32  1  0.30704476  0.70987187  0.13376210  1
  Hf  Hf33  1  0.80165771  0.81368967  -0.01157983  1
  Hf  Hf34  1  0.10786813  0.71159559  0.12205851  1
  Hf  Hf35  1  0.19920756  -0.00165419  0.49299593  1
  Hf  Hf36  1  0.09891228  0.70020889  0.87247605  1
  Hf  Hf37  1  0.10002214  0.70344665  0.36725898  1
  Hf  Hf38  1  0.59395012  0.20137994  0.00738657  1
  Hf  Hf39  1  0.88461091  0.10943954  0.13627198  1
  Zr  Zr40  1  0.39555955  0.36767938  0.00515617  1
  Zr  Zr41  1  0.10332520  0.49382038  0.87953490  1
  Zr  Zr42  1  -0.00945190  0.80672865  -0.01228986  1
  Zr  Zr43  1  -0.00623703  0.00318943  0.76180240  1
  Zr  Zr44  1  0.81374065  0.38821856  0.25293762  1
  Zr  Zr45  1  0.59106102  0.19615289  0.73698786  1
  Zr  Zr46  1  0.48164100  0.10502517  0.13454288  1
  Zr  Zr47  1  0.60225773  0.40219360  0.50558284  1
  Zr  Zr48  1  0.59530113  0.21257992  0.50815097  1
  Zr  Zr49  1  0.50044630  0.50444220  0.63793006  1
  Zr  Zr50  1  0.11049232  0.10141805  0.88477773  1
  Zr  Zr51  1  0.69902123  0.70089630  0.11823705  1
  Zr  Zr52  1  0.70539447  0.51405420  0.64090639  1
  Zr  Zr53  1  -0.00336651  0.40073022  0.49047937  1
  Zr  Zr54  1  0.22163603  0.60942756  -0.01065501  1
  Zr  Zr55  1  0.50421653  0.49633553  0.89215857  1
  Zr  Zr56  1  0.10288060  0.50402204  0.36134720  1
  Zr  Zr57  1  0.68780464  0.10353522  0.86669666  1
  Zr  Zr58  1  0.39771567  0.39114184  0.49298138  1
  Zr  Zr59  1  0.69083087  0.69758517  0.88151190  1
  Zr  Zr60  1  -0.00373236  -0.01881385  0.48525415  1
  Zr  Zr61  1  0.10449504  0.30101145  0.11778822  1
  Zr  Zr62  1  -0.00887876  0.20660152  0.76375281  1
  Zr  Zr63  1  0.69505537  0.10427380  0.37837239  1
  Zr  Zr64  1  0.91235503  0.49418470  0.86027921  1
  Zr  Zr65  1  0.51231570  0.49459810  0.34966454  1
  Zr  Zr66  1  0.40027373  0.79747845  0.49252338  1
  Zr  Zr67  1  0.50478436  0.69205757  0.11421256  1
  Zr  Zr68  1  0.20638701  0.39864049  0.50364429  1
  Zr  Zr69  1  0.09515208  0.49777458  0.64583881  1
  Zr  Zr70  1  0.30845420  0.69699430  0.63675778  1
  Zr  Zr71  1  0.79169288  0.00772585  -0.00507225  1
  Zr  Zr72  1  0.50921351  0.89558450  0.62567821  1
  Zr  Zr73  1  0.50309111  0.49893051  0.12248261  1
  Zr  Zr74  1  0.30373229  0.49437244  0.35122037  1
  Zr  Zr75  1  0.10316711  0.30790833  0.88575606  1
  Zr  Zr76  1  0.67350637  0.90755954  0.85215465  1
  Zr  Zr77  1  0.09588357  0.10297895  0.12173288  1
  Zr  Zr78  1  0.00253723  0.60206095  0.50575551  1
  Zr  Zr79  1  0.19325232  0.79834022  0.50007131  1
  Ta  Ta80  1  0.31383880  0.48646764  0.64530066  1
  Ta  Ta81  1  0.29955375  0.89578014  0.14110791  1
  Ta  Ta82  1  0.70358151  0.49565274  0.87367628  1
  Ta  Ta83  1  0.09580218  0.70432209  0.63836076  1
  Ta  Ta84  1  0.41795133  0.79330434  0.76354025  1
  Ta  Ta85  1  0.20325116  0.00706078  0.74037223  1
  Ta  Ta86  1  0.89301122  0.70189275  0.61386740  1
  Ta  Ta87  1  0.79653555  -0.00384091  0.26578986  1
  Ta  Ta88  1  0.20488335  0.19541283  0.74484426  1
  Ta  Ta89  1  0.89781715  0.51227997  0.36581465  1
  Ta  Ta90  1  -0.00064590  0.00399240  0.26059116  1
  Ta  Ta91  1  0.39689164  -0.00469019  0.25652380  1
  Ta  Ta92  1  -0.00037533  0.40068599  0.25181571  1
  Ta  Ta93  1  0.09682818  0.89597323  0.63378258  1
  Ta  Ta94  1  0.39683897  -0.00087253  0.49282688  1
  Ta  Ta95  1  0.80662987  0.81444911  0.48536570  1
  Ta  Ta96  1  0.47474752  0.30213025  0.63101770  1
  Ta  Ta97  1  0.70694812  0.28861589  0.13371588  1
  Ta  Ta98  1  -0.01850625  0.20268313  -0.00657343  1
  Ta  Ta99  1  0.80038396  0.80001600  0.75683015  1
  Ta  Ta100  1  0.51031709  0.69865823  0.61896339  1
  Ta  Ta101  1  0.20449886  0.20130742  0.49204024  1
  Ta  Ta102  1  0.19495431  0.00173553  0.25683338  1
  Ta  Ta103  1  0.60580639  0.59835043  0.49077745  1
  Ta  Ta104  1  0.70178190  0.09445716  0.61369065  1
  Ta  Ta105  1  0.80795450  0.39173753  0.75265113  1
  Ta  Ta106  1  0.89633816  0.90733472  0.14002711  1
  Ta  Ta107  1  0.20850079  0.38622840  0.74952509  1
  Ta  Ta108  1  0.61103755  0.38967320  0.00703299  1
  Ta  Ta109  1  0.90458367  0.70263454  0.38530925  1
  Ta  Ta110  1  0.89697456  0.50402887  0.63566420  1
  Ta  Ta111  1  0.69961722  0.90317337  0.13425061  1
  Ta  Ta112  1  0.80260683  0.39608094  0.00244013  1
  Ta  Ta113  1  0.30122381  0.70075989  0.35816572  1
  Ta  Ta114  1  0.30956526  0.10397234  0.86969679  1
  Ta  Ta115  1  0.29894296  0.09945649  0.37308282  1
  Ta  Ta116  1  0.29863501  0.89396895  0.36264454  1
  Ta  Ta117  1  0.89540501  0.89828665  0.62665619  1
  Ta  Ta118  1  0.50477147  0.69680392  0.37587782  1
  Ta  Ta119  1  0.40245809  0.60237457  0.77550089  1
  Ti  Ti120  1  -0.00495402  0.80373219  0.24963244  1
  Ti  Ti121  1  0.49409541  0.10248486  0.60584263  1
  Ti  Ti122  1  0.70153760  0.50432010  0.35910048  1
  Ti  Ti123  1  0.70485914  0.69745734  0.38869814  1
  Ti  Ti124  1  0.69859437  0.30347797  0.87662180  1
  Ti  Ti125  1  0.30309520  0.29507211  0.36070087  1
  Ti  Ti126  1  0.19677920  0.38880798  0.24698173  1
  Ti  Ti127  1  0.39250773  0.20012628  0.74650220  1
  Ti  Ti128  1  0.11169566  0.90307525  0.87699026  1
  Ti  Ti129  1  0.30544263  0.11032515  0.61051122  1
  Ti  Ti130  1  0.20463039  0.80346414  0.75777348  1
  Ti  Ti131  1  -0.01120432  0.39810171  0.01439183  1
  Ti  Ti132  1  0.59868650  -0.00621200  0.25065983  1
  Ti  Ti133  1  0.19377145  0.19195117  0.26040416  1
  Ti  Ti134  1  0.09919326  0.29408516  0.37978412  1
  Ti  Ti135  1  0.80029068  0.00439329  0.75187805  1
  Ti  Ti136  1  0.90208444  0.30235592  0.61344287  1
  Ti  Ti137  1  -0.00475861  0.60619350  0.24257506  1
  Ti  Ti138  1  0.59157004  0.61218431  0.76204412  1
  Ti  Ti139  1  0.89959065  0.50092856  0.13683574  1
  Ti  Ti140  1  0.31434621  0.28087711  0.15222812  1
  Ti  Ti141  1  0.48920207  0.88941538  0.13868510  1
  Ti  Ti142  1  0.30435249  0.48012515  0.88166842  1
  Ti  Ti143  1  0.50193615  0.89717498  0.37711272  1
  Ti  Ti144  1  0.09843738  0.89310315  0.36466311  1
  Ti  Ti145  1  0.89837600  0.71030596  0.12868117  1
  Ti  Ti146  1  0.81043744  0.61105214  0.76235392  1
  Ti  Ti147  1  0.50525812  0.29737592  0.14614819  1
  Ti  Ti148  1  0.20122142  0.60394402  0.24185915  1
  Ti  Ti149  1  0.70582742  0.30171409  0.62814126  1
  Ti  Ti150  1  0.49260632  0.28742909  0.87189931  1
  Ti  Ti151  1  0.79678686  0.21634955  0.49272892  1
  Ti  Ti152  1  0.80213025  0.61008909  0.25411495  1
  Ti  Ti153  1  0.59250162  0.80740930  -0.00333550  1
  Ti  Ti154  1  0.69549337  0.29941675  0.35466968  1
  Ti  Ti155  1  0.69568416  0.10096955  0.14164440  1
  Ti  Ti156  1  0.40857908  0.60595194  0.25115532  1
  Ti  Ti157  1  0.40639792  0.00792306  0.73105480  1
  Ti  Ti158  1  0.60209720  -0.00738562  0.49629102  1
  Ti  Ti159  1  0.79760783  0.20612153  -0.00814316  1
  Mo  Mo160  1  0.20118079  0.81065963  -0.01563868  1
  Mo  Mo161  1  0.39760984  -0.00407440  0.02071635  1
  Mo  Mo162  1  0.19639649  0.80271224  0.25743154  1
  Mo  Mo163  1  0.50138039  0.69986599  0.89210416  1
  Mo  Mo164  1  0.39120596  0.19843768  0.48955563  1
  Mo  Mo165  1  0.88667835  0.90656886  0.85629506  1
  Mo  Mo166  1  0.29604263  0.09751446  0.15198568  1
  Mo  Mo167  1  -0.00515889  0.60654942  0.73921789  1
  Mo  Mo168  1  0.89642522  0.69962837  0.87329869  1
  Mo  Mo169  1  0.80129903  0.60216478  0.48714761  1
  Mo  Mo170  1  0.88892281  0.10504420  0.87926588  1
  Mo  Mo171  1  0.39535004  0.19474998  0.26793357  1
  Mo  Mo172  1  -0.00404123  0.39466386  0.73831552  1
  Mo  Mo173  1  0.89759339  0.29991163  0.11249668  1
  Mo  Mo174  1  0.89814654  0.30494199  0.39011647  1
  Mo  Mo175  1  0.79686745  0.19807474  0.25927420  1
  Mo  Mo176  1  0.40218348  0.18901927  -0.00219571  1
  Mo  Mo177  1  0.60772240  0.59013108  -0.00971260  1
  Mo  Mo178  1  0.39811968  0.39512778  0.23778454  1
  Mo  Mo179  1  0.89301074  0.30536381  0.88852067  1
  Mo  Mo180  1  -0.00117350  0.79968977  0.51306154  1
  Mo  Mo181  1  0.49839493  0.90331524  0.86348999  1
  Mo  Mo182  1  0.30442608  0.29239543  0.86000574  1
  Mo  Mo183  1  0.59786450  0.79199002  0.75031957  1
  Mo  Mo184  1  0.69525357  0.90252629  0.38065171  1
  Mo  Mo185  1  0.29852876  0.29284129  0.63291117  1
  Mo  Mo186  1  0.30026183  0.71023114  0.86438895  1
  Mo  Mo187  1  0.61083825  0.60523319  0.26642491  1
  Mo  Mo188  1  0.60308105  0.79620238  0.48304008  1
  Mo  Mo189  1  0.60946083  0.39663714  0.23310135  1
  Mo  Mo190  1  0.79545739  -0.00256973  0.49193440  1
  Mo  Mo191  1  0.90376136  0.89727481  0.36207789  1
  Mo  Mo192  1  0.39931057  0.39526420  0.76596105  1
  Mo  Mo193  1  0.20637300  0.39629561  0.00663963  1
  Mo  Mo194  1  0.00270082  0.20287574  0.48844647  1
  Mo  Mo195  1  0.60233637  0.19426949  0.23979513  1
  Mo  Mo196  1  0.40016459  0.60291282  -0.01688956  1
  Mo  Mo197  1  0.40625691  0.80116210  0.25904138  1
  Mo  Mo198  1  0.10163691  0.10388033  0.37623096  1
  Mo  Mo199  1  0.59352419  0.00717158  0.72195191  1
