# generated using pymatgen
data_HfZrTaTiMo
_symmetry_space_group_name_H-M   'P 1'
_cell_length_a   15.82605666
_cell_length_b   15.84962094
_cell_length_c   15.41262733
_cell_angle_alpha   89.95969813
_cell_angle_beta   90.01377292
_cell_angle_gamma   90.10182898
_symmetry_Int_Tables_number   1
_chemical_formula_structural   HfZrTaTiMo
_chemical_formula_sum   'Hf40 Zr40 Ta40 Ti40 Mo40'
_cell_volume   3866.05001388
_cell_formula_units_Z   40
loop_
 _symmetry_equiv_pos_site_id
 _symmetry_equiv_pos_as_xyz
  1  'x, y, z'
loop_
 _atom_site_type_symbol
 _atom_site_label
 _atom_site_symmetry_multiplicity
 _atom_site_fract_x
 _atom_site_fract_y
 _atom_site_fract_z
 _atom_site_occupancy
  Hf  Hf0  1  0.40854324  -0.00861343  0.02167047  1
  Hf  Hf1  1  0.18910966  0.40788002  0.50169726  1
  Hf  Hf2  1  0.69281619  0.91159505  0.88580990  1
  Hf  Hf3  1  0.30236381  0.70056821  0.87687336  1
  Hf  Hf4  1  0.61804006  0.81714492  0.49062777  1
  Hf  Hf5  1  0.09677166  0.29334087  0.64566476  1
  Hf  Hf6  1  0.40442582  0.20360000  0.75884723  1
  Hf  Hf7  1  0.21008363  0.19757968  0.75661329  1
  Hf  Hf8  1  0.09868476  0.67702138  0.37082761  1
  Hf  Hf9  1  0.38733213  0.20372226  0.25007067  1
  Hf  Hf10  1  0.40559270  0.81056450  0.48465754  1
  Hf  Hf11  1  0.11016117  0.28714590  0.11348414  1
  Hf  Hf12  1  0.49187642  0.69969085  0.89585792  1
  Hf  Hf13  1  0.60453481  0.19970747  0.47772000  1
  Hf  Hf14  1  0.21013033  0.59359099  0.00337703  1
  Hf  Hf15  1  0.68825895  0.48650662  0.87775348  1
  Hf  Hf16  1  0.71035512  0.50684699  0.36990379  1
  Hf  Hf17  1  0.29902041  0.90516535  0.87892110  1
  Hf  Hf18  1  0.30508148  0.91140368  0.61264841  1
  Hf  Hf19  1  0.60309073  0.40564425  0.48660646  1
  Hf  Hf20  1  0.69471421  0.30219796  0.62553889  1
  Hf  Hf21  1  0.40859053  0.43216842  0.01533770  1
  Hf  Hf22  1  0.28530829  0.51176131  0.36547849  1
  Hf  Hf23  1  0.92062076  0.09237317  0.65026103  1
  Hf  Hf24  1  0.51326496  0.10583805  0.89412078  1
  Hf  Hf25  1  0.30476325  0.10141503  0.89620992  1
  Hf  Hf26  1  0.09750225  0.30183108  0.86914919  1
  Hf  Hf27  1  0.48625781  0.09189687  0.36372777  1
  Hf  Hf28  1  0.39634844  0.59962684  0.48951493  1
  Hf  Hf29  1  -0.00356419  0.79431035  0.25773570  1
  Hf  Hf30  1  0.29394962  0.89697052  0.13208783  1
  Hf  Hf31  1  0.60209356  0.80653785  0.74300288  1
  Hf  Hf32  1  0.00594605  0.18995653  -0.00548642  1
  Hf  Hf33  1  0.10372631  0.70789420  0.12343487  1
  Hf  Hf34  1  0.90192536  0.90094778  0.10907593  1
  Hf  Hf35  1  0.30915869  0.30245940  0.60866002  1
  Hf  Hf36  1  0.79390873  0.79620785  0.23237504  1
  Hf  Hf37  1  0.49521170  0.90191017  0.87762813  1
  Hf  Hf38  1  0.09725467  0.10283648  0.36482266  1
  Hf  Hf39  1  0.50122820  0.11110145  0.13149523  1
  Zr  Zr40  1  0.79350189  0.39487019  0.75334380  1
  Zr  Zr41  1  0.00252522  0.19565673  0.50243192  1
  Zr  Zr42  1  0.59917009  -0.00220408  0.48585615  1
  Zr  Zr43  1  0.79352051  -0.01171888  0.51334834  1
  Zr  Zr44  1  0.40013425  0.79994185  0.73814585  1
  Zr  Zr45  1  0.40333247  0.80388738  0.26433933  1
  Zr  Zr46  1  0.80682801  0.20459720  0.24141219  1
  Zr  Zr47  1  0.48955732  0.10672480  0.61050488  1
  Zr  Zr48  1  0.60056936  0.60189949  0.74964958  1
  Zr  Zr49  1  0.71293831  0.70095228  0.61064756  1
  Zr  Zr50  1  0.30280888  0.69373717  0.13161831  1
  Zr  Zr51  1  0.90813031  0.89601038  0.88502608  1
  Zr  Zr52  1  0.80825811  0.40181078  0.22934527  1
  Zr  Zr53  1  0.69868236  0.10521470  0.63355833  1
  Zr  Zr54  1  0.50830066  0.30906195  0.90068012  1
  Zr  Zr55  1  0.80083490  0.78709998  0.76046751  1
  Zr  Zr56  1  0.79946715  0.58480979  0.00685999  1
  Zr  Zr57  1  0.18604743  0.00712445  0.50093706  1
  Zr  Zr58  1  0.51648554  0.69646548  0.37102581  1
  Zr  Zr59  1  0.19583274  0.80178922  0.74022219  1
  Zr  Zr60  1  0.78845633  0.79863845  0.00484960  1
  Zr  Zr61  1  -0.00622927  0.78406693  0.50152763  1
  Zr  Zr62  1  0.49597464  0.69352340  0.12674721  1
  Zr  Zr63  1  0.30423729  0.49976110  0.62446714  1
  Zr  Zr64  1  0.68323882  0.69428265  0.89709750  1
  Zr  Zr65  1  0.50305825  0.69864908  0.60973320  1
  Zr  Zr66  1  0.09968499  0.50065329  0.86096100  1
  Zr  Zr67  1  -0.00047723  0.20118540  0.23808170  1
  Zr  Zr68  1  0.90798991  0.50286747  0.36844625  1
  Zr  Zr69  1  -0.00494266  0.39864263  0.51481036  1
  Zr  Zr70  1  0.70912604  0.50751129  0.62612454  1
  Zr  Zr71  1  0.88353360  0.88983850  0.37815446  1
  Zr  Zr72  1  0.78910935  0.18824482  -0.00783358  1
  Zr  Zr73  1  0.09697495  0.91162684  0.11619666  1
  Zr  Zr74  1  0.20321807  0.40674221  -0.00317896  1
  Zr  Zr75  1  0.49569785  0.30264013  0.60712538  1
  Zr  Zr76  1  0.30695922  0.29657967  0.10987124  1
  Zr  Zr77  1  0.80910037  0.20103484  0.50044843  1
  Zr  Zr78  1  0.90488955  0.08501017  0.11360722  1
  Zr  Zr79  1  0.08383124  0.90772533  0.62528816  1
  Ta  Ta80  1  0.50240608  0.91164708  0.62346759  1
  Ta  Ta81  1  0.19816770  0.79679683  0.49172256  1
  Ta  Ta82  1  0.70930934  0.30536622  0.36980691  1
  Ta  Ta83  1  0.09873609  0.30706159  0.36648014  1
  Ta  Ta84  1  0.49434202  0.30532570  0.36691886  1
  Ta  Ta85  1  0.40752146  0.39822047  0.75645188  1
  Ta  Ta86  1  -0.00163881  -0.00556958  0.25742391  1
  Ta  Ta87  1  0.70977268  0.09249797  0.35849499  1
  Ta  Ta88  1  0.30101100  0.10818396  0.60974103  1
  Ta  Ta89  1  0.30140015  0.91610530  0.37372102  1
  Ta  Ta90  1  0.00059523  0.79002043  0.75072264  1
  Ta  Ta91  1  0.00537900  0.59173250  0.00352901  1
  Ta  Ta92  1  0.59631801  0.00770983  0.74691814  1
  Ta  Ta93  1  0.20204402  0.00683620  0.74313252  1
  Ta  Ta94  1  0.49838744  0.49898127  0.36253728  1
  Ta  Ta95  1  0.90199170  0.49591233  0.86750642  1
  Ta  Ta96  1  0.30928576  0.50676632  0.85938137  1
  Ta  Ta97  1  0.20069808  0.80322301  -0.00688041  1
  Ta  Ta98  1  0.10626036  0.50112590  0.13193319  1
  Ta  Ta99  1  0.89622002  0.09320171  0.36746208  1
  Ta  Ta100  1  0.90124904  0.30018950  0.87555857  1
  Ta  Ta101  1  -0.00469243  0.60430023  0.74630913  1
  Ta  Ta102  1  0.09821907  0.70083997  0.87902407  1
  Ta  Ta103  1  0.90749565  0.70172379  0.10723063  1
  Ta  Ta104  1  -0.00671669  0.40211127  0.00981606  1
  Ta  Ta105  1  0.72442162  0.70315363  0.38201835  1
  Ta  Ta106  1  0.69237687  0.29463331  0.11804776  1
  Ta  Ta107  1  0.50213146  0.49337215  0.62495500  1
  Ta  Ta108  1  -0.00147389  0.39353215  0.22633835  1
  Ta  Ta109  1  0.19745132  0.60737486  0.73909185  1
  Ta  Ta110  1  0.19415509  0.20592613  0.49789998  1
  Ta  Ta111  1  -0.00772486  0.59616673  0.22962552  1
  Ta  Ta112  1  0.20133302  0.39488346  0.24364074  1
  Ta  Ta113  1  0.90145230  0.09119008  0.86970701  1
  Ta  Ta114  1  0.80859958  0.40237264  0.50780793  1
  Ta  Ta115  1  0.28016742  0.10186177  0.11185881  1
  Ta  Ta116  1  0.79519547  -0.00629681  0.75338052  1
  Ta  Ta117  1  0.60011566  -0.00717033  0.24662258  1
  Ta  Ta118  1  0.50657482  0.30665129  0.12828985  1
  Ta  Ta119  1  0.29785300  0.30769275  0.38203802  1
  Ti  Ti120  1  0.68945476  0.69526021  0.11563332  1
  Ti  Ti121  1  0.21338752  0.39975776  0.75187822  1
  Ti  Ti122  1  0.09836470  0.90007755  0.37672980  1
  Ti  Ti123  1  0.59803932  0.20906020  0.75603900  1
  Ti  Ti124  1  0.60704202  0.59663598  0.49401664  1
  Ti  Ti125  1  0.58323852  0.82229301  0.02736536  1
  Ti  Ti126  1  0.68937907  0.29630871  0.88835760  1
  Ti  Ti127  1  0.10172226  0.08874765  0.86835796  1
  Ti  Ti128  1  -0.00867865  0.00081584  0.49270210  1
  Ti  Ti129  1  0.69137868  0.49582675  0.12743320  1
  Ti  Ti130  1  0.61235761  0.00634545  0.02097015  1
  Ti  Ti131  1  0.30992552  0.30341462  0.89177663  1
  Ti  Ti132  1  0.80361653  0.60682430  0.23319967  1
  Ti  Ti133  1  0.60743792  0.80522431  0.24762594  1
  Ti  Ti134  1  0.20108265  0.00522205  0.25272271  1
  Ti  Ti135  1  0.90290353  0.29613591  0.64931372  1
  Ti  Ti136  1  0.39610900  0.40699075  0.24633393  1
  Ti  Ti137  1  0.10101894  0.90134418  0.87624343  1
  Ti  Ti138  1  0.89238777  0.89050592  0.63412254  1
  Ti  Ti139  1  0.57913849  0.57407971  0.01434757  1
  Ti  Ti140  1  0.60214693  0.39877414  0.24865146  1
  Ti  Ti141  1  0.90445637  0.30350278  0.37504370  1
  Ti  Ti142  1  -0.00266916  0.58936440  0.51656360  1
  Ti  Ti143  1  0.29758568  0.10310126  0.38447968  1
  Ti  Ti144  1  0.60453248  0.20422444  0.25718504  1
  Ti  Ti145  1  0.09389518  0.49315323  0.35645133  1
  Ti  Ti146  1  0.60797985  0.60091131  0.24837088  1
  Ti  Ti147  1  0.49895612  0.50323545  0.86457543  1
  Ti  Ti148  1  0.20122390  0.20100970  0.25524539  1
  Ti  Ti149  1  0.70520329  0.09456295  0.13833757  1
  Ti  Ti150  1  0.80104480  0.39397577  0.00490683  1
  Ti  Ti151  1  0.90583326  0.69066048  0.88648047  1
  Ti  Ti152  1  0.29626661  0.70415692  0.61317653  1
  Ti  Ti153  1  0.20189017  0.79621199  0.27175964  1
  Ti  Ti154  1  0.89422276  0.68482752  0.62839955  1
  Ti  Ti155  1  0.40006776  0.60347006  0.73939278  1
  Ti  Ti156  1  0.18690550  0.60503030  0.51636348  1
  Ti  Ti157  1  0.39909208  0.01019480  0.74779278  1
  Ti  Ti158  1  0.79525377  0.19543153  0.76573670  1
  Ti  Ti159  1  0.09253454  0.49715925  0.64454372  1
  Mo  Mo160  1  0.89726789  0.68608526  0.37094035  1
  Mo  Mo161  1  0.39703321  0.80289161  0.00813217  1
  Mo  Mo162  1  0.00488675  -0.00951988  0.76429757  1
  Mo  Mo163  1  0.89849917  0.29801377  0.09812251  1
  Mo  Mo164  1  -0.00571100  0.39946528  0.74585326  1
  Mo  Mo165  1  0.69892798  0.90797311  0.12609927  1
  Mo  Mo166  1  0.70057431  0.89675697  0.35441604  1
  Mo  Mo167  1  0.69670734  0.10179217  0.86096031  1
  Mo  Mo168  1  0.79473385  0.00250630  -0.01246949  1
  Mo  Mo169  1  0.00736897  0.79150268  -0.01200751  1
  Mo  Mo170  1  -0.00191006  0.19652774  0.77035559  1
  Mo  Mo171  1  0.39572796  0.00186028  0.49716700  1
  Mo  Mo172  1  0.09683858  0.69507067  0.62264443  1
  Mo  Mo173  1  0.10648079  0.09423482  0.13452387  1
  Mo  Mo174  1  0.39832924  0.60048175  0.26937338  1
  Mo  Mo175  1  0.40342004  0.20300019  0.01235966  1
  Mo  Mo176  1  0.30178751  0.50535560  0.14973771  1
  Mo  Mo177  1  0.90081399  0.50148490  0.12053380  1
  Mo  Mo178  1  0.89995784  0.50161889  0.64203335  1
  Mo  Mo179  1  0.39270482  0.20275854  0.47605108  1
  Mo  Mo180  1  0.80041451  -0.00450801  0.24833635  1
  Mo  Mo181  1  0.70002911  0.90241629  0.64191929  1
  Mo  Mo182  1  0.81762701  0.59843493  0.49280129  1
  Mo  Mo183  1  0.50022600  0.90467863  0.35670096  1
  Mo  Mo184  1  0.49864072  0.90434670  0.14089773  1
  Mo  Mo185  1  0.80703211  0.59991912  0.77398435  1
  Mo  Mo186  1  0.40225266  0.40721643  0.47920520  1
  Mo  Mo187  1  0.19438825  -0.00016510  -0.00190679  1
  Mo  Mo188  1  0.39904482  0.59688958  -0.00382308  1
  Mo  Mo189  1  0.19426430  0.59906650  0.24239903  1
  Mo  Mo190  1  0.60593490  0.40298289  0.02081099  1
  Mo  Mo191  1  0.58946224  0.39549101  0.74572581  1
  Mo  Mo192  1  0.80615982  0.79701062  0.50913412  1
  Mo  Mo193  1  0.28824612  0.70497419  0.38413901  1
  Mo  Mo194  1  0.50211947  0.50285823  0.15646754  1
  Mo  Mo195  1  0.19841942  0.19746076  -0.01781234  1
  Mo  Mo196  1  0.60421560  0.19679189  0.01598302  1
  Mo  Mo197  1  0.38826441  0.00544118  0.23787568  1
  Mo  Mo198  1  0.00649196  -0.00047499  -0.01887846  1
  Mo  Mo199  1  0.10536937  0.10252384  0.64280980  1
