# generated using pymatgen
data_HfZrTaTiMo
_symmetry_space_group_name_H-M   'P 1'
_cell_length_a   15.81561256
_cell_length_b   15.83300679
_cell_length_c   15.38492636
_cell_angle_alpha   90.06849295
_cell_angle_beta   90.00057975
_cell_angle_gamma   90.01454573
_symmetry_Int_Tables_number   1
_chemical_formula_structural   HfZrTaTiMo
_chemical_formula_sum   'Hf40 Zr40 Ta40 Ti40 Mo40'
_cell_volume   3852.51655021
_cell_formula_units_Z   40
loop_
 _symmetry_equiv_pos_site_id
 _symmetry_equiv_pos_as_xyz
  1  'x, y, z'
loop_
 _atom_site_type_symbol
 _atom_site_label
 _atom_site_symmetry_multiplicity
 _atom_site_fract_x
 _atom_site_fract_y
 _atom_site_fract_z
 _atom_site_occupancy
  Hf  Hf0  1  0.78661813  0.59501145  -0.01220959  1
  Hf  Hf1  1  0.30469057  0.30011766  0.11411435  1
  Hf  Hf2  1  0.11144722  0.89170360  0.36692253  1
  Hf  Hf3  1  0.20384537  0.78558926  0.49752529  1
  Hf  Hf4  1  0.79820676  0.01582002  0.01250194  1
  Hf  Hf5  1  0.09851796  0.30247939  0.63005542  1
  Hf  Hf6  1  0.51431498  0.30445535  0.12466754  1
  Hf  Hf7  1  0.09471712  0.09095949  0.86863359  1
  Hf  Hf8  1  0.30395722  0.68658440  0.89341653  1
  Hf  Hf9  1  0.67688849  0.70351524  0.86094491  1
  Hf  Hf10  1  0.10063373  0.89475036  0.62437802  1
  Hf  Hf11  1  0.89422808  0.69060513  0.61619256  1
  Hf  Hf12  1  0.51421042  0.10141702  0.87788014  1
  Hf  Hf13  1  0.09574109  0.68571750  0.62193974  1
  Hf  Hf14  1  0.50718072  0.09492156  0.37979001  1
  Hf  Hf15  1  0.60165169  0.01245127  0.23807148  1
  Hf  Hf16  1  0.90370314  0.90852355  0.62523027  1
  Hf  Hf17  1  0.40449158  0.39700368  0.26848092  1
  Hf  Hf18  1  0.90081593  0.29782301  0.84671096  1
  Hf  Hf19  1  0.41042211  0.20649066  0.26668571  1
  Hf  Hf20  1  0.39527887  0.80436999  0.48362911  1
  Hf  Hf21  1  0.60641529  0.40786755  -0.01863180  1
  Hf  Hf22  1  0.30126049  0.49930110  0.12277915  1
  Hf  Hf23  1  0.62146644  0.41232417  0.26368387  1
  Hf  Hf24  1  0.09897075  0.49844541  0.87297338  1
  Hf  Hf25  1  0.41571749  0.79163092  0.00531284  1
  Hf  Hf26  1  0.60247394  0.40271608  0.50600490  1
  Hf  Hf27  1  0.89546317  0.68822413  0.13098612  1
  Hf  Hf28  1  0.59892001  0.20480828  0.50110442  1
  Hf  Hf29  1  0.39485876  0.39952268  0.75287794  1
  Hf  Hf30  1  0.39859871  0.19905072  0.75522257  1
  Hf  Hf31  1  0.50242160  0.71013623  0.35916406  1
  Hf  Hf32  1  0.78883732  0.57997897  0.26461772  1
  Hf  Hf33  1  0.09310948  0.08824876  0.63646667  1
  Hf  Hf34  1  0.88364155  0.48846594  0.12227643  1
  Hf  Hf35  1  -0.00416351  0.79311346  0.74738318  1
  Hf  Hf36  1  0.00663339  -0.00512036  0.24031689  1
  Hf  Hf37  1  0.30636801  0.08368113  0.37526604  1
  Hf  Hf38  1  0.69260477  0.89570807  0.35432438  1
  Hf  Hf39  1  0.38363501  0.82208178  0.25175182  1
  Zr  Zr40  1  0.09502582  0.29552353  0.38807771  1
  Zr  Zr41  1  0.51132329  0.51875065  0.38656865  1
  Zr  Zr42  1  0.50452483  0.50694049  0.12687414  1
  Zr  Zr43  1  0.30691074  0.89576574  0.62970931  1
  Zr  Zr44  1  0.28721994  0.50776347  0.37584107  1
  Zr  Zr45  1  0.60856407  0.00537306  0.74943255  1
  Zr  Zr46  1  0.20623558  0.78626353  0.74906324  1
  Zr  Zr47  1  0.70765560  0.50827182  0.62583666  1
  Zr  Zr48  1  0.29591225  0.89414741  0.88960808  1
  Zr  Zr49  1  0.69086398  0.69218443  0.37603410  1
  Zr  Zr50  1  0.19137579  0.39796111  0.25665206  1
  Zr  Zr51  1  0.79529417  0.80791040  0.50069118  1
  Zr  Zr52  1  0.40564943  0.40138333  -0.01792389  1
  Zr  Zr53  1  0.10843798  0.10601840  0.13379047  1
  Zr  Zr54  1  0.20857128  0.20455913  0.25892185  1
  Zr  Zr55  1  0.69799973  0.90497798  0.87544950  1
  Zr  Zr56  1  0.40088550  0.38286697  0.49305140  1
  Zr  Zr57  1  -0.00117298  -0.00092063  0.48828365  1
  Zr  Zr58  1  0.89349276  0.70850695  0.88191660  1
  Zr  Zr59  1  0.09607389  0.89228040  0.88543486  1
  Zr  Zr60  1  0.09016533  0.50142339  0.13060346  1
  Zr  Zr61  1  0.80216706  0.21479538  0.23885953  1
  Zr  Zr62  1  0.41234712  -0.00757511  0.00249113  1
  Zr  Zr63  1  0.50198944  0.89988631  0.63896110  1
  Zr  Zr64  1  0.90182571  0.90698462  0.87668599  1
  Zr  Zr65  1  0.21146740  0.19589701  0.50664997  1
  Zr  Zr66  1  0.90130761  0.10722775  0.36285206  1
  Zr  Zr67  1  0.48219946  0.69997188  0.63822484  1
  Zr  Zr68  1  -0.00601044  0.39351527  -0.00075058  1
  Zr  Zr69  1  0.68720232  0.70289154  0.62320886  1
  Zr  Zr70  1  -0.00130622  0.19977323  0.00581025  1
  Zr  Zr71  1  0.21547300  0.19551610  0.74320390  1
  Zr  Zr72  1  0.09866216  0.29278055  0.85853280  1
  Zr  Zr73  1  0.71817073  0.30862339  0.38948011  1
  Zr  Zr74  1  0.31543228  0.10158995  0.12098473  1
  Zr  Zr75  1  0.78953578  0.80489553  0.01514360  1
  Zr  Zr76  1  0.29705528  0.50862817  0.61359591  1
  Zr  Zr77  1  0.89319441  0.89539351  0.36017855  1
  Zr  Zr78  1  0.21148734  0.40001430  0.75072340  1
  Zr  Zr79  1  0.60991920  0.00310988  0.01487484  1
  Ta  Ta80  1  0.58982599  0.81060804  0.49734727  1
  Ta  Ta81  1  0.50013015  0.29721328  0.63610124  1
  Ta  Ta82  1  0.00186076  0.78985089  0.24233711  1
  Ta  Ta83  1  0.29902555  0.69593166  0.12505666  1
  Ta  Ta84  1  0.09847554  0.69811437  0.89160151  1
  Ta  Ta85  1  0.49675512  0.50770100  0.62723517  1
  Ta  Ta86  1  0.80171477  0.20812368  -0.00271321  1
  Ta  Ta87  1  -0.00240855  -0.00396546  0.01611105  1
  Ta  Ta88  1  0.61861915  0.20819908  -0.00761595  1
  Ta  Ta89  1  0.49758946  0.52442503  0.85831351  1
  Ta  Ta90  1  0.19255398  0.59822186  0.01115633  1
  Ta  Ta91  1  0.00005246  0.59948109  0.76248848  1
  Ta  Ta92  1  0.69996428  0.09783465  0.61607677  1
  Ta  Ta93  1  0.68990728  0.69725099  0.14047208  1
  Ta  Ta94  1  0.69471381  0.50441258  0.85308016  1
  Ta  Ta95  1  0.20948961  -0.00285326  0.75459966  1
  Ta  Ta96  1  0.10030205  0.68804163  0.35735772  1
  Ta  Ta97  1  0.90289114  0.50149546  0.63081137  1
  Ta  Ta98  1  -0.00336672  0.59326987  0.48169189  1
  Ta  Ta99  1  0.79475955  0.39616181  -0.02334414  1
  Ta  Ta100  1  0.90271197  0.30083425  0.39442823  1
  Ta  Ta101  1  -0.00024412  0.40474660  0.50827154  1
  Ta  Ta102  1  0.60675503  -0.00700345  0.49990988  1
  Ta  Ta103  1  0.29632009  0.10011431  0.89157349  1
  Ta  Ta104  1  -0.01547376  0.39284717  0.25579198  1
  Ta  Ta105  1  -0.00696361  0.59868531  -0.00803030  1
  Ta  Ta106  1  0.19582146  -0.00339738  0.01449954  1
  Ta  Ta107  1  0.80823866  0.19636203  0.51739886  1
  Ta  Ta108  1  0.78952046  0.80944073  0.73802381  1
  Ta  Ta109  1  -0.00452578  0.19499004  0.51451060  1
  Ta  Ta110  1  0.39384016  0.60344786  0.24967601  1
  Ta  Ta111  1  0.39934240  0.00261890  0.76790472  1
  Ta  Ta112  1  0.90171032  0.10654869  0.13026523  1
  Ta  Ta113  1  0.00192122  0.78851516  0.48570787  1
  Ta  Ta114  1  0.10558393  0.09342970  0.36869799  1
  Ta  Ta115  1  0.90079621  0.10113705  0.86061521  1
  Ta  Ta116  1  0.21997772  -0.02062471  0.23531437  1
  Ta  Ta117  1  0.79324942  0.00422498  0.22907059  1
  Ta  Ta118  1  0.51153684  0.30241408  0.86104115  1
  Ta  Ta119  1  0.49763031  0.10013444  0.62019021  1
  Ti  Ti120  1  0.58464132  0.61418742  -0.00105616  1
  Ti  Ti121  1  0.41189747  0.20715741  -0.01325908  1
  Ti  Ti122  1  -0.00601962  0.58576669  0.26482702  1
  Ti  Ti123  1  0.80014059  0.00530125  0.74298608  1
  Ti  Ti124  1  0.71207355  0.31760493  0.11991987  1
  Ti  Ti125  1  0.70480693  0.30332514  0.63163533  1
  Ti  Ti126  1  0.18926895  0.79626439  0.02378585  1
  Ti  Ti127  1  0.09370087  0.50077559  0.63136158  1
  Ti  Ti128  1  0.88478341  0.48445933  0.39291021  1
  Ti  Ti129  1  0.89441207  0.69851658  0.36849768  1
  Ti  Ti130  1  0.70828243  0.10126504  0.37994166  1
  Ti  Ti131  1  0.60596842  0.19833151  0.74373489  1
  Ti  Ti132  1  0.29939564  0.50468719  0.88674481  1
  Ti  Ti133  1  0.50789184  0.11682915  0.12171959  1
  Ti  Ti134  1  0.80196516  0.60770502  0.75661300  1
  Ti  Ti135  1  0.20597107  -0.00856203  0.50016651  1
  Ti  Ti136  1  0.18695410  0.59616049  0.49345043  1
  Ti  Ti137  1  0.41017962  -0.01013862  0.49494196  1
  Ti  Ti138  1  0.19740846  0.20529506  -0.00165538  1
  Ti  Ti139  1  0.31400132  0.09023733  0.61892080  1
  Ti  Ti140  1  0.59789415  0.40397943  0.74374488  1
  Ti  Ti141  1  0.28758617  0.70021880  0.35439645  1
  Ti  Ti142  1  0.79673553  0.19115515  0.73668025  1
  Ti  Ti143  1  0.89498645  0.49311144  0.85663690  1
  Ti  Ti144  1  0.40291788  0.79812753  0.77297566  1
  Ti  Ti145  1  0.90062344  0.30426611  0.63436668  1
  Ti  Ti146  1  0.19450882  0.39313713  -0.00206139  1
  Ti  Ti147  1  0.19325687  0.79501931  0.22969690  1
  Ti  Ti148  1  0.50202375  0.90007202  0.14102514  1
  Ti  Ti149  1  0.70493002  0.30099863  0.85321157  1
  Ti  Ti150  1  0.79935753  0.00417929  0.50181589  1
  Ti  Ti151  1  0.60909106  0.21020812  0.25744534  1
  Ti  Ti152  1  0.38941188  0.61450980  0.49332199  1
  Ti  Ti153  1  0.69491602  0.50421054  0.11514631  1
  Ti  Ti154  1  0.89774828  0.89347851  0.13049256  1
  Ti  Ti155  1  0.50000601  0.70047109  0.14414657  1
  Ti  Ti156  1  0.20263569  0.60004668  0.75471427  1
  Ti  Ti157  1  0.00560767  0.21367455  0.24137654  1
  Ti  Ti158  1  0.59607659  0.80431523  0.01208144  1
  Ti  Ti159  1  0.19737656  0.40051602  0.49828471  1
  Mo  Mo160  1  0.40160191  0.60250474  0.01386912  1
  Mo  Mo161  1  0.59477744  0.80465973  0.24116274  1
  Mo  Mo162  1  0.50004949  0.90935161  0.36717604  1
  Mo  Mo163  1  0.38457432  0.59866641  0.75004658  1
  Mo  Mo164  1  0.80121317  0.79482158  0.24083054  1
  Mo  Mo165  1  0.58954962  0.60842604  0.51632653  1
  Mo  Mo166  1  0.29523381  0.69347414  0.62603452  1
  Mo  Mo167  1  0.80577627  0.40256055  0.25301904  1
  Mo  Mo168  1  0.40506135  0.00614133  0.23661211  1
  Mo  Mo169  1  0.70197548  0.90569291  0.62199732  1
  Mo  Mo170  1  0.09694372  0.89408646  0.12581290  1
  Mo  Mo171  1  0.30456958  0.29477634  0.89484956  1
  Mo  Mo172  1  0.71508603  0.11505216  0.86768748  1
  Mo  Mo173  1  0.59773138  0.59864560  0.24179964  1
  Mo  Mo174  1  0.80444008  0.59657803  0.48881915  1
  Mo  Mo175  1  0.00023845  -0.00475495  0.75704794  1
  Mo  Mo176  1  0.49719837  0.70055057  0.86714200  1
  Mo  Mo177  1  0.09193476  0.69228692  0.12744516  1
  Mo  Mo178  1  -0.00579117  0.19426937  0.73322222  1
  Mo  Mo179  1  0.70002440  0.89416428  0.13661688  1
  Mo  Mo180  1  0.89634990  0.09926379  0.63560476  1
  Mo  Mo181  1  0.10127146  0.30383076  0.12643139  1
  Mo  Mo182  1  0.08677905  0.49799545  0.37359706  1
  Mo  Mo183  1  0.69782326  0.12289206  0.12574898  1
  Mo  Mo184  1  0.40714855  0.19207512  0.50335512  1
  Mo  Mo185  1  0.50720051  0.89213710  0.86744446  1
  Mo  Mo186  1  0.30882971  0.29491459  0.60960799  1
  Mo  Mo187  1  0.29570136  0.90203409  0.37994778  1
  Mo  Mo188  1  0.19485989  0.60462557  0.23665107  1
  Mo  Mo189  1  0.59232002  0.59821908  0.73778152  1
  Mo  Mo190  1  0.30214912  0.29506830  0.39123333  1
  Mo  Mo191  1  0.00161823  0.79536422  0.02392272  1
  Mo  Mo192  1  0.80867327  0.39436881  0.52751031  1
  Mo  Mo193  1  0.59552016  0.80539883  0.74889386  1
  Mo  Mo194  1  0.70541727  0.50428560  0.40413758  1
  Mo  Mo195  1  0.51262150  0.29843627  0.36742689  1
  Mo  Mo196  1  0.00087909  0.40715637  0.73451889  1
  Mo  Mo197  1  0.79724230  0.40092844  0.74857038  1
  Mo  Mo198  1  0.29882441  0.89338823  0.10860229  1
  Mo  Mo199  1  0.89864175  0.30344973  0.11971548  1
