# generated using pymatgen
data_HfZrTaTiMo
_symmetry_space_group_name_H-M   'P 1'
_cell_length_a   15.85014334
_cell_length_b   15.82556035
_cell_length_c   15.40274746
_cell_angle_alpha   90.01436192
_cell_angle_beta   90.08133183
_cell_angle_gamma   89.92116914
_symmetry_Int_Tables_number   1
_chemical_formula_structural   HfZrTaTiMo
_chemical_formula_sum   'Hf40 Zr40 Ta40 Ti40 Mo40'
_cell_volume   3863.57745603
_cell_formula_units_Z   40
loop_
 _symmetry_equiv_pos_site_id
 _symmetry_equiv_pos_as_xyz
  1  'x, y, z'
loop_
 _atom_site_type_symbol
 _atom_site_label
 _atom_site_symmetry_multiplicity
 _atom_site_fract_x
 _atom_site_fract_y
 _atom_site_fract_z
 _atom_site_occupancy
  Hf  Hf0  1  0.39786983  0.20204399  -0.01152147  1
  Hf  Hf1  1  0.39950687  -0.00183078  -0.00427030  1
  Hf  Hf2  1  0.08580692  0.09832472  0.86586057  1
  Hf  Hf3  1  0.00415055  0.79388158  0.73694544  1
  Hf  Hf4  1  0.09896558  0.50742433  0.38509936  1
  Hf  Hf5  1  0.50037819  0.69243229  0.88523817  1
  Hf  Hf6  1  0.70778319  0.30036194  0.36992686  1
  Hf  Hf7  1  0.18301804  -0.00943979  0.24635252  1
  Hf  Hf8  1  0.30274543  0.51091896  0.36762447  1
  Hf  Hf9  1  0.40335427  0.39905321  0.24151844  1
  Hf  Hf10  1  0.20510037  0.78563757  0.51560871  1
  Hf  Hf11  1  0.80368035  0.59276510  0.00903759  1
  Hf  Hf12  1  0.69496415  0.10364978  0.14703075  1
  Hf  Hf13  1  0.50464785  0.90492086  0.63986367  1
  Hf  Hf14  1  0.30401451  0.50879378  0.87227845  1
  Hf  Hf15  1  0.49201171  0.10445695  0.64071193  1
  Hf  Hf16  1  0.21751377  0.19223863  0.75210636  1
  Hf  Hf17  1  0.11411443  0.70952872  0.12347409  1
  Hf  Hf18  1  0.20574068  0.39510125  0.74872479  1
  Hf  Hf19  1  0.50645427  0.10409187  0.86545866  1
  Hf  Hf20  1  0.69700368  0.91586748  0.13298154  1
  Hf  Hf21  1  0.30678599  0.29386103  0.37422087  1
  Hf  Hf22  1  0.19920349  0.20309270  -0.02329850  1
  Hf  Hf23  1  0.88789201  0.11066167  0.11982405  1
  Hf  Hf24  1  0.59980665  0.40472300  0.48643986  1
  Hf  Hf25  1  0.10629754  0.50123382  0.62393330  1
  Hf  Hf26  1  0.00832981  0.81235092  0.23928940  1
  Hf  Hf27  1  0.70981893  0.10945088  0.38094482  1
  Hf  Hf28  1  0.58488380  0.20600626  0.49571005  1
  Hf  Hf29  1  0.50780019  0.50051548  0.88632270  1
  Hf  Hf30  1  0.89546552  0.28544915  0.39850544  1
  Hf  Hf31  1  0.28865679  0.09814548  0.12013990  1
  Hf  Hf32  1  0.20208825  -0.00534514  0.51886773  1
  Hf  Hf33  1  0.40094284  0.39564582  0.75293319  1
  Hf  Hf34  1  0.69128949  0.70298562  0.62968053  1
  Hf  Hf35  1  0.70759149  0.69300728  0.35385367  1
  Hf  Hf36  1  0.89639899  0.89960129  0.87480768  1
  Hf  Hf37  1  0.31084782  0.89634930  0.63929108  1
  Hf  Hf38  1  0.40055169  0.80523347  0.00380729  1
  Hf  Hf39  1  0.61509245  0.39677147  0.00203910  1
  Zr  Zr40  1  0.09924687  0.29716624  0.62123631  1
  Zr  Zr41  1  0.00340856  0.79647749  0.51953910  1
  Zr  Zr42  1  -0.00681452  0.00735015  0.24903508  1
  Zr  Zr43  1  0.29083035  0.29664926  0.12836874  1
  Zr  Zr44  1  0.80023901  0.79368412  0.50279313  1
  Zr  Zr45  1  0.80255470  0.79839053  0.01138654  1
  Zr  Zr46  1  0.39469352  0.60996497  0.50040708  1
  Zr  Zr47  1  0.80166970  0.80750557  0.74324122  1
  Zr  Zr48  1  0.39918545  -0.00807352  0.23563891  1
  Zr  Zr49  1  -0.00728762  0.60177541  0.74015255  1
  Zr  Zr50  1  0.90595201  0.49125394  0.87596026  1
  Zr  Zr51  1  0.69627778  0.50728122  0.62684309  1
  Zr  Zr52  1  0.49851261  0.50971839  0.63473572  1
  Zr  Zr53  1  0.60219124  0.60143311  0.47782952  1
  Zr  Zr54  1  -0.00606444  0.39597730  0.27062341  1
  Zr  Zr55  1  0.59069180  0.80513366  0.24295313  1
  Zr  Zr56  1  0.21113846  0.19389646  0.50875931  1
  Zr  Zr57  1  -0.00563106  -0.01166616  0.72868428  1
  Zr  Zr58  1  0.49967769  0.70781972  0.64533745  1
  Zr  Zr59  1  0.08300561  0.30936900  0.11820600  1
  Zr  Zr60  1  0.62682875  -0.00552536  0.77134070  1
  Zr  Zr61  1  0.58492425  0.80288191  0.48390881  1
  Zr  Zr62  1  0.89382879  0.29692290  0.85540792  1
  Zr  Zr63  1  0.59720426  0.40482064  0.25682792  1
  Zr  Zr64  1  0.61620781  0.19668043  -0.00815578  1
  Zr  Zr65  1  0.69972102  0.90314669  0.37586775  1
  Zr  Zr66  1  0.77569556  0.01162149  -0.02018804  1
  Zr  Zr67  1  0.60191684  0.80974656  0.00104773  1
  Zr  Zr68  1  0.39755873  0.80084065  0.22311224  1
  Zr  Zr69  1  0.08276263  0.30852685  0.86000829  1
  Zr  Zr70  1  0.29346572  0.09454387  0.36662474  1
  Zr  Zr71  1  0.40845503  0.39120829  0.50220071  1
  Zr  Zr72  1  0.29479239  0.50353695  0.12669823  1
  Zr  Zr73  1  0.90868340  0.69182017  0.36147943  1
  Zr  Zr74  1  0.30196375  0.88361386  0.37255458  1
  Zr  Zr75  1  0.19031174  0.40833468  -0.00904213  1
  Zr  Zr76  1  0.09903986  0.90042734  0.38850311  1
  Zr  Zr77  1  0.09353743  0.10415899  0.10953312  1
  Zr  Zr78  1  0.30745767  0.69312855  0.65678467  1
  Zr  Zr79  1  0.71470463  0.29433232  0.14877058  1
  Ta  Ta80  1  0.70870496  0.50110730  0.13707961  1
  Ta  Ta81  1  0.70712252  0.69336498  0.87996615  1
  Ta  Ta82  1  0.50683290  0.09930832  0.11978782  1
  Ta  Ta83  1  -0.00652457  0.40523046  0.50632437  1
  Ta  Ta84  1  0.60812243  0.59984316  0.76848384  1
  Ta  Ta85  1  0.20874341  0.40289277  0.50053440  1
  Ta  Ta86  1  0.09615318  0.89769043  0.88419606  1
  Ta  Ta87  1  0.19079778  0.39958665  0.26195749  1
  Ta  Ta88  1  0.58658405  0.00455372  0.26905803  1
  Ta  Ta89  1  0.00958379  0.59168361  0.01254650  1
  Ta  Ta90  1  0.08671908  0.10478240  0.39292215  1
  Ta  Ta91  1  0.80158063  0.00451350  0.51316580  1
  Ta  Ta92  1  0.88934722  0.10019075  0.85139981  1
  Ta  Ta93  1  0.18098312  0.20194310  0.25943880  1
  Ta  Ta94  1  0.19818267  -0.00487674  0.75171115  1
  Ta  Ta95  1  0.40193903  0.00146229  0.50341338  1
  Ta  Ta96  1  0.80765701  0.38914096  0.01046342  1
  Ta  Ta97  1  0.40218809  0.81107505  0.78173569  1
  Ta  Ta98  1  0.69533186  0.29992923  0.62277389  1
  Ta  Ta99  1  0.60804546  0.40177703  0.75464484  1
  Ta  Ta100  1  -0.01170772  0.00262791  -0.00591890  1
  Ta  Ta101  1  0.80766545  0.00378064  0.26545440  1
  Ta  Ta102  1  0.50804729  0.30108280  0.86900251  1
  Ta  Ta103  1  0.80949833  0.80711708  0.24198576  1
  Ta  Ta104  1  0.50423952  0.29374149  0.12298406  1
  Ta  Ta105  1  0.80671407  0.40265965  0.72795502  1
  Ta  Ta106  1  0.00102647  0.60719446  0.51228803  1
  Ta  Ta107  1  0.90547421  0.69460973  0.13101921  1
  Ta  Ta108  1  0.29577347  0.70062524  0.87998305  1
  Ta  Ta109  1  0.26418450  0.89285973  0.10487057  1
  Ta  Ta110  1  0.90029643  0.90484227  0.38661771  1
  Ta  Ta111  1  0.00941066  0.59357997  0.23943291  1
  Ta  Ta112  1  0.80077461  0.40367759  0.50863783  1
  Ta  Ta113  1  0.00009042  0.79807201  0.00645046  1
  Ta  Ta114  1  -0.00703914  0.19877169  0.26157593  1
  Ta  Ta115  1  0.47739475  0.69788156  0.35495595  1
  Ta  Ta116  1  0.40275574  0.39433986  0.00023680  1
  Ta  Ta117  1  0.90842977  0.48636865  0.12676328  1
  Ta  Ta118  1  0.11202745  0.70156168  0.36593133  1
  Ta  Ta119  1  0.81006139  0.59582849  0.50272514  1
  Ti  Ti120  1  0.60283069  0.80278155  0.77356112  1
  Ti  Ti121  1  0.71125396  0.49693974  0.87420020  1
  Ti  Ti122  1  0.69541082  0.90352843  0.61616041  1
  Ti  Ti123  1  0.28687612  0.90129939  0.88408262  1
  Ti  Ti124  1  -0.01626412  0.20723208  -0.00994467  1
  Ti  Ti125  1  0.59149061  0.00319226  0.49218531  1
  Ti  Ti126  1  0.31989122  0.28257802  0.62146390  1
  Ti  Ti127  1  0.50834885  0.68436309  0.11630487  1
  Ti  Ti128  1  0.70256320  0.69186697  0.13448643  1
  Ti  Ti129  1  0.09124300  0.50098772  0.86423141  1
  Ti  Ti130  1  0.09734276  0.70016933  0.88216062  1
  Ti  Ti131  1  0.59545130  0.59703603  0.24814981  1
  Ti  Ti132  1  0.10058415  0.09922594  0.62662814  1
  Ti  Ti133  1  0.40053022  0.79927863  0.49800093  1
  Ti  Ti134  1  -0.01070211  0.19894284  0.72623249  1
  Ti  Ti135  1  -0.00353995  0.00071740  0.51752571  1
  Ti  Ti136  1  0.72940856  0.50002192  0.35472151  1
  Ti  Ti137  1  0.50596661  0.29318906  0.64375802  1
  Ti  Ti138  1  0.79862351  0.20588381  -0.01156505  1
  Ti  Ti139  1  0.79620734  0.19610435  0.72715742  1
  Ti  Ti140  1  0.19225765  0.60469905  0.75663485  1
  Ti  Ti141  1  0.69147756  0.10167911  0.62352110  1
  Ti  Ti142  1  0.30295568  0.50320721  0.63159320  1
  Ti  Ti143  1  0.39864101  0.59671135  0.00849918  1
  Ti  Ti144  1  0.29701872  0.69977968  0.11577187  1
  Ti  Ti145  1  0.48348253  0.10419323  0.37862788  1
  Ti  Ti146  1  0.89767558  0.90945984  0.11894506  1
  Ti  Ti147  1  0.19454089  0.59946330  -0.00203463  1
  Ti  Ti148  1  0.90336871  0.69571399  0.88445192  1
  Ti  Ti149  1  0.40015648  0.19643083  0.24078381  1
  Ti  Ti150  1  0.19347701  0.80256060  0.75644267  1
  Ti  Ti151  1  0.20475715  0.60596719  0.24807911  1
  Ti  Ti152  1  0.70695539  0.30195533  0.85586336  1
  Ti  Ti153  1  0.80295412  0.60235683  0.74676232  1
  Ti  Ti154  1  0.09943216  0.29672809  0.39477627  1
  Ti  Ti155  1  0.50930012  0.50153152  0.11425011  1
  Ti  Ti156  1  0.58410835  0.20020262  0.26377356  1
  Ti  Ti157  1  0.20363815  0.60487655  0.50347922  1
  Ti  Ti158  1  0.49069925  0.50669980  0.36493912  1
  Ti  Ti159  1  0.38869455  0.00500869  0.76879649  1
  Mo  Mo160  1  0.49191088  0.90378649  0.38420633  1
  Mo  Mo161  1  0.40142282  0.60089603  0.76590984  1
  Mo  Mo162  1  0.30971802  0.09270692  0.63797985  1
  Mo  Mo163  1  -0.00045504  0.19285228  0.51077744  1
  Mo  Mo164  1  0.49407656  0.29444252  0.36198428  1
  Mo  Mo165  1  0.81780125  0.19198602  0.25956329  1
  Mo  Mo166  1  0.50044129  0.90282147  0.87588192  1
  Mo  Mo167  1  -0.00452031  0.39949519  0.72284068  1
  Mo  Mo168  1  0.71134277  0.12187763  0.85096973  1
  Mo  Mo169  1  0.19596559  0.79219447  -0.02027556  1
  Mo  Mo170  1  0.70551229  0.88791854  0.88000086  1
  Mo  Mo171  1  0.09081222  0.90419203  0.10077424  1
  Mo  Mo172  1  0.60664178  0.20686762  0.74525798  1
  Mo  Mo173  1  0.79214762  0.19914203  0.52292753  1
  Mo  Mo174  1  0.30787597  0.30319249  0.87684470  1
  Mo  Mo175  1  0.19986418  0.79716771  0.24698800  1
  Mo  Mo176  1  0.89598248  0.89962259  0.60839604  1
  Mo  Mo177  1  0.40446580  0.19045993  0.50168195  1
  Mo  Mo178  1  0.40105837  0.20435439  0.76676257  1
  Mo  Mo179  1  0.90234350  0.50006522  0.38758786  1
  Mo  Mo180  1  0.81079744  0.39756834  0.24814121  1
  Mo  Mo181  1  0.29510585  0.69553453  0.36096847  1
  Mo  Mo182  1  0.81076747  0.59628315  0.23346786  1
  Mo  Mo183  1  0.90263722  0.09495195  0.40119275  1
  Mo  Mo184  1  0.59847554  0.00719111  -0.01213133  1
  Mo  Mo185  1  0.10966898  0.69469581  0.63407684  1
  Mo  Mo186  1  0.10269883  0.50353062  0.13630376  1
  Mo  Mo187  1  -0.00536021  0.40491354  0.00039171  1
  Mo  Mo188  1  0.89604359  0.10308121  0.62336416  1
  Mo  Mo189  1  0.89364612  0.69357555  0.62589162  1
  Mo  Mo190  1  0.89527216  0.29899437  0.61754319  1
  Mo  Mo191  1  0.61370534  0.59527942  0.00245898  1
  Mo  Mo192  1  0.19164927  0.00104795  -0.01997887  1
  Mo  Mo193  1  0.40805987  0.60096805  0.22756701  1
  Mo  Mo194  1  0.29552701  0.09248009  0.87376110  1
  Mo  Mo195  1  0.90139280  0.29455234  0.12259281  1
  Mo  Mo196  1  0.80093799  0.00204544  0.72875839  1
  Mo  Mo197  1  0.51279735  0.92097784  0.11184950  1
  Mo  Mo198  1  0.89991597  0.50040035  0.61896744  1
  Mo  Mo199  1  0.10842694  0.89906545  0.62736371  1
