# generated using pymatgen
data_HfZrTaTiMo
_symmetry_space_group_name_H-M   'P 1'
_cell_length_a   15.84828886
_cell_length_b   15.82997219
_cell_length_c   15.40872610
_cell_angle_alpha   89.99606482
_cell_angle_beta   90.03731928
_cell_angle_gamma   90.17730530
_symmetry_Int_Tables_number   1
_chemical_formula_structural   HfZrTaTiMo
_chemical_formula_sum   'Hf40 Zr40 Ta40 Ti40 Mo40'
_cell_volume   3865.69061433
_cell_formula_units_Z   40
loop_
 _symmetry_equiv_pos_site_id
 _symmetry_equiv_pos_as_xyz
  1  'x, y, z'
loop_
 _atom_site_type_symbol
 _atom_site_label
 _atom_site_symmetry_multiplicity
 _atom_site_fract_x
 _atom_site_fract_y
 _atom_site_fract_z
 _atom_site_occupancy
  Hf  Hf0  1  0.40887972  0.01454430  0.25175075  1
  Hf  Hf1  1  0.61220546  0.40069172  0.50256901  1
  Hf  Hf2  1  0.18754240  -0.00096944  -0.00228766  1
  Hf  Hf3  1  0.50326997  0.49749527  0.36370851  1
  Hf  Hf4  1  0.80034877  0.58805981  0.48790988  1
  Hf  Hf5  1  0.50813783  0.90689241  0.38434373  1
  Hf  Hf6  1  0.60820239  -0.00310610  0.23808333  1
  Hf  Hf7  1  -0.00837869  0.59905409  0.48380124  1
  Hf  Hf8  1  0.89045177  0.91245300  0.87864225  1
  Hf  Hf9  1  0.69327694  0.70110505  0.38084251  1
  Hf  Hf10  1  0.39479810  0.79842646  0.49661992  1
  Hf  Hf11  1  0.29681552  0.88897406  0.88679485  1
  Hf  Hf12  1  0.39099097  0.37957128  0.25520255  1
  Hf  Hf13  1  0.00490365  0.80732596  0.75274686  1
  Hf  Hf14  1  0.39217795  0.00660930  0.49695346  1
  Hf  Hf15  1  0.89966666  0.69472287  0.63594263  1
  Hf  Hf16  1  0.69833709  0.30719868  0.12278994  1
  Hf  Hf17  1  0.10406794  0.09936183  0.14592361  1
  Hf  Hf18  1  0.19765141  0.39664686  0.74771607  1
  Hf  Hf19  1  0.20206791  0.20075016  0.75890376  1
  Hf  Hf20  1  0.30226888  0.70560166  0.11518347  1
  Hf  Hf21  1  0.00365021  0.81170761  0.00115364  1
  Hf  Hf22  1  0.79434838  0.59911659  -0.01224117  1
  Hf  Hf23  1  0.50287463  0.70724154  0.11340353  1
  Hf  Hf24  1  0.69097808  0.69851467  0.12262884  1
  Hf  Hf25  1  0.08622004  0.48765755  0.36499373  1
  Hf  Hf26  1  0.19570401  0.59289772  0.23266722  1
  Hf  Hf27  1  0.49916128  0.10185013  0.60958101  1
  Hf  Hf28  1  0.29155073  0.70401691  0.63248740  1
  Hf  Hf29  1  0.30015871  0.50577772  0.62926474  1
  Hf  Hf30  1  0.19379747  0.60166613  0.76016046  1
  Hf  Hf31  1  0.89851374  0.10374122  0.87012889  1
  Hf  Hf32  1  0.48967936  0.27257019  0.39046782  1
  Hf  Hf33  1  0.69627962  0.07736604  0.87674782  1
  Hf  Hf34  1  0.90899301  0.29943579  0.13148643  1
  Hf  Hf35  1  0.19549638  0.39843088  0.49064062  1
  Hf  Hf36  1  0.00438861  0.60050736  0.76539612  1
  Hf  Hf37  1  0.71250359  0.30324809  0.36769608  1
  Hf  Hf38  1  0.48935572  0.71558683  0.87726591  1
  Hf  Hf39  1  0.10729878  0.30428322  0.89788306  1
  Zr  Zr40  1  0.70820649  0.49435171  0.64070392  1
  Zr  Zr41  1  0.20084193  0.01951665  0.48315460  1
  Zr  Zr42  1  0.39489550  0.00368181  0.01217022  1
  Zr  Zr43  1  0.10043655  0.30073824  0.61508914  1
  Zr  Zr44  1  0.10235718  0.90074294  0.14189282  1
  Zr  Zr45  1  0.80865594  -0.00215929  0.51594962  1
  Zr  Zr46  1  0.41040902  0.58668520  -0.00695155  1
  Zr  Zr47  1  0.00354226  -0.00220642  0.73717378  1
  Zr  Zr48  1  0.79826319  0.80236339  0.00039559  1
  Zr  Zr49  1  0.70263841  0.69985700  0.62850591  1
  Zr  Zr50  1  0.29329335  0.48868596  0.88616636  1
  Zr  Zr51  1  0.48739191  0.29314248  0.87707776  1
  Zr  Zr52  1  0.39943531  0.60856107  0.49221909  1
  Zr  Zr53  1  0.68861206  0.09490674  0.39214093  1
  Zr  Zr54  1  0.79427054  0.80668929  0.24945997  1
  Zr  Zr55  1  0.40091661  0.40456852  0.50235236  1
  Zr  Zr56  1  0.78652959  0.58892106  0.25218087  1
  Zr  Zr57  1  0.70892202  0.29148996  0.86792382  1
  Zr  Zr58  1  0.50122891  0.30700533  0.62596357  1
  Zr  Zr59  1  0.50502592  0.91604192  0.88054112  1
  Zr  Zr60  1  -0.00321281  0.79760709  0.49431616  1
  Zr  Zr61  1  0.00967867  0.19836475  0.49283163  1
  Zr  Zr62  1  0.59283627  0.19585630  0.24928375  1
  Zr  Zr63  1  0.50938665  0.50323829  0.13281443  1
  Zr  Zr64  1  -0.00460477  0.60638049  0.00479702  1
  Zr  Zr65  1  0.89304762  0.10777787  0.37341841  1
  Zr  Zr66  1  0.59048841  0.59437127  0.50738298  1
  Zr  Zr67  1  0.59921786  0.59851580  0.76610597  1
  Zr  Zr68  1  0.90787737  0.30795201  0.36189870  1
  Zr  Zr69  1  0.30557877  0.10299591  0.87592094  1
  Zr  Zr70  1  -0.01009773  0.79357118  0.25558986  1
  Zr  Zr71  1  0.10818640  0.89557588  0.36766134  1
  Zr  Zr72  1  0.49674440  0.30699742  0.11639652  1
  Zr  Zr73  1  0.60479234  0.19324630  0.74402041  1
  Zr  Zr74  1  0.59947935  0.41523672  -0.02149570  1
  Zr  Zr75  1  0.90905847  0.29887033  0.87972291  1
  Zr  Zr76  1  0.39293749  0.81197064  0.74170454  1
  Zr  Zr77  1  0.29423616  0.50545419  0.36577470  1
  Zr  Zr78  1  0.80328786  0.18721496  0.01197988  1
  Zr  Zr79  1  0.79725191  -0.00277595  0.72531633  1
  Ta  Ta80  1  0.90527605  0.30999364  0.62998172  1
  Ta  Ta81  1  0.10074327  0.69903354  0.62092435  1
  Ta  Ta82  1  0.50249897  0.10267286  0.11306289  1
  Ta  Ta83  1  -0.00607069  0.00250381  0.26872342  1
  Ta  Ta84  1  0.10313240  0.29624951  0.12821901  1
  Ta  Ta85  1  0.19433744  0.60620620  0.49340646  1
  Ta  Ta86  1  0.79922980  0.40632415  0.00132255  1
  Ta  Ta87  1  0.29631885  0.90156316  0.13707409  1
  Ta  Ta88  1  0.39702086  0.00656731  0.73711498  1
  Ta  Ta89  1  0.39297157  0.20110685  0.73865245  1
  Ta  Ta90  1  0.59574481  0.80228394  0.25591281  1
  Ta  Ta91  1  0.10585510  0.69362646  0.36223771  1
  Ta  Ta92  1  0.60180017  0.19044673  -0.00175118  1
  Ta  Ta93  1  -0.00774435  0.59812730  0.24619210  1
  Ta  Ta94  1  0.39525605  0.39906956  0.75397837  1
  Ta  Ta95  1  0.09770567  0.49505159  0.89878355  1
  Ta  Ta96  1  0.22327623  0.20296238  0.25277979  1
  Ta  Ta97  1  0.90713237  0.49765464  0.63278724  1
  Ta  Ta98  1  0.30004130  0.90166969  0.35789875  1
  Ta  Ta99  1  0.10169453  0.29361904  0.35440056  1
  Ta  Ta100  1  0.49226120  0.69532661  0.64396745  1
  Ta  Ta101  1  0.11280910  0.10083472  0.62556944  1
  Ta  Ta102  1  0.89458733  0.49537876  0.12745619  1
  Ta  Ta103  1  0.00372686  -0.00024653  0.49834445  1
  Ta  Ta104  1  0.19837194  -0.00598234  0.75290035  1
  Ta  Ta105  1  0.29419425  0.70845639  0.35688396  1
  Ta  Ta106  1  0.40738255  0.80437587  0.24718902  1
  Ta  Ta107  1  0.09336453  0.50490371  0.61479347  1
  Ta  Ta108  1  0.29658016  0.70230472  0.88758494  1
  Ta  Ta109  1  0.20222136  0.39345018  0.23839194  1
  Ta  Ta110  1  0.69833763  0.89827261  0.39148138  1
  Ta  Ta111  1  0.00586996  0.20460261  0.74704498  1
  Ta  Ta112  1  0.11293601  0.71095064  0.89166559  1
  Ta  Ta113  1  0.60900739  0.60597883  -0.02516870  1
  Ta  Ta114  1  0.79906777  0.21017721  0.52037582  1
  Ta  Ta115  1  0.00914905  0.18940012  0.01051774  1
  Ta  Ta116  1  0.79462445  0.19006948  0.23694428  1
  Ta  Ta117  1  0.00709031  0.40451327  0.75424863  1
  Ta  Ta118  1  0.59988619  -0.00666007  0.72865418  1
  Ta  Ta119  1  0.60558933  0.80828581  0.75239136  1
  Ti  Ti120  1  0.61472879  0.20472059  0.51573497  1
  Ti  Ti121  1  0.90741262  0.49162367  0.88372115  1
  Ti  Ti122  1  0.80207285  0.59712695  0.77224608  1
  Ti  Ti123  1  0.09423273  0.09830272  0.87288725  1
  Ti  Ti124  1  0.08977908  0.48945377  0.11771397  1
  Ti  Ti125  1  0.20132991  0.79758271  0.49380334  1
  Ti  Ti126  1  0.49931472  0.09873124  0.87449233  1
  Ti  Ti127  1  0.61315226  0.81353346  -0.01417755  1
  Ti  Ti128  1  0.28642474  0.90924094  0.62156932  1
  Ti  Ti129  1  0.59734306  0.60611394  0.25793614  1
  Ti  Ti130  1  -0.00425956  0.00485061  0.00309307  1
  Ti  Ti131  1  0.79719025  0.80543281  0.75174099  1
  Ti  Ti132  1  0.79362276  -0.00163568  0.24672916  1
  Ti  Ti133  1  0.19722636  0.59627198  0.00986645  1
  Ti  Ti134  1  0.89139541  0.90196194  0.37922936  1
  Ti  Ti135  1  0.50488282  0.89709993  0.11416420  1
  Ti  Ti136  1  0.89118612  0.48479455  0.35590027  1
  Ti  Ti137  1  0.50025716  0.89646921  0.61676386  1
  Ti  Ti138  1  0.10105135  0.70463169  0.12528961  1
  Ti  Ti139  1  0.59844812  0.40124798  0.75548249  1
  Ti  Ti140  1  0.78231081  -0.00816553  0.02223641  1
  Ti  Ti141  1  0.29572929  0.28894710  0.61083705  1
  Ti  Ti142  1  0.40153312  0.60450046  0.24636638  1
  Ti  Ti143  1  0.89539093  0.69774709  0.12776861  1
  Ti  Ti144  1  0.58775029  0.78862629  0.50194706  1
  Ti  Ti145  1  0.80848442  0.39867534  0.50653088  1
  Ti  Ti146  1  0.80230610  0.20030973  0.72929222  1
  Ti  Ti147  1  0.90107209  0.70851135  0.87230890  1
  Ti  Ti148  1  0.69722446  0.88904314  0.60705598  1
  Ti  Ti149  1  0.20651880  0.19584774  0.01138214  1
  Ti  Ti150  1  0.30698882  0.48596143  0.11717579  1
  Ti  Ti151  1  0.61956781  0.41371529  0.25336099  1
  Ti  Ti152  1  0.39275059  0.20131700  0.01163893  1
  Ti  Ti153  1  0.90434939  0.09302276  0.13614657  1
  Ti  Ti154  1  0.89939911  0.90739118  0.13018320  1
  Ti  Ti155  1  0.18996930  0.80690588  0.75305102  1
  Ti  Ti156  1  0.80791078  0.40054985  0.75892793  1
  Ti  Ti157  1  0.80973137  0.79037768  0.49583432  1
  Ti  Ti158  1  0.91408130  0.10806246  0.62185296  1
  Ti  Ti159  1  0.10257624  0.89926974  0.61134933  1
  Mo  Mo160  1  0.70983107  0.49514560  0.86558821  1
  Mo  Mo161  1  0.90219016  0.88996860  0.61562518  1
  Mo  Mo162  1  0.29750057  0.29911452  0.10975332  1
  Mo  Mo163  1  0.70076927  0.10137017  0.61827051  1
  Mo  Mo164  1  0.69376398  0.89572742  0.12931621  1
  Mo  Mo165  1  0.69997023  0.09847796  0.12116601  1
  Mo  Mo166  1  -0.00167439  0.39860480  0.01057531  1
  Mo  Mo167  1  0.29937347  0.29664916  0.89141126  1
  Mo  Mo168  1  0.39623176  0.39314518  -0.01084691  1
  Mo  Mo169  1  0.10410447  0.10372605  0.35675421  1
  Mo  Mo170  1  0.60250696  0.00014518  0.01282236  1
  Mo  Mo171  1  0.38726657  0.19553533  0.51665673  1
  Mo  Mo172  1  0.50478469  0.09986318  0.39577803  1
  Mo  Mo173  1  0.69748405  0.50404206  0.10980679  1
  Mo  Mo174  1  -0.00817727  0.40584319  0.50500289  1
  Mo  Mo175  1  0.19946397  0.79983239  0.01054627  1
  Mo  Mo176  1  0.89805713  0.69492706  0.36546516  1
  Mo  Mo177  1  0.19959432  0.39997945  0.02262591  1
  Mo  Mo178  1  0.20743965  0.00462252  0.26250247  1
  Mo  Mo179  1  0.00375267  0.19588134  0.24613579  1
  Mo  Mo180  1  0.69982354  0.90316622  0.86566668  1
  Mo  Mo181  1  0.30060662  0.10195530  0.13359558  1
  Mo  Mo182  1  0.49464813  0.70388705  0.36073351  1
  Mo  Mo183  1  0.20468935  0.79507544  0.24327670  1
  Mo  Mo184  1  0.79613306  0.39808013  0.23236118  1
  Mo  Mo185  1  0.49287903  0.50487314  0.65075791  1
  Mo  Mo186  1  0.20590080  0.20007999  0.47801139  1
  Mo  Mo187  1  0.71112848  0.30572847  0.63876792  1
  Mo  Mo188  1  0.29330331  0.10066847  0.63578819  1
  Mo  Mo189  1  0.29669298  0.29753727  0.38549217  1
  Mo  Mo190  1  0.40208014  0.19731304  0.23650490  1
  Mo  Mo191  1  0.70130300  0.49087304  0.38277539  1
  Mo  Mo192  1  0.31909884  0.11547994  0.36176286  1
  Mo  Mo193  1  0.49536907  0.49962463  0.85881528  1
  Mo  Mo194  1  0.40100671  0.80585486  0.01551454  1
  Mo  Mo195  1  0.60112614  -0.01048853  0.51749314  1
  Mo  Mo196  1  0.00461715  0.40392359  0.23236709  1
  Mo  Mo197  1  0.39598441  0.59965970  0.76192078  1
  Mo  Mo198  1  0.70328294  0.70991641  0.86600822  1
  Mo  Mo199  1  0.09970028  0.90586425  0.87955605  1
