# generated using pymatgen
data_HfZrTaTiMo
_symmetry_space_group_name_H-M   'P 1'
_cell_length_a   15.82988907
_cell_length_b   15.85470721
_cell_length_c   15.39355497
_cell_angle_alpha   90.00852446
_cell_angle_beta   90.07144358
_cell_angle_gamma   90.03213753
_symmetry_Int_Tables_number   1
_chemical_formula_structural   HfZrTaTiMo
_chemical_formula_sum   'Hf40 Zr40 Ta40 Ti40 Mo40'
_cell_volume   3863.44393043
_cell_formula_units_Z   40
loop_
 _symmetry_equiv_pos_site_id
 _symmetry_equiv_pos_as_xyz
  1  'x, y, z'
loop_
 _atom_site_type_symbol
 _atom_site_label
 _atom_site_symmetry_multiplicity
 _atom_site_fract_x
 _atom_site_fract_y
 _atom_site_fract_z
 _atom_site_occupancy
  Hf  Hf0  1  0.40704464  0.60331128  0.75046120  1
  Hf  Hf1  1  0.39692989  0.81322156  0.48602349  1
  Hf  Hf2  1  0.30115553  0.89982467  0.88336153  1
  Hf  Hf3  1  0.50490319  0.69630367  0.38054017  1
  Hf  Hf4  1  0.60812153  0.60330612  0.73616825  1
  Hf  Hf5  1  0.59355119  0.60370341  0.23358622  1
  Hf  Hf6  1  0.39721243  0.01327164  0.76049777  1
  Hf  Hf7  1  0.91632735  0.70565683  0.12828858  1
  Hf  Hf8  1  0.82287882  0.80662446  0.26718098  1
  Hf  Hf9  1  0.81860226  0.58752987  0.73222159  1
  Hf  Hf10  1  0.29605008  0.50256890  0.35673846  1
  Hf  Hf11  1  0.80699825  0.00215283  0.00632349  1
  Hf  Hf12  1  -0.01687670  0.41730487  0.73472008  1
  Hf  Hf13  1  0.80858367  0.38578961  0.26644404  1
  Hf  Hf14  1  0.81138127  0.80091467  -0.00756870  1
  Hf  Hf15  1  0.39174502  0.59710412  0.49823555  1
  Hf  Hf16  1  0.50903513  0.70664057  0.60807733  1
  Hf  Hf17  1  -0.01607878  -0.01974271  0.25553493  1
  Hf  Hf18  1  0.42082910  0.80575814  0.24036111  1
  Hf  Hf19  1  0.82251101  0.39658112  0.00678719  1
  Hf  Hf20  1  0.08980371  0.88309363  0.12355815  1
  Hf  Hf21  1  0.69941269  0.28547153  0.13071381  1
  Hf  Hf22  1  0.20793967  0.19539270  0.75793389  1
  Hf  Hf23  1  0.30376669  0.10838002  0.12276828  1
  Hf  Hf24  1  0.49904072  0.89949259  0.62868768  1
  Hf  Hf25  1  0.09570523  0.30783893  0.87505987  1
  Hf  Hf26  1  0.30649292  0.91338540  0.34979870  1
  Hf  Hf27  1  0.88457178  0.08062542  0.37455058  1
  Hf  Hf28  1  0.59647603  0.00189852  0.48487139  1
  Hf  Hf29  1  0.70502623  0.50647093  0.88348116  1
  Hf  Hf30  1  0.69483449  0.50138203  0.36581324  1
  Hf  Hf31  1  0.10357649  0.89280431  0.37381924  1
  Hf  Hf32  1  0.20910779  0.78767930  0.00107948  1
  Hf  Hf33  1  0.40867796  0.41050971  0.23027106  1
  Hf  Hf34  1  0.70399749  0.90446916  0.86999342  1
  Hf  Hf35  1  0.49976861  0.30842094  0.61926656  1
  Hf  Hf36  1  0.37851635  0.20259778  0.49353342  1
  Hf  Hf37  1  0.60209536  0.21128159  0.75405422  1
  Hf  Hf38  1  0.58996323  0.40902374  0.75800625  1
  Hf  Hf39  1  0.69116257  0.69695305  0.89072697  1
  Zr  Zr40  1  0.69557406  0.89107361  0.62963078  1
  Zr  Zr41  1  0.13367088  0.28992406  0.40227928  1
  Zr  Zr42  1  0.29403415  0.30791297  0.62592202  1
  Zr  Zr43  1  0.71048507  0.49730971  0.13806382  1
  Zr  Zr44  1  0.28488791  0.11272406  0.35187276  1
  Zr  Zr45  1  0.51098493  0.89995806  0.88907231  1
  Zr  Zr46  1  -0.00339840  0.18796607  0.50116091  1
  Zr  Zr47  1  0.39335526  0.00657669  0.50747512  1
  Zr  Zr48  1  0.09927708  0.89647215  0.86743297  1
  Zr  Zr49  1  0.80281797  0.18827841  -0.00208628  1
  Zr  Zr50  1  0.81051302  0.59443269  0.01550512  1
  Zr  Zr51  1  0.69593982  0.29447174  0.89215771  1
  Zr  Zr52  1  0.20330098  0.59698565  0.02001988  1
  Zr  Zr53  1  0.39878670  0.79497601  0.75841563  1
  Zr  Zr54  1  0.87824800  0.29166169  0.62134523  1
  Zr  Zr55  1  -0.00393131  0.40112777  0.49943774  1
  Zr  Zr56  1  0.29040891  0.71357372  0.61423776  1
  Zr  Zr57  1  0.11126524  0.88518992  0.62707696  1
  Zr  Zr58  1  -0.01389690  0.19455493  -0.01782618  1
  Zr  Zr59  1  0.78575193  0.39368366  0.74597077  1
  Zr  Zr60  1  0.49834257  0.10820249  0.62583497  1
  Zr  Zr61  1  0.79074284  0.00251492  0.51470509  1
  Zr  Zr62  1  0.07683130  0.09771901  0.12116420  1
  Zr  Zr63  1  0.07773315  0.31202132  0.11000974  1
  Zr  Zr64  1  0.30346333  0.89998990  0.12504227  1
  Zr  Zr65  1  0.59911076  0.20089591  0.48361734  1
  Zr  Zr66  1  0.00361025  0.77679774  0.74320347  1
  Zr  Zr67  1  0.10204862  0.30070006  0.62848974  1
  Zr  Zr68  1  0.18072663  0.21134496  0.23224044  1
  Zr  Zr69  1  0.40198869  0.20830411  0.77198862  1
  Zr  Zr70  1  0.20320482  0.00336172  0.50448623  1
  Zr  Zr71  1  0.00993103  0.38524058  0.27802056  1
  Zr  Zr72  1  0.79762259  0.78130750  0.75178995  1
  Zr  Zr73  1  0.39287273  0.41466935  0.00470215  1
  Zr  Zr74  1  0.08928270  0.50830886  0.86353019  1
  Zr  Zr75  1  0.39777549  0.40265778  0.48700888  1
  Zr  Zr76  1  0.39807694  0.40539434  0.76849878  1
  Zr  Zr77  1  0.61441572  0.80162510  0.25018962  1
  Zr  Zr78  1  0.59947875  0.40629127  0.01475664  1
  Zr  Zr79  1  0.47950424  0.09571864  0.35054347  1
  Ta  Ta80  1  -0.01319164  0.19889388  0.27273270  1
  Ta  Ta81  1  -0.00418688  0.19971918  0.75288844  1
  Ta  Ta82  1  0.89473121  0.08346177  0.84717436  1
  Ta  Ta83  1  0.19965968  0.61623694  0.75082942  1
  Ta  Ta84  1  0.29515725  0.51485099  0.87696835  1
  Ta  Ta85  1  0.89596268  0.09504905  0.63958120  1
  Ta  Ta86  1  0.40771411  0.00333927  0.00742861  1
  Ta  Ta87  1  0.09603807  0.08967069  0.86501345  1
  Ta  Ta88  1  0.60064982  0.39839359  0.48824531  1
  Ta  Ta89  1  0.19032929  0.41314187  0.01052055  1
  Ta  Ta90  1  0.59800394  0.00740404  0.75032045  1
  Ta  Ta91  1  0.70097938  0.09525905  0.86562300  1
  Ta  Ta92  1  0.80180411  0.59356615  0.49251156  1
  Ta  Ta93  1  0.29669611  0.10079326  0.89886199  1
  Ta  Ta94  1  0.19129381  0.00213267  0.00554152  1
  Ta  Ta95  1  0.50228745  0.70461873  0.90002062  1
  Ta  Ta96  1  0.89978212  0.89248775  0.62559637  1
  Ta  Ta97  1  0.09433417  0.09097164  0.37045374  1
  Ta  Ta98  1  0.91964101  0.49123085  0.14805118  1
  Ta  Ta99  1  0.29582498  0.30309034  0.11650157  1
  Ta  Ta100  1  0.00849944  0.58617580  0.01703003  1
  Ta  Ta101  1  0.90184292  0.69956141  0.60024541  1
  Ta  Ta102  1  0.00415411  0.59499131  0.49477561  1
  Ta  Ta103  1  0.09953910  0.08893202  0.64691297  1
  Ta  Ta104  1  0.78467884  0.19928747  0.48316959  1
  Ta  Ta105  1  0.10161865  0.69562769  0.88278722  1
  Ta  Ta106  1  0.10704195  0.69690898  0.60030429  1
  Ta  Ta107  1  0.39369875  0.61637962  0.01956620  1
  Ta  Ta108  1  0.40096301  0.60854940  0.23100469  1
  Ta  Ta109  1  0.19927737  0.60483959  0.24141411  1
  Ta  Ta110  1  0.90418275  0.89764209  0.85797982  1
  Ta  Ta111  1  0.10928183  0.50468812  0.36930087  1
  Ta  Ta112  1  0.91589582  0.67903671  0.88055897  1
  Ta  Ta113  1  0.18869163  -0.00024672  0.23391002  1
  Ta  Ta114  1  0.59409863  -0.00893599  0.24595567  1
  Ta  Ta115  1  0.60509826  0.59236055  0.50157154  1
  Ta  Ta116  1  -0.00153831  -0.00582164  0.51067842  1
  Ta  Ta117  1  0.49722096  0.28659143  0.11954779  1
  Ta  Ta118  1  0.50458897  0.52236247  0.89579662  1
  Ta  Ta119  1  0.80993056  0.60719403  0.25883031  1
  Ti  Ti120  1  0.90190208  0.50260587  0.37591618  1
  Ti  Ti121  1  0.49903521  0.49980808  0.61697130  1
  Ti  Ti122  1  0.29280047  0.30540040  0.89641500  1
  Ti  Ti123  1  0.30607931  0.30614943  0.34450726  1
  Ti  Ti124  1  0.70822670  0.70589695  0.12197250  1
  Ti  Ti125  1  0.90494339  0.89305814  0.11764461  1
  Ti  Ti126  1  0.00184480  0.60708272  0.26487350  1
  Ti  Ti127  1  -0.00335715  0.79766759  0.48780239  1
  Ti  Ti128  1  0.29539203  0.50876678  0.63412378  1
  Ti  Ti129  1  0.09903655  0.70374207  0.13657305  1
  Ti  Ti130  1  -0.00704516  -0.00686832  -0.00749414  1
  Ti  Ti131  1  0.89034891  0.09924757  0.14448717  1
  Ti  Ti132  1  0.29268985  0.90454564  0.64409601  1
  Ti  Ti133  1  0.20508167  0.42242228  0.50583326  1
  Ti  Ti134  1  0.10955008  0.69806675  0.38093044  1
  Ti  Ti135  1  0.60910219  0.00568807  0.01093067  1
  Ti  Ti136  1  0.89875435  0.30398678  0.86362873  1
  Ti  Ti137  1  0.61003622  0.81006486  0.48026933  1
  Ti  Ti138  1  0.59677788  0.79327953  0.75341531  1
  Ti  Ti139  1  0.50203757  0.10307578  0.12471202  1
  Ti  Ti140  1  0.49922766  0.29778683  0.90366408  1
  Ti  Ti141  1  0.79041796  0.39031556  0.48567776  1
  Ti  Ti142  1  0.50854559  0.10650216  0.89416512  1
  Ti  Ti143  1  0.59601980  0.39656938  0.24458289  1
  Ti  Ti144  1  0.70953110  0.69850334  0.38172569  1
  Ti  Ti145  1  0.59710593  0.19733173  0.25672468  1
  Ti  Ti146  1  0.29482050  0.70564875  0.36381737  1
  Ti  Ti147  1  0.90049626  0.28832545  0.13490012  1
  Ti  Ti148  1  0.20330578  0.40888691  0.75670610  1
  Ti  Ti149  1  0.70089841  0.48694431  0.61092306  1
  Ti  Ti150  1  0.70717401  0.89886388  0.12431036  1
  Ti  Ti151  1  0.69842554  0.09586904  0.14169304  1
  Ti  Ti152  1  0.50010426  0.50306231  0.36968084  1
  Ti  Ti153  1  0.18949951  0.19997554  -0.00137340  1
  Ti  Ti154  1  0.70698759  0.70168470  0.60242226  1
  Ti  Ti155  1  0.10631509  0.51200059  0.62612320  1
  Ti  Ti156  1  0.71624082  0.91534258  0.36838952  1
  Ti  Ti157  1  0.49458192  0.30157296  0.36091279  1
  Ti  Ti158  1  0.70698002  0.11684372  0.64157341  1
  Ti  Ti159  1  0.79329418  0.19600250  0.26962598  1
  Mo  Mo160  1  0.79778090  0.19649071  0.75937505  1
  Mo  Mo161  1  -0.00644155  0.40760858  -0.00615889  1
  Mo  Mo162  1  0.50102687  0.50568506  0.11644679  1
  Mo  Mo163  1  0.29611859  0.50289841  0.13380158  1
  Mo  Mo164  1  0.00268636  0.60206782  0.72126223  1
  Mo  Mo165  1  -0.00157930  -0.00925552  0.73481561  1
  Mo  Mo166  1  0.90576963  0.50055695  0.87691495  1
  Mo  Mo167  1  0.68824963  0.30031796  0.36079400  1
  Mo  Mo168  1  0.79892976  0.79828735  0.48853160  1
  Mo  Mo169  1  0.20560530  0.00058080  0.76081543  1
  Mo  Mo170  1  0.51313546  0.90735699  0.10858565  1
  Mo  Mo171  1  0.20399537  0.79209476  0.76384064  1
  Mo  Mo172  1  0.20701959  0.79785192  0.47612383  1
  Mo  Mo173  1  0.00038154  0.79139681  -0.01407544  1
  Mo  Mo174  1  0.09381281  0.50252262  0.14771058  1
  Mo  Mo175  1  0.20046215  0.40511439  0.23221834  1
  Mo  Mo176  1  0.20113750  0.59772986  0.49001957  1
  Mo  Mo177  1  0.89986658  0.89719047  0.40003676  1
  Mo  Mo178  1  0.60029069  0.60591053  0.01943907  1
  Mo  Mo179  1  0.60988066  0.80631978  0.01633942  1
  Mo  Mo180  1  0.40072948  0.21078187  0.23386070  1
  Mo  Mo181  1  0.40521335  0.80052705  0.00803869  1
  Mo  Mo182  1  0.79511654  -0.00740263  0.23333312  1
  Mo  Mo183  1  0.29326345  0.10058905  0.63828026  1
  Mo  Mo184  1  0.50551161  0.70969830  0.10953475  1
  Mo  Mo185  1  0.69148497  0.30114827  0.61299000  1
  Mo  Mo186  1  0.60008533  0.18599468  0.00824749  1
  Mo  Mo187  1  0.19758062  0.18114353  0.52482958  1
  Mo  Mo188  1  0.39947964  0.20254507  -0.00078573  1
  Mo  Mo189  1  0.50792581  0.90188349  0.37357029  1
  Mo  Mo190  1  0.89249431  0.28941353  0.39114122  1
  Mo  Mo191  1  0.79422919  -0.00542421  0.73691308  1
  Mo  Mo192  1  0.00474955  0.78851989  0.26942850  1
  Mo  Mo193  1  0.40546625  0.00317818  0.22353009  1
  Mo  Mo194  1  0.30336384  0.69613825  0.87493359  1
  Mo  Mo195  1  0.29943263  0.70856414  0.14514663  1
  Mo  Mo196  1  0.20113211  0.79570227  0.25516383  1
  Mo  Mo197  1  0.90744291  0.69398846  0.38632509  1
  Mo  Mo198  1  0.89322310  0.49942307  0.59632823  1
  Mo  Mo199  1  0.69278263  0.09579016  0.35333877  1
