# generated using pymatgen
data_HfZrTaTiMo
_symmetry_space_group_name_H-M   'P 1'
_cell_length_a   15.83600525
_cell_length_b   15.82849592
_cell_length_c   15.40527386
_cell_angle_alpha   89.97299371
_cell_angle_beta   90.07944307
_cell_angle_gamma   89.93687950
_symmetry_Int_Tables_number   1
_chemical_formula_structural   HfZrTaTiMo
_chemical_formula_sum   'Hf40 Zr40 Ta40 Ti40 Mo40'
_cell_volume   3861.48168513
_cell_formula_units_Z   40
loop_
 _symmetry_equiv_pos_site_id
 _symmetry_equiv_pos_as_xyz
  1  'x, y, z'
loop_
 _atom_site_type_symbol
 _atom_site_label
 _atom_site_symmetry_multiplicity
 _atom_site_fract_x
 _atom_site_fract_y
 _atom_site_fract_z
 _atom_site_occupancy
  Hf  Hf0  1  0.28941520  0.69664580  0.11150981  1
  Hf  Hf1  1  0.39816032  0.40660741  0.75194981  1
  Hf  Hf2  1  0.92344477  0.90687188  0.14052849  1
  Hf  Hf3  1  0.90292755  0.70856838  0.39336783  1
  Hf  Hf4  1  0.50216230  0.49356144  0.61775485  1
  Hf  Hf5  1  0.79000109  0.00822395  0.75066616  1
  Hf  Hf6  1  0.49608026  0.10245372  0.63447802  1
  Hf  Hf7  1  0.40203817  0.39131870  0.00604198  1
  Hf  Hf8  1  -0.00045025  0.40860458  0.26213926  1
  Hf  Hf9  1  0.00035368  0.40627345  0.00560382  1
  Hf  Hf10  1  0.80587508  0.60735738  0.74182620  1
  Hf  Hf11  1  -0.00339892  0.20336754  0.26019499  1
  Hf  Hf12  1  0.50397292  0.29967705  0.87468100  1
  Hf  Hf13  1  0.29458419  0.49471895  0.12191363  1
  Hf  Hf14  1  0.27937836  0.09609021  0.85383287  1
  Hf  Hf15  1  0.30440190  0.29575817  0.62351741  1
  Hf  Hf16  1  0.60284091  0.00515802  0.50926578  1
  Hf  Hf17  1  0.79723706  0.00095463  0.00503822  1
  Hf  Hf18  1  0.59629662  0.60649623  0.74916542  1
  Hf  Hf19  1  0.79561675  -0.00054744  0.50012753  1
  Hf  Hf20  1  0.80517433  0.60433899  0.00810932  1
  Hf  Hf21  1  0.79607133  0.80002222  0.23847049  1
  Hf  Hf22  1  0.00908833  0.40986673  0.73416932  1
  Hf  Hf23  1  0.60470829  0.40117420  0.01052622  1
  Hf  Hf24  1  0.08810402  0.07805005  0.14331381  1
  Hf  Hf25  1  0.48624126  0.10300120  0.13393122  1
  Hf  Hf26  1  0.11374128  0.50454699  0.87959256  1
  Hf  Hf27  1  -0.00506612  -0.01107288  -0.01961761  1
  Hf  Hf28  1  0.79981291  0.40345891  0.48989964  1
  Hf  Hf29  1  0.60891998  0.39925836  0.76169262  1
  Hf  Hf30  1  0.19662437  0.19970553  0.49073321  1
  Hf  Hf31  1  0.10038718  0.10356138  0.63589256  1
  Hf  Hf32  1  0.28931137  0.90235912  0.37592099  1
  Hf  Hf33  1  0.09733135  0.70034566  0.39058848  1
  Hf  Hf34  1  0.60995432  0.61277110  0.23052882  1
  Hf  Hf35  1  0.60329746  0.19988942  0.01394801  1
  Hf  Hf36  1  0.70090465  0.50643194  0.37040455  1
  Hf  Hf37  1  0.39934574  0.40184700  0.25078938  1
  Hf  Hf38  1  0.39003804  0.79144894  0.25173119  1
  Hf  Hf39  1  0.18755528  -0.01169145  -0.00512889  1
  Zr  Zr40  1  0.39693338  0.60726898  0.48326620  1
  Zr  Zr41  1  0.89934940  0.30520677  0.61940702  1
  Zr  Zr42  1  0.90539722  0.71626693  0.87386394  1
  Zr  Zr43  1  0.60934904  0.79793441  0.02073543  1
  Zr  Zr44  1  0.59179526  0.20550913  0.49298807  1
  Zr  Zr45  1  0.00021466  0.20449661  0.76487716  1
  Zr  Zr46  1  0.49001800  0.71709139  0.61771405  1
  Zr  Zr47  1  0.40957990  -0.01898445  0.76361952  1
  Zr  Zr48  1  0.19688077  0.19305877  0.00371324  1
  Zr  Zr49  1  0.20534782  0.60237824  0.26835401  1
  Zr  Zr50  1  0.10302482  0.30248931  0.12963242  1
  Zr  Zr51  1  0.21406473  0.79360114  0.73545491  1
  Zr  Zr52  1  0.69799917  0.70726303  0.87583922  1
  Zr  Zr53  1  0.61084058  0.18970428  0.76123255  1
  Zr  Zr54  1  0.79497246  0.20833480  0.25540089  1
  Zr  Zr55  1  0.08995076  0.68987749  0.84665215  1
  Zr  Zr56  1  0.68572618  0.30524359  0.61728773  1
  Zr  Zr57  1  0.10422308  0.07926479  0.37334978  1
  Zr  Zr58  1  0.90153812  0.10288920  0.62037511  1
  Zr  Zr59  1  0.32426021  0.88948812  0.61955330  1
  Zr  Zr60  1  0.70694471  0.70988440  0.39265470  1
  Zr  Zr61  1  0.39328182  -0.00403386  -0.00583887  1
  Zr  Zr62  1  0.50421185  0.90076522  0.37563138  1
  Zr  Zr63  1  0.91054937  0.51104037  0.87067148  1
  Zr  Zr64  1  0.79307064  0.19572854  0.48592028  1
  Zr  Zr65  1  0.81138646  0.60363942  0.24420620  1
  Zr  Zr66  1  0.70567340  0.50263218  0.61829980  1
  Zr  Zr67  1  0.79594811  0.20822011  0.75673486  1
  Zr  Zr68  1  0.29601292  0.09130906  0.63720471  1
  Zr  Zr69  1  0.09858138  0.88622249  0.85355428  1
  Zr  Zr70  1  -0.00440058  0.19444991  -0.00154158  1
  Zr  Zr71  1  0.39423442  0.19711564  -0.00955619  1
  Zr  Zr72  1  0.40069153  0.19202788  0.49043576  1
  Zr  Zr73  1  0.51304329  0.70777638  0.37542577  1
  Zr  Zr74  1  0.29008624  0.08962474  0.14023067  1
  Zr  Zr75  1  0.10794054  0.50702316  0.12394196  1
  Zr  Zr76  1  0.40627749  0.59391605  -0.00647280  1
  Zr  Zr77  1  0.28662381  0.69070892  0.88387775  1
  Zr  Zr78  1  0.11174737  0.30562681  0.87697066  1
  Zr  Zr79  1  0.20201952  0.79670040  0.50544744  1
  Ta  Ta80  1  0.30062772  0.49614425  0.38646654  1
  Ta  Ta81  1  0.19765160  0.19894083  0.26223918  1
  Ta  Ta82  1  0.30170721  0.29910586  0.37074505  1
  Ta  Ta83  1  0.79987444  0.00063094  0.24997891  1
  Ta  Ta84  1  0.30028080  0.29348532  0.14251389  1
  Ta  Ta85  1  0.79382615  0.81117402  0.73623802  1
  Ta  Ta86  1  0.41188573  0.38993542  0.49195389  1
  Ta  Ta87  1  0.90477921  0.51236249  0.38555593  1
  Ta  Ta88  1  0.40145598  0.59950092  0.25555363  1
  Ta  Ta89  1  0.30335387  0.49770413  0.60647036  1
  Ta  Ta90  1  0.19660806  0.39702383  0.49599106  1
  Ta  Ta91  1  0.50225881  0.29957153  0.35588547  1
  Ta  Ta92  1  0.69847105  0.90026659  0.36727564  1
  Ta  Ta93  1  0.71876497  0.48545313  0.12894639  1
  Ta  Ta94  1  0.59811316  0.20340027  0.23662766  1
  Ta  Ta95  1  0.81099956  0.81204382  0.00960500  1
  Ta  Ta96  1  0.39454548  0.60128794  0.75374920  1
  Ta  Ta97  1  0.88075132  0.31353493  0.12391186  1
  Ta  Ta98  1  -0.01053814  0.00067770  0.76154521  1
  Ta  Ta99  1  0.60187499  0.60042561  0.50313128  1
  Ta  Ta100  1  0.20156935  0.58360231  0.72480971  1
  Ta  Ta101  1  0.09356884  0.90525694  0.62973925  1
  Ta  Ta102  1  0.50920965  0.88924419  0.89037969  1
  Ta  Ta103  1  0.09428626  0.69647125  0.62071635  1
  Ta  Ta104  1  0.60538150  -0.00516125  0.74568570  1
  Ta  Ta105  1  0.68757990  0.09305762  0.35731025  1
  Ta  Ta106  1  0.60577760  0.59583497  0.01164521  1
  Ta  Ta107  1  0.59411749  0.81324772  0.74108824  1
  Ta  Ta108  1  0.69852559  0.70800706  0.61538726  1
  Ta  Ta109  1  0.40321136  0.20353145  0.75847482  1
  Ta  Ta110  1  0.50417679  0.50130725  0.13412648  1
  Ta  Ta111  1  0.01426983  0.61811562  0.00999924  1
  Ta  Ta112  1  0.91675373  0.70972094  0.12384184  1
  Ta  Ta113  1  0.49834641  0.09587421  0.35270793  1
  Ta  Ta114  1  0.00284283  0.20397522  0.48627064  1
  Ta  Ta115  1  0.89848508  0.10406459  0.13055999  1
  Ta  Ta116  1  0.60221732  -0.00656135  0.22852631  1
  Ta  Ta117  1  0.60253289  -0.00146770  0.01453242  1
  Ta  Ta118  1  0.51022337  0.49686382  0.36778145  1
  Ta  Ta119  1  0.00841363  0.39702579  0.49277121  1
  Ti  Ti120  1  0.80314319  0.40420055  0.75578084  1
  Ti  Ti121  1  0.49810519  0.70550767  0.87878210  1
  Ti  Ti122  1  0.90340187  0.50639770  0.61452577  1
  Ti  Ti123  1  0.48635130  0.89370913  0.11626720  1
  Ti  Ti124  1  0.88256946  0.10759297  0.88455996  1
  Ti  Ti125  1  0.08749622  0.89335811  0.37184463  1
  Ti  Ti126  1  0.60690604  0.39656131  0.23518063  1
  Ti  Ti127  1  0.69931967  0.90332501  0.87757778  1
  Ti  Ti128  1  0.28862024  0.88777800  0.11661296  1
  Ti  Ti129  1  0.50949502  0.09002427  0.87915257  1
  Ti  Ti130  1  0.89985660  0.09060917  0.37108272  1
  Ti  Ti131  1  0.90559408  0.50241708  0.12885479  1
  Ti  Ti132  1  0.39426793  -0.01387302  0.24431384  1
  Ti  Ti133  1  0.00667309  0.59357777  0.50822717  1
  Ti  Ti134  1  0.40254856  -0.00048539  0.49451126  1
  Ti  Ti135  1  0.29249027  0.30268144  0.86545037  1
  Ti  Ti136  1  0.19890387  -0.00384392  0.51131565  1
  Ti  Ti137  1  0.89751440  0.30709648  0.37357736  1
  Ti  Ti138  1  0.49036063  0.69978883  0.11902807  1
  Ti  Ti139  1  0.71505612  0.29785583  0.89898223  1
  Ti  Ti140  1  0.90081985  0.89699525  0.37311718  1
  Ti  Ti141  1  0.19745909  0.39742032  0.72742257  1
  Ti  Ti142  1  0.50603017  0.50433445  0.87596172  1
  Ti  Ti143  1  0.69018985  0.30897151  0.36778792  1
  Ti  Ti144  1  0.30290218  0.09165255  0.36110667  1
  Ti  Ti145  1  0.60387769  0.80460864  0.22787628  1
  Ti  Ti146  1  0.70770681  0.10491648  0.12904761  1
  Ti  Ti147  1  0.18883312  0.79922989  0.24922429  1
  Ti  Ti148  1  0.29288137  0.49249882  0.88042613  1
  Ti  Ti149  1  0.30146984  0.88156830  0.88143494  1
  Ti  Ti150  1  0.30515809  0.69112166  0.61995343  1
  Ti  Ti151  1  0.00695443  0.60728772  0.25452288  1
  Ti  Ti152  1  0.16362927  0.78645302  0.00666371  1
  Ti  Ti153  1  0.89446931  0.31010920  0.88882667  1
  Ti  Ti154  1  0.80354307  0.81759355  0.51839470  1
  Ti  Ti155  1  0.70753629  0.50003921  0.88373250  1
  Ti  Ti156  1  -0.01707929  0.80313399  0.72626317  1
  Ti  Ti157  1  0.19345379  0.39920712  0.27331017  1
  Ti  Ti158  1  0.89993947  0.70188386  0.60922351  1
  Ti  Ti159  1  -0.00445682  -0.00868425  0.50128451  1
  Mo  Mo160  1  0.09643424  0.70685492  0.14140066  1
  Mo  Mo161  1  0.09875252  0.50279023  0.38870656  1
  Mo  Mo162  1  0.69392801  0.09402817  0.89819248  1
  Mo  Mo163  1  0.80455765  0.40680091  -0.00860898  1
  Mo  Mo164  1  0.29944431  0.70242467  0.37256567  1
  Mo  Mo165  1  -0.00259921  0.80299500  -0.00306006  1
  Mo  Mo166  1  0.88879289  0.89883031  0.86060007  1
  Mo  Mo167  1  0.00017101  0.79470782  0.26498583  1
  Mo  Mo168  1  0.80153062  0.20331613  0.00899869  1
  Mo  Mo169  1  0.59320653  0.40192547  0.48320659  1
  Mo  Mo170  1  0.80682975  0.40463735  0.26742426  1
  Mo  Mo171  1  0.10387031  0.89244493  0.13568418  1
  Mo  Mo172  1  0.10394823  0.49746002  0.60632215  1
  Mo  Mo173  1  0.19469804  -0.00796715  0.74649349  1
  Mo  Mo174  1  0.19600724  0.59902885  0.00062620  1
  Mo  Mo175  1  0.90075377  0.90635373  0.63063865  1
  Mo  Mo176  1  0.40071113  0.80413123  0.47828788  1
  Mo  Mo177  1  0.80551301  0.60413453  0.51042874  1
  Mo  Mo178  1  0.39941008  0.80006708  -0.00204612  1
  Mo  Mo179  1  0.70851013  0.90448728  0.13346778  1
  Mo  Mo180  1  0.20052739  0.59620717  0.50591827  1
  Mo  Mo181  1  0.49812033  0.30199995  0.13845036  1
  Mo  Mo182  1  0.49459361  0.30340737  0.64028685  1
  Mo  Mo183  1  0.00036903  0.60019830  0.72216799  1
  Mo  Mo184  1  0.60669863  0.81057142  0.51354848  1
  Mo  Mo185  1  0.09455933  0.09552476  0.85696879  1
  Mo  Mo186  1  0.69855596  0.90194869  0.62777049  1
  Mo  Mo187  1  0.50217030  0.90129951  0.61514763  1
  Mo  Mo188  1  0.20049532  -0.01677567  0.24499322  1
  Mo  Mo189  1  0.21292814  0.39467602  0.00152209  1
  Mo  Mo190  1  0.10142534  0.29786246  0.61329223  1
  Mo  Mo191  1  -0.00726807  -0.00426036  0.26947508  1
  Mo  Mo192  1  0.20053590  0.21033325  0.74237994  1
  Mo  Mo193  1  0.40978386  0.78897719  0.77121489  1
  Mo  Mo194  1  0.39498493  0.19787647  0.26191509  1
  Mo  Mo195  1  -0.00347644  0.81107984  0.51297718  1
  Mo  Mo196  1  0.69589959  0.10189691  0.62128412  1
  Mo  Mo197  1  0.70350112  0.30442943  0.12780593  1
  Mo  Mo198  1  0.70969973  0.69806852  0.11300336  1
  Mo  Mo199  1  0.10077982  0.29969302  0.37340277  1
