# generated using pymatgen
data_HfZrTaTiMo
_symmetry_space_group_name_H-M   'P 1'
_cell_length_a   15.82902164
_cell_length_b   15.84190484
_cell_length_c   15.39211967
_cell_angle_alpha   89.96339971
_cell_angle_beta   90.03355080
_cell_angle_gamma   90.03184488
_symmetry_Int_Tables_number   1
_chemical_formula_structural   HfZrTaTiMo
_chemical_formula_sum   'Hf40 Zr40 Ta40 Ti40 Mo40'
_cell_volume   3859.75442774
_cell_formula_units_Z   40
loop_
 _symmetry_equiv_pos_site_id
 _symmetry_equiv_pos_as_xyz
  1  'x, y, z'
loop_
 _atom_site_type_symbol
 _atom_site_label
 _atom_site_symmetry_multiplicity
 _atom_site_fract_x
 _atom_site_fract_y
 _atom_site_fract_z
 _atom_site_occupancy
  Hf  Hf0  1  0.89467044  0.49697953  0.13167366  1
  Hf  Hf1  1  0.60430309  0.80506960  0.25380084  1
  Hf  Hf2  1  0.19695182  0.20501650  0.75562065  1
  Hf  Hf3  1  0.90039297  0.70178652  0.38315977  1
  Hf  Hf4  1  0.09443076  0.49694151  0.87859164  1
  Hf  Hf5  1  0.51766163  0.50785437  0.63110146  1
  Hf  Hf6  1  0.79920768  0.80647514  0.25587095  1
  Hf  Hf7  1  0.19527072  0.01291607  0.49217002  1
  Hf  Hf8  1  0.48808146  0.08728781  0.62242164  1
  Hf  Hf9  1  0.89025840  0.90632981  0.86822831  1
  Hf  Hf10  1  0.39894229  0.40378104  0.50873451  1
  Hf  Hf11  1  0.30281025  0.50499151  0.65217009  1
  Hf  Hf12  1  0.50784074  0.49402876  0.86005099  1
  Hf  Hf13  1  0.20093426  0.40177213  0.50369717  1
  Hf  Hf14  1  0.60570444  0.79874386  0.52513481  1
  Hf  Hf15  1  0.39847237  0.60324176  0.50186150  1
  Hf  Hf16  1  0.00259842  0.40197917  0.48638024  1
  Hf  Hf17  1  0.79203043  0.20110472  0.74562837  1
  Hf  Hf18  1  0.50222313  0.70671248  0.38464014  1
  Hf  Hf19  1  0.40628564  0.80869481  -0.01226795  1
  Hf  Hf20  1  0.09800745  0.90125437  0.86365154  1
  Hf  Hf21  1  0.09516523  0.69166401  0.11573034  1
  Hf  Hf22  1  0.20098613  0.80057839  0.50232632  1
  Hf  Hf23  1  0.40775173  0.39987543  0.23800256  1
  Hf  Hf24  1  0.69750319  0.48658706  0.38910438  1
  Hf  Hf25  1  0.59972355  0.19195806  0.24434637  1
  Hf  Hf26  1  0.29953832  0.70277587  0.37142722  1
  Hf  Hf27  1  0.10000724  0.29197523  0.34550254  1
  Hf  Hf28  1  0.30658050  0.90854898  0.63392233  1
  Hf  Hf29  1  0.50438327  0.50259657  0.37948187  1
  Hf  Hf30  1  0.20567252  0.81231456  0.00692551  1
  Hf  Hf31  1  0.69705062  0.10418733  0.87455923  1
  Hf  Hf32  1  0.51672748  0.30216390  0.39142854  1
  Hf  Hf33  1  0.50205705  0.51702414  0.11898793  1
  Hf  Hf34  1  0.60027956  -0.00093081  0.50514346  1
  Hf  Hf35  1  -0.00688730  0.00040127  0.25127990  1
  Hf  Hf36  1  -0.00616723  0.80534441  0.24319404  1
  Hf  Hf37  1  -0.01972618  0.59916742  0.76683245  1
  Hf  Hf38  1  0.80064074  0.58269921  -0.01522322  1
  Hf  Hf39  1  0.39928939  0.61258672  -0.02484022  1
  Zr  Zr40  1  0.79835212  0.80292207  0.51170948  1
  Zr  Zr41  1  0.88968758  0.71298078  0.88826290  1
  Zr  Zr42  1  0.10092268  0.91112748  0.63264581  1
  Zr  Zr43  1  -0.00956783  0.40125589  -0.00073741  1
  Zr  Zr44  1  -0.01308205  0.20429556  0.00142671  1
  Zr  Zr45  1  0.31160129  0.70113304  0.12622885  1
  Zr  Zr46  1  0.39977091  0.19526586  0.50118004  1
  Zr  Zr47  1  0.10367285  0.09551478  0.88056938  1
  Zr  Zr48  1  0.10744586  0.49705089  0.35686483  1
  Zr  Zr49  1  0.88464069  0.11022845  0.36898305  1
  Zr  Zr50  1  0.89524485  0.10468585  0.61539459  1
  Zr  Zr51  1  0.30160046  0.30808515  0.36626003  1
  Zr  Zr52  1  0.19737997  0.80632018  0.23901674  1
  Zr  Zr53  1  0.40783953  0.19533937  0.24690124  1
  Zr  Zr54  1  -0.00339023  0.59120490  0.49966968  1
  Zr  Zr55  1  -0.00876341  0.00335889  0.00734966  1
  Zr  Zr56  1  0.78413789  0.78910695  0.72855379  1
  Zr  Zr57  1  0.40339831  0.39114353  0.00837955  1
  Zr  Zr58  1  0.10049690  0.10365086  0.13065654  1
  Zr  Zr59  1  0.60411541  0.60398191  -0.01846189  1
  Zr  Zr60  1  0.30657019  0.70844662  0.63628088  1
  Zr  Zr61  1  0.51215949  0.28375825  0.88849983  1
  Zr  Zr62  1  0.20941759  0.20311102  0.00196189  1
  Zr  Zr63  1  0.90682474  0.30646886  0.62523463  1
  Zr  Zr64  1  0.89735329  0.69893399  0.11158567  1
  Zr  Zr65  1  0.60962745  0.40136112  0.23201227  1
  Zr  Zr66  1  0.09973370  0.69774435  0.63793833  1
  Zr  Zr67  1  0.71294732  0.28505916  0.37875389  1
  Zr  Zr68  1  0.50915067  0.90693302  0.12706604  1
  Zr  Zr69  1  0.19663667  0.20451996  0.50078110  1
  Zr  Zr70  1  0.00686336  0.19916528  0.48482368  1
  Zr  Zr71  1  0.69594471  0.69769795  0.11846762  1
  Zr  Zr72  1  0.29774581  0.48651616  0.87243305  1
  Zr  Zr73  1  0.20140701  0.59231575  0.50001523  1
  Zr  Zr74  1  0.79308880  0.59227948  0.25797190  1
  Zr  Zr75  1  0.60062646  -0.00441189  -0.00938377  1
  Zr  Zr76  1  0.09715115  0.48985624  0.65315132  1
  Zr  Zr77  1  0.09648325  0.89967612  0.37729913  1
  Zr  Zr78  1  0.41407659  0.38334522  0.74390121  1
  Zr  Zr79  1  0.08983051  0.71010054  0.88619680  1
  Ta  Ta80  1  0.60850354  0.40010122  0.01159598  1
  Ta  Ta81  1  0.59636091  0.20364835  0.73033285  1
  Ta  Ta82  1  -0.00598852  0.20259945  0.76709465  1
  Ta  Ta83  1  0.30436110  0.09749131  0.86379392  1
  Ta  Ta84  1  0.69665603  0.89614632  0.85349148  1
  Ta  Ta85  1  0.60089350  0.80261812  -0.01433141  1
  Ta  Ta86  1  0.29143361  0.90720216  0.85909586  1
  Ta  Ta87  1  0.39532256  0.00078275  -0.01407181  1
  Ta  Ta88  1  0.20161637  0.60031115  -0.00641594  1
  Ta  Ta89  1  0.09668663  0.30273393  0.13308676  1
  Ta  Ta90  1  0.09819644  0.69990536  0.37198806  1
  Ta  Ta91  1  0.40705333  0.80758485  0.25373848  1
  Ta  Ta92  1  0.29969385  0.50842968  0.11999542  1
  Ta  Ta93  1  0.29287206  0.09528455  0.63774519  1
  Ta  Ta94  1  0.41001300  0.00525541  0.26659478  1
  Ta  Ta95  1  0.09337680  0.10536655  0.63711105  1
  Ta  Ta96  1  0.60426680  0.00355483  0.73893521  1
  Ta  Ta97  1  0.70224863  0.08730964  0.12878174  1
  Ta  Ta98  1  0.70833041  0.29069883  0.11693779  1
  Ta  Ta99  1  0.70594145  0.30071112  0.60391786  1
  Ta  Ta100  1  0.69509726  0.69378903  0.39057417  1
  Ta  Ta101  1  0.20754050  0.40404049  0.22823586  1
  Ta  Ta102  1  0.29682264  0.29928464  0.63426277  1
  Ta  Ta103  1  -0.00419277  0.80284157  0.51058476  1
  Ta  Ta104  1  0.61488370  0.38582809  0.73669228  1
  Ta  Ta105  1  0.70084644  0.90099908  0.38245843  1
  Ta  Ta106  1  0.49094431  0.89048309  0.63696079  1
  Ta  Ta107  1  0.20785025  0.00511107  0.25165328  1
  Ta  Ta108  1  0.89655185  0.91180414  0.62371364  1
  Ta  Ta109  1  0.20724688  0.61321527  0.77493448  1
  Ta  Ta110  1  0.50115677  0.90137461  0.85225410  1
  Ta  Ta111  1  0.69866331  0.29615272  0.88860048  1
  Ta  Ta112  1  -0.01276970  0.01100779  0.75442510  1
  Ta  Ta113  1  0.50416633  0.69540100  0.64320798  1
  Ta  Ta114  1  0.30790416  0.90070156  0.37690034  1
  Ta  Ta115  1  0.40340838  0.19635656  0.74368078  1
  Ta  Ta116  1  -0.01192019  0.80338203  0.73540387  1
  Ta  Ta117  1  0.31313406  0.91473773  0.13494006  1
  Ta  Ta118  1  -0.00090772  0.60026309  0.25510805  1
  Ta  Ta119  1  0.89617229  0.30638665  0.35165032  1
  Ti  Ti120  1  0.78131123  0.81748364  0.00539304  1
  Ti  Ti121  1  0.30429051  0.09877314  0.37442728  1
  Ti  Ti122  1  0.49584577  0.89937496  0.39259005  1
  Ti  Ti123  1  0.20927186  0.00095777  0.01547392  1
  Ti  Ti124  1  0.10439209  0.30979001  0.87527725  1
  Ti  Ti125  1  0.40176678  0.60182417  0.25496472  1
  Ti  Ti126  1  0.40124072  0.18857041  0.00478616  1
  Ti  Ti127  1  0.81483180  0.40143896  0.49603634  1
  Ti  Ti128  1  0.79985805  0.39241992  0.00374757  1
  Ti  Ti129  1  0.88286689  0.91179950  0.12244342  1
  Ti  Ti130  1  0.60154258  0.60325463  0.25206792  1
  Ti  Ti131  1  0.09713503  0.50479738  0.11859130  1
  Ti  Ti132  1  0.88839369  0.30093453  0.87160368  1
  Ti  Ti133  1  0.09523053  0.30320037  0.63978927  1
  Ti  Ti134  1  0.30438423  0.29339556  0.12528647  1
  Ti  Ti135  1  0.79114585  -0.00268988  0.25777222  1
  Ti  Ti136  1  0.79723277  0.00417901  -0.00126042  1
  Ti  Ti137  1  -0.00467577  0.00153714  0.48818720  1
  Ti  Ti138  1  0.49776923  0.09564924  0.11625200  1
  Ti  Ti139  1  0.39185037  0.79215223  0.76750906  1
  Ti  Ti140  1  0.70669414  0.49822947  0.61975007  1
  Ti  Ti141  1  0.59897615  0.00175592  0.26626488  1
  Ti  Ti142  1  0.51561420  0.70365448  0.84858175  1
  Ti  Ti143  1  0.20114344  0.39825041  0.01381715  1
  Ti  Ti144  1  -0.00362441  0.40296183  0.24160912  1
  Ti  Ti145  1  0.30402895  0.29612835  0.87198923  1
  Ti  Ti146  1  0.50160993  0.70641343  0.12548896  1
  Ti  Ti147  1  0.78800388  0.00916758  0.49852855  1
  Ti  Ti148  1  0.78669231  0.59654804  0.75832845  1
  Ti  Ti149  1  0.21057533  0.19259741  0.24087776  1
  Ti  Ti150  1  -0.00066729  0.81867489  0.01739940  1
  Ti  Ti151  1  0.69918812  0.48417159  0.86653202  1
  Ti  Ti152  1  0.80521557  0.19182533  0.00832350  1
  Ti  Ti153  1  0.89464359  0.68797113  0.62210449  1
  Ti  Ti154  1  0.49966448  0.09866445  0.86722920  1
  Ti  Ti155  1  0.61149398  0.18592738  0.50576717  1
  Ti  Ti156  1  0.80357386  0.58966304  0.49757318  1
  Ti  Ti157  1  0.79940831  0.39797922  0.75015801  1
  Ti  Ti158  1  0.89764557  0.49497651  0.63946456  1
  Ti  Ti159  1  0.20279853  0.59821598  0.24453157  1
  Mo  Mo160  1  0.79989178  0.20004626  0.50376315  1
  Mo  Mo161  1  0.69777494  0.10352377  0.62798927  1
  Mo  Mo162  1  0.19893005  0.39463680  0.75357541  1
  Mo  Mo163  1  0.89711519  0.49445309  0.36091587  1
  Mo  Mo164  1  0.70232291  0.90523619  0.13121082  1
  Mo  Mo165  1  0.70021188  0.70847932  0.88123770  1
  Mo  Mo166  1  0.89355939  0.90434680  0.39735695  1
  Mo  Mo167  1  0.60314682  0.59843610  0.49925452  1
  Mo  Mo168  1  0.88676966  0.09725112  0.13598232  1
  Mo  Mo169  1  0.50329786  0.09528054  0.38784244  1
  Mo  Mo170  1  0.19490836  0.00658506  0.74552689  1
  Mo  Mo171  1  0.79885162  0.19452707  0.23136611  1
  Mo  Mo172  1  -0.00337559  0.20153869  0.24190008  1
  Mo  Mo173  1  0.39606727  -0.00342602  0.48681336  1
  Mo  Mo174  1  0.60432145  0.39732714  0.51548229  1
  Mo  Mo175  1  0.88719904  0.48730535  0.86413479  1
  Mo  Mo176  1  0.59983997  0.79824738  0.73948461  1
  Mo  Mo177  1  0.50605491  0.29002264  0.10907824  1
  Mo  Mo178  1  0.19557853  0.80282869  0.75477229  1
  Mo  Mo179  1  -0.00822316  0.39102737  0.76799884  1
  Mo  Mo180  1  0.89076111  0.10427164  0.87073707  1
  Mo  Mo181  1  0.10507572  0.10135205  0.35386712  1
  Mo  Mo182  1  0.31120970  0.09364997  0.12534681  1
  Mo  Mo183  1  0.60428081  0.19345408  0.01607639  1
  Mo  Mo184  1  0.70095973  0.49471962  0.11816529  1
  Mo  Mo185  1  0.61775500  0.59715969  0.75777617  1
  Mo  Mo186  1  0.50681867  0.29418060  0.61098874  1
  Mo  Mo187  1  0.89727801  0.29651268  0.13778092  1
  Mo  Mo188  1  0.29639189  0.70976325  0.87717094  1
  Mo  Mo189  1  0.69513032  0.09327177  0.36536449  1
  Mo  Mo190  1  0.79718146  0.00207206  0.74729183  1
  Mo  Mo191  1  0.79904058  0.39331866  0.24061917  1
  Mo  Mo192  1  0.69523718  0.66718340  0.61325310  1
  Mo  Mo193  1  0.40668742  0.60585089  0.76178371  1
  Mo  Mo194  1  0.30429576  0.50366893  0.34850527  1
  Mo  Mo195  1  0.70149064  0.91574960  0.63325102  1
  Mo  Mo196  1  -0.00147937  0.59584915  -0.00596701  1
  Mo  Mo197  1  0.40178111  0.00185796  0.76264894  1
  Mo  Mo198  1  0.40461911  0.80485784  0.50225766  1
  Mo  Mo199  1  0.10564540  0.90405905  0.13018339  1
