# generated using pymatgen
data_HfZrTaTiMo
_symmetry_space_group_name_H-M   'P 1'
_cell_length_a   15.83849683
_cell_length_b   15.83630360
_cell_length_c   15.42708155
_cell_angle_alpha   90.01154378
_cell_angle_beta   90.02224002
_cell_angle_gamma   90.03280263
_symmetry_Int_Tables_number   1
_chemical_formula_structural   HfZrTaTiMo
_chemical_formula_sum   'Hf40 Zr40 Ta40 Ti40 Mo40'
_cell_volume   3869.46964297
_cell_formula_units_Z   40
loop_
 _symmetry_equiv_pos_site_id
 _symmetry_equiv_pos_as_xyz
  1  'x, y, z'
loop_
 _atom_site_type_symbol
 _atom_site_label
 _atom_site_symmetry_multiplicity
 _atom_site_fract_x
 _atom_site_fract_y
 _atom_site_fract_z
 _atom_site_occupancy
  Hf  Hf0  1  0.30819241  0.89881883  0.63110672  1
  Hf  Hf1  1  0.49525974  0.89757663  0.62297081  1
  Hf  Hf2  1  0.58313890  0.59908403  0.02639479  1
  Hf  Hf3  1  0.39734615  -0.00250779  -0.00556814  1
  Hf  Hf4  1  0.70372021  0.10282027  0.86949702  1
  Hf  Hf5  1  0.69357964  0.91449301  0.37612845  1
  Hf  Hf6  1  0.10198082  0.10319650  0.11055818  1
  Hf  Hf7  1  0.40918416  0.19989198  0.26036980  1
  Hf  Hf8  1  0.59188381  0.80637002  0.25747491  1
  Hf  Hf9  1  0.89366099  0.70364097  0.12877740  1
  Hf  Hf10  1  0.30590572  0.11144201  0.10987092  1
  Hf  Hf11  1  0.79053547  0.79688163  0.75469424  1
  Hf  Hf12  1  0.19424741  0.80503525  0.50035877  1
  Hf  Hf13  1  0.50959598  0.68365052  0.37168043  1
  Hf  Hf14  1  0.30968963  0.11625795  0.63714365  1
  Hf  Hf15  1  0.09525450  0.89380506  0.63717990  1
  Hf  Hf16  1  0.19189983  0.59827856  0.74641135  1
  Hf  Hf17  1  0.49786597  0.89689277  0.12027561  1
  Hf  Hf18  1  0.31220935  0.51197918  0.88583888  1
  Hf  Hf19  1  0.29602731  0.70054992  0.37093655  1
  Hf  Hf20  1  0.70427605  0.31126478  0.87679372  1
  Hf  Hf21  1  0.59090665  0.78583930  0.75134768  1
  Hf  Hf22  1  0.22042700  0.38838732  -0.00250518  1
  Hf  Hf23  1  0.89890479  0.10578196  0.11085046  1
  Hf  Hf24  1  -0.00435929  0.59263977  0.24164158  1
  Hf  Hf25  1  0.48838811  0.87841870  0.87831767  1
  Hf  Hf26  1  0.00714642  -0.02260110  -0.00502522  1
  Hf  Hf27  1  0.09584705  0.70602415  0.37002698  1
  Hf  Hf28  1  0.19651154  0.01124584  0.51522767  1
  Hf  Hf29  1  0.29420413  0.47596314  0.62655762  1
  Hf  Hf30  1  0.68604008  0.50502300  0.36035638  1
  Hf  Hf31  1  0.59995978  -0.00213840  -0.00635276  1
  Hf  Hf32  1  0.69541269  0.11696630  0.38513652  1
  Hf  Hf33  1  0.48258492  0.29753908  0.62651664  1
  Hf  Hf34  1  0.59641961  -0.00272551  0.75311561  1
  Hf  Hf35  1  0.10589065  0.49119140  0.11409703  1
  Hf  Hf36  1  0.40132724  0.60513402  0.74303892  1
  Hf  Hf37  1  0.49301475  0.50150273  0.61014842  1
  Hf  Hf38  1  0.40612524  -0.00237371  0.24980022  1
  Hf  Hf39  1  0.00000824  0.60222941  0.01346993  1
  Zr  Zr40  1  0.00499920  -0.00074950  0.50115793  1
  Zr  Zr41  1  0.01505746  0.19499083  0.51562876  1
  Zr  Zr42  1  0.10435142  0.50634515  0.89280001  1
  Zr  Zr43  1  0.91282363  0.51331400  0.63230611  1
  Zr  Zr44  1  0.89154683  0.49073729  0.87512775  1
  Zr  Zr45  1  0.80367319  0.00466872  0.49616163  1
  Zr  Zr46  1  0.79153590  0.81083912  0.24606354  1
  Zr  Zr47  1  0.18970813  0.57892886  0.49740448  1
  Zr  Zr48  1  0.90054086  0.09465616  0.64460558  1
  Zr  Zr49  1  0.79587086  0.40096307  0.72902548  1
  Zr  Zr50  1  0.89724333  0.69769984  0.88438447  1
  Zr  Zr51  1  0.81023681  0.41410285  0.49945723  1
  Zr  Zr52  1  0.49507913  0.70099760  0.59998191  1
  Zr  Zr53  1  0.78409264  0.80086870  0.00540292  1
  Zr  Zr54  1  0.90607277  0.90255398  0.36477198  1
  Zr  Zr55  1  0.11202641  0.09978539  0.88913629  1
  Zr  Zr56  1  0.89195464  0.89441751  0.63620096  1
  Zr  Zr57  1  0.30000934  0.69930908  0.61265646  1
  Zr  Zr58  1  0.20562023  0.19953537  0.25019220  1
  Zr  Zr59  1  -0.01204683  0.58456355  0.47860383  1
  Zr  Zr60  1  0.69104575  0.50397206  0.88550346  1
  Zr  Zr61  1  0.90353005  0.30232258  0.37151792  1
  Zr  Zr62  1  0.38113982  0.38965507  0.47599174  1
  Zr  Zr63  1  0.79042368  0.58921802  0.02059009  1
  Zr  Zr64  1  0.80055913  0.21050196  0.51828595  1
  Zr  Zr65  1  0.19864000  0.60011129  0.23846403  1
  Zr  Zr66  1  0.60122320  0.40832724  0.73371900  1
  Zr  Zr67  1  0.52025973  0.29965046  0.37419976  1
  Zr  Zr68  1  0.59357739  0.20763767  -0.00533307  1
  Zr  Zr69  1  0.88759545  0.69898644  0.36227416  1
  Zr  Zr70  1  0.78515863  0.60375002  0.74446800  1
  Zr  Zr71  1  0.61864611  0.19899730  0.23320936  1
  Zr  Zr72  1  0.28716911  0.89278346  0.86806743  1
  Zr  Zr73  1  0.30031028  0.09166195  0.38267339  1
  Zr  Zr74  1  -0.00254460  0.00474148  0.24122129  1
  Zr  Zr75  1  0.10291166  0.29178551  0.11491435  1
  Zr  Zr76  1  0.10294558  0.30109552  0.37258602  1
  Zr  Zr77  1  0.19270985  0.80686896  0.02480684  1
  Zr  Zr78  1  0.69561668  0.70108566  0.60047717  1
  Zr  Zr79  1  0.00361972  -0.00246902  0.76568308  1
  Ta  Ta80  1  0.50158582  0.30484759  0.13184965  1
  Ta  Ta81  1  0.91595001  0.30407324  0.63640607  1
  Ta  Ta82  1  0.80344582  0.20590854  0.74939586  1
  Ta  Ta83  1  0.40061199  0.00193969  0.76088744  1
  Ta  Ta84  1  0.08304099  0.69091728  0.61814591  1
  Ta  Ta85  1  0.20475942  -0.00474931  0.23387247  1
  Ta  Ta86  1  0.21356442  0.21716282  0.50313238  1
  Ta  Ta87  1  0.41512654  0.40310224  -0.00293462  1
  Ta  Ta88  1  0.10881083  0.90357623  0.36230686  1
  Ta  Ta89  1  0.80151695  -0.00058479  -0.00861606  1
  Ta  Ta90  1  0.39362181  0.58934462  0.24926882  1
  Ta  Ta91  1  0.89563532  0.89408877  0.87528239  1
  Ta  Ta92  1  0.12197024  0.30397289  0.64009916  1
  Ta  Ta93  1  -0.00181887  0.39912155  0.23486251  1
  Ta  Ta94  1  0.30305263  0.10864707  0.87365620  1
  Ta  Ta95  1  0.20888533  0.39773852  0.76967757  1
  Ta  Ta96  1  0.69817272  0.09724006  0.63518090  1
  Ta  Ta97  1  0.90044139  0.70364390  0.61678567  1
  Ta  Ta98  1  0.89032942  0.29451565  0.13094813  1
  Ta  Ta99  1  0.20006196  0.00682706  0.74616008  1
  Ta  Ta100  1  0.40308809  0.19561490  0.49155084  1
  Ta  Ta101  1  0.49517610  0.49005556  0.14540641  1
  Ta  Ta102  1  0.71001915  0.10732166  0.10598392  1
  Ta  Ta103  1  0.50282179  0.50403284  0.87610103  1
  Ta  Ta104  1  0.30167459  0.70398764  0.87845128  1
  Ta  Ta105  1  -0.00357856  0.79965892  0.49632521  1
  Ta  Ta106  1  0.69637089  0.90256166  0.62259117  1
  Ta  Ta107  1  0.21653045  0.40435602  0.24858630  1
  Ta  Ta108  1  0.79189248  0.01898511  0.24278029  1
  Ta  Ta109  1  0.10159147  0.09697138  0.36841928  1
  Ta  Ta110  1  0.60881908  0.39878507  0.50842632  1
  Ta  Ta111  1  0.10636491  0.29917947  0.88093163  1
  Ta  Ta112  1  0.40347167  0.81286068  0.47423073  1
  Ta  Ta113  1  0.01338695  0.40114867  0.75751670  1
  Ta  Ta114  1  -0.01877181  0.39128888  0.00167554  1
  Ta  Ta115  1  0.60250658  0.20564591  0.74020942  1
  Ta  Ta116  1  0.59494594  0.00473718  0.51103109  1
  Ta  Ta117  1  0.10551569  0.70993434  0.89108309  1
  Ta  Ta118  1  0.00974248  0.20413745  0.75742859  1
  Ta  Ta119  1  0.48642791  0.68789751  0.88764459  1
  Ti  Ti120  1  0.39759834  0.21791769  -0.01246710  1
  Ti  Ti121  1  0.59756830  0.59977980  0.73947396  1
  Ti  Ti122  1  0.39776911  0.80187797  0.25488234  1
  Ti  Ti123  1  0.50777382  0.09367593  0.38820583  1
  Ti  Ti124  1  0.01201497  0.80242561  0.23060984  1
  Ti  Ti125  1  0.31756184  0.30914610  0.13326873  1
  Ti  Ti126  1  0.19430169  0.78921830  0.74603002  1
  Ti  Ti127  1  0.70569917  0.30353405  0.37621134  1
  Ti  Ti128  1  0.39006371  0.78107462  0.02448187  1
  Ti  Ti129  1  0.09714057  0.48728622  0.36289708  1
  Ti  Ti130  1  0.89716146  0.09962988  0.87317502  1
  Ti  Ti131  1  0.60065129  0.80455403  0.48290686  1
  Ti  Ti132  1  0.49929713  0.30923271  0.86152457  1
  Ti  Ti133  1  0.69588446  0.89558861  0.87501521  1
  Ti  Ti134  1  0.79168792  0.60167890  0.48382513  1
  Ti  Ti135  1  0.49714302  0.10015497  0.62566570  1
  Ti  Ti136  1  0.59890920  0.00880753  0.24350280  1
  Ti  Ti137  1  0.39397421  0.58703337  0.47871605  1
  Ti  Ti138  1  0.69579188  0.48860267  0.14048786  1
  Ti  Ti139  1  0.00488658  0.60459539  0.76053727  1
  Ti  Ti140  1  0.68087585  0.69382061  0.88523585  1
  Ti  Ti141  1  0.49688102  0.10864267  0.86915047  1
  Ti  Ti142  1  0.00158867  0.78831450  0.75894811  1
  Ti  Ti143  1  0.02090850  0.40206652  0.51536086  1
  Ti  Ti144  1  0.29661957  0.90519838  0.37287846  1
  Ti  Ti145  1  0.69840239  0.91197823  0.12472068  1
  Ti  Ti146  1  0.79834762  0.80255253  0.49035444  1
  Ti  Ti147  1  -0.00303085  0.19975146  0.24752888  1
  Ti  Ti148  1  0.80982990  0.21462070  -0.01560731  1
  Ti  Ti149  1  0.20466158  0.80435252  0.23477252  1
  Ti  Ti150  1  0.89633451  0.90219142  0.11949250  1
  Ti  Ti151  1  0.59376324  0.79041153  0.01159685  1
  Ti  Ti152  1  0.60174832  0.39992888  0.01370328  1
  Ti  Ti153  1  0.79604256  0.39399359  0.24387590  1
  Ti  Ti154  1  0.89922842  0.10950715  0.37065016  1
  Ti  Ti155  1  -0.00562452  0.20671651  -0.01693284  1
  Ti  Ti156  1  0.50120984  0.10472710  0.11583028  1
  Ti  Ti157  1  0.20502857  -0.00859853  0.00935121  1
  Ti  Ti158  1  0.69022739  0.69424451  0.14769188  1
  Ti  Ti159  1  0.21692471  0.61341903  0.02192559  1
  Mo  Mo160  1  0.89407245  0.48978136  0.13235910  1
  Mo  Mo161  1  0.79484062  0.59292862  0.24415868  1
  Mo  Mo162  1  0.59523198  0.59789183  0.23898686  1
  Mo  Mo163  1  0.09946124  0.90301278  0.13837215  1
  Mo  Mo164  1  0.69563168  0.50753620  0.60409903  1
  Mo  Mo165  1  0.29083163  0.49779612  0.37257352  1
  Mo  Mo166  1  0.31361084  0.30065115  0.86359819  1
  Mo  Mo167  1  0.30659192  0.90329934  0.13262149  1
  Mo  Mo168  1  0.69700721  0.70292271  0.37653940  1
  Mo  Mo169  1  0.41033791  0.19942569  0.76298430  1
  Mo  Mo170  1  0.49972183  0.91075000  0.37970248  1
  Mo  Mo171  1  0.19301054  0.39197590  0.49308963  1
  Mo  Mo172  1  0.10049017  0.88836339  0.85974774  1
  Mo  Mo173  1  0.70578805  0.30039463  0.11044360  1
  Mo  Mo174  1  0.49678688  0.49392553  0.36270611  1
  Mo  Mo175  1  0.40274098  0.40464514  0.76619862  1
  Mo  Mo176  1  0.21324443  0.20365180  -0.00880049  1
  Mo  Mo177  1  0.90432536  0.29901725  0.86049006  1
  Mo  Mo178  1  0.59851056  0.58945018  0.49311530  1
  Mo  Mo179  1  0.30567130  0.70245772  0.14627496  1
  Mo  Mo180  1  0.39806748  0.59978368  0.02281729  1
  Mo  Mo181  1  -0.00267583  0.80022296  0.00439905  1
  Mo  Mo182  1  0.80534750  0.19987816  0.24911373  1
  Mo  Mo183  1  0.60420113  0.39354524  0.23956616  1
  Mo  Mo184  1  0.30249255  0.29399064  0.36181924  1
  Mo  Mo185  1  0.40374174  0.00127611  0.49958175  1
  Mo  Mo186  1  0.09987739  0.49430456  0.63985262  1
  Mo  Mo187  1  0.49726056  0.69836103  0.14408573  1
  Mo  Mo188  1  0.79352782  -0.00212112  0.77063539  1
  Mo  Mo189  1  0.30171773  0.29791123  0.64386998  1
  Mo  Mo190  1  0.40062838  0.39890543  0.26087086  1
  Mo  Mo191  1  0.39542479  0.79289898  0.75640489  1
  Mo  Mo192  1  0.89138851  0.49472348  0.34780349  1
  Mo  Mo193  1  0.69973856  0.29708012  0.62190484  1
  Mo  Mo194  1  0.59829455  0.19891497  0.52139157  1
  Mo  Mo195  1  0.09811034  0.70145182  0.12271797  1
  Mo  Mo196  1  0.20407644  0.20363825  0.76158600  1
  Mo  Mo197  1  0.79781544  0.39511463  0.01518447  1
  Mo  Mo198  1  0.30865311  0.49542356  0.11400118  1
  Mo  Mo199  1  0.10965089  0.10799016  0.64186450  1
