# generated using pymatgen
data_HfZrTaTiMo
_symmetry_space_group_name_H-M   'P 1'
_cell_length_a   15.84002330
_cell_length_b   15.84173366
_cell_length_c   15.41294456
_cell_angle_alpha   89.99629668
_cell_angle_beta   90.02662646
_cell_angle_gamma   90.14157918
_symmetry_Int_Tables_number   1
_chemical_formula_structural   HfZrTaTiMo
_chemical_formula_sum   'Hf40 Zr40 Ta40 Ti40 Mo40'
_cell_volume   3867.61081780
_cell_formula_units_Z   40
loop_
 _symmetry_equiv_pos_site_id
 _symmetry_equiv_pos_as_xyz
  1  'x, y, z'
loop_
 _atom_site_type_symbol
 _atom_site_label
 _atom_site_symmetry_multiplicity
 _atom_site_fract_x
 _atom_site_fract_y
 _atom_site_fract_z
 _atom_site_occupancy
  Hf  Hf0  1  0.09891897  0.10734904  0.12634521  1
  Hf  Hf1  1  0.58192377  0.19034565  0.73921477  1
  Hf  Hf2  1  0.50479122  0.89703482  0.86234191  1
  Hf  Hf3  1  0.20706343  0.39173331  0.75858320  1
  Hf  Hf4  1  0.01094654  0.39776412  0.74288070  1
  Hf  Hf5  1  0.10053707  0.90209422  0.37787659  1
  Hf  Hf6  1  0.79471316  0.59186140  0.00968671  1
  Hf  Hf7  1  0.50900051  0.50586686  0.86346209  1
  Hf  Hf8  1  0.40534615  0.01601293  0.74163383  1
  Hf  Hf9  1  0.89034765  0.90292113  0.13155765  1
  Hf  Hf10  1  0.79756219  0.20635002  0.26085799  1
  Hf  Hf11  1  0.59588333  0.41723801  0.24786070  1
  Hf  Hf12  1  0.09556843  0.69738999  0.60935025  1
  Hf  Hf13  1  0.59814233  0.00701029  0.00678346  1
  Hf  Hf14  1  0.21111195  0.00405774  0.00403667  1
  Hf  Hf15  1  0.22158903  0.19380592  0.26027624  1
  Hf  Hf16  1  0.19660321  0.59396341  0.75248983  1
  Hf  Hf17  1  0.50262071  0.29168982  0.88155003  1
  Hf  Hf18  1  0.09703525  0.29885146  0.11699610  1
  Hf  Hf19  1  0.88707025  0.10582110  0.63341253  1
  Hf  Hf20  1  0.09641572  0.90494221  0.12972222  1
  Hf  Hf21  1  0.01131927  0.01310512  0.51019376  1
  Hf  Hf22  1  0.91205389  0.10915019  0.36869962  1
  Hf  Hf23  1  0.20166023  0.79072340  0.01143277  1
  Hf  Hf24  1  0.20169678  0.38797159  0.26878419  1
  Hf  Hf25  1  0.92275753  0.50390087  0.87207113  1
  Hf  Hf26  1  0.09286438  0.30467876  0.89626010  1
  Hf  Hf27  1  0.40976760  0.37477962  0.26310827  1
  Hf  Hf28  1  0.18889745  0.18797470  0.49391072  1
  Hf  Hf29  1  0.61485355  0.40525230  0.00483621  1
  Hf  Hf30  1  0.48766308  0.89052116  0.37108099  1
  Hf  Hf31  1  0.40983061  0.61367661  0.50720679  1
  Hf  Hf32  1  0.31904464  0.71151529  0.36122671  1
  Hf  Hf33  1  0.10171154  0.49622597  0.60741486  1
  Hf  Hf34  1  0.69312134  0.11241701  0.13279346  1
  Hf  Hf35  1  -0.01624058  0.39322629  0.49140294  1
  Hf  Hf36  1  0.79035003  0.58946740  0.48599105  1
  Hf  Hf37  1  -0.00216303  0.20233967  0.75162449  1
  Hf  Hf38  1  -0.00450092  0.59666325  0.25592312  1
  Hf  Hf39  1  0.30260781  0.49262196  0.13218488  1
  Zr  Zr40  1  0.89461771  0.89730670  0.61911431  1
  Zr  Zr41  1  0.60068826  0.80992336  0.01140581  1
  Zr  Zr42  1  0.70551164  0.70602496  0.13416874  1
  Zr  Zr43  1  -0.01595146  0.78211262  0.74612497  1
  Zr  Zr44  1  0.70682155  0.50548850  0.85580899  1
  Zr  Zr45  1  0.42161939  0.57855411  0.24467613  1
  Zr  Zr46  1  0.30264061  0.28689024  0.11384761  1
  Zr  Zr47  1  0.50275896  0.70166812  0.86937436  1
  Zr  Zr48  1  0.40426716  0.40326229  0.48689870  1
  Zr  Zr49  1  0.22127811  0.80456805  0.49506667  1
  Zr  Zr50  1  0.30899889  0.89375960  0.87127484  1
  Zr  Zr51  1  0.70320728  0.50112935  0.64705488  1
  Zr  Zr52  1  0.29961832  0.49585098  0.61804866  1
  Zr  Zr53  1  0.10321484  0.49124701  0.13826916  1
  Zr  Zr54  1  0.10405936  0.90238811  0.62212999  1
  Zr  Zr55  1  0.79332510  0.00670153  -0.00506702  1
  Zr  Zr56  1  0.29637032  0.09782387  0.61456701  1
  Zr  Zr57  1  0.49809459  0.29581297  0.61243412  1
  Zr  Zr58  1  0.00272648  0.79469863  0.25008207  1
  Zr  Zr59  1  0.10380047  0.10923666  0.88296829  1
  Zr  Zr60  1  0.81499566  0.38770176  -0.00731046  1
  Zr  Zr61  1  0.70129969  0.30633798  0.63347898  1
  Zr  Zr62  1  0.49690828  0.90057473  0.61887970  1
  Zr  Zr63  1  0.30143656  0.50526825  0.37174947  1
  Zr  Zr64  1  0.79348505  0.00566394  0.48774505  1
  Zr  Zr65  1  0.40052681  0.40260010  -0.00768953  1
  Zr  Zr66  1  0.40404134  -0.00537035  0.01002547  1
  Zr  Zr67  1  0.69305453  0.10394129  0.61802482  1
  Zr  Zr68  1  0.20668145  0.59588028  -0.00239908  1
  Zr  Zr69  1  0.00382981  0.59540543  0.02457356  1
  Zr  Zr70  1  0.60956801  0.41394401  0.48875377  1
  Zr  Zr71  1  -0.01074029  0.00548575  -0.00861981  1
  Zr  Zr72  1  0.59975775  0.79278293  0.49485687  1
  Zr  Zr73  1  0.89722821  0.50373150  0.62852256  1
  Zr  Zr74  1  0.00168876  0.20968973  0.52280648  1
  Zr  Zr75  1  0.08335586  0.68503226  0.87390290  1
  Zr  Zr76  1  0.70101395  0.71217511  0.86842655  1
  Zr  Zr77  1  0.88377838  0.88599142  0.87555289  1
  Zr  Zr78  1  0.09543600  0.89203442  0.87848498  1
  Zr  Zr79  1  0.20595756  0.79192342  0.74740805  1
  Ta  Ta80  1  0.69769818  0.29836974  0.85847971  1
  Ta  Ta81  1  0.89760806  0.10252441  0.13928525  1
  Ta  Ta82  1  0.30484491  0.69500513  0.13732225  1
  Ta  Ta83  1  0.79469527  0.00285151  0.26336234  1
  Ta  Ta84  1  0.90411161  0.90344416  0.37654539  1
  Ta  Ta85  1  0.40782365  0.60227854  0.00990656  1
  Ta  Ta86  1  0.09638490  0.49746590  0.37694373  1
  Ta  Ta87  1  0.19057671  0.38512965  0.48465647  1
  Ta  Ta88  1  -0.00535492  0.59835149  0.48301291  1
  Ta  Ta89  1  0.20591753  -0.00214097  0.25269109  1
  Ta  Ta90  1  0.29576747  0.29797437  0.61215763  1
  Ta  Ta91  1  0.69943770  0.89764644  0.63029137  1
  Ta  Ta92  1  0.89464844  0.70396945  0.13015316  1
  Ta  Ta93  1  0.30490503  0.89544662  0.13866526  1
  Ta  Ta94  1  0.89440056  0.70337141  0.37497054  1
  Ta  Ta95  1  0.39586587  0.60271405  0.73873510  1
  Ta  Ta96  1  0.50330429  0.70046165  0.13590506  1
  Ta  Ta97  1  0.38517889  -0.00790739  0.48552059  1
  Ta  Ta98  1  0.09539424  0.09509326  0.35522022  1
  Ta  Ta99  1  0.20289949  0.60161872  0.48735934  1
  Ta  Ta100  1  0.19876903  0.00563168  0.75641573  1
  Ta  Ta101  1  0.20060396  0.79641646  0.24831005  1
  Ta  Ta102  1  0.68956610  0.10541054  0.86910035  1
  Ta  Ta103  1  0.70577724  0.70342627  0.63353373  1
  Ta  Ta104  1  0.82357081  0.62212902  0.75211228  1
  Ta  Ta105  1  -0.00264579  0.00414268  0.75353871  1
  Ta  Ta106  1  0.50671883  0.49925653  0.63932164  1
  Ta  Ta107  1  0.49914324  0.10051912  0.37579116  1
  Ta  Ta108  1  0.49572274  0.10933138  0.14138014  1
  Ta  Ta109  1  0.79388912  0.79923066  0.48908002  1
  Ta  Ta110  1  0.70254312  0.30345078  0.13357491  1
  Ta  Ta111  1  0.51029581  0.29054197  0.11405109  1
  Ta  Ta112  1  0.60282833  0.80584982  0.25348599  1
  Ta  Ta113  1  -0.02927230  0.20476532  -0.00222391  1
  Ta  Ta114  1  0.80265171  0.21988375  0.48891894  1
  Ta  Ta115  1  0.69785078  0.30809227  0.37230378  1
  Ta  Ta116  1  0.39987669  0.39312286  0.75226853  1
  Ta  Ta117  1  0.39264245  0.00938368  0.25593249  1
  Ta  Ta118  1  0.49873735  0.10139285  0.88149755  1
  Ta  Ta119  1  0.50910198  0.69333788  0.36012463  1
  Ti  Ti120  1  0.39054378  0.20465574  0.74559621  1
  Ti  Ti121  1  0.79628366  0.00455337  0.75803112  1
  Ti  Ti122  1  0.69429478  0.90421426  0.37528679  1
  Ti  Ti123  1  0.30888967  0.50438450  0.87134997  1
  Ti  Ti124  1  0.58806507  0.21531138  0.26354780  1
  Ti  Ti125  1  0.20068360  0.40741868  -0.01016151  1
  Ti  Ti126  1  0.19610219  0.20217022  0.73973251  1
  Ti  Ti127  1  0.09919963  0.70212557  0.38348169  1
  Ti  Ti128  1  0.89744653  0.70203532  0.59987068  1
  Ti  Ti129  1  0.70142298  0.90752002  0.13775547  1
  Ti  Ti130  1  0.89923297  0.29723092  0.13535252  1
  Ti  Ti131  1  0.39983219  0.18589085  0.00237273  1
  Ti  Ti132  1  0.60164668  0.60129675  0.50352301  1
  Ti  Ti133  1  0.40238597  0.79575729  0.01446417  1
  Ti  Ti134  1  0.59985130  0.59578551  0.02088238  1
  Ti  Ti135  1  0.31145861  0.69738300  0.87933221  1
  Ti  Ti136  1  0.79228044  0.19995045  -0.00996556  1
  Ti  Ti137  1  0.59116821  0.00553959  0.49724004  1
  Ti  Ti138  1  0.30192979  0.10625964  0.87224587  1
  Ti  Ti139  1  0.39621878  0.79223515  0.73364243  1
  Ti  Ti140  1  0.79990620  0.40610241  0.26344958  1
  Ti  Ti141  1  0.08253877  0.28335389  0.36273111  1
  Ti  Ti142  1  0.89183481  0.70256945  0.89870345  1
  Ti  Ti143  1  0.69589528  0.69426539  0.36196073  1
  Ti  Ti144  1  0.50073101  0.90327951  0.14251575  1
  Ti  Ti145  1  0.39973733  0.19776717  0.48173512  1
  Ti  Ti146  1  0.79815922  0.80604168  0.26440486  1
  Ti  Ti147  1  0.88032551  0.30811530  0.64228436  1
  Ti  Ti148  1  0.59817983  0.00212195  0.74293636  1
  Ti  Ti149  1  0.51024077  0.70059541  0.63766938  1
  Ti  Ti150  1  -0.00146699  0.79348181  0.01546971  1
  Ti  Ti151  1  -0.00994006  0.39483094  0.26155940  1
  Ti  Ti152  1  0.19396243  0.60610621  0.25804873  1
  Ti  Ti153  1  0.59924622  0.00542228  0.25672457  1
  Ti  Ti154  1  0.89621986  0.48817317  0.13243869  1
  Ti  Ti155  1  0.29951819  0.90200772  0.62793459  1
  Ti  Ti156  1  0.29645822  0.28652888  0.88473393  1
  Ti  Ti157  1  0.79897566  0.59260081  0.25118080  1
  Ti  Ti158  1  0.69015024  0.10989745  0.37979508  1
  Ti  Ti159  1  0.69591080  0.89760264  0.85907591  1
  Mo  Mo160  1  0.00108947  0.20453336  0.23606510  1
  Mo  Mo161  1  0.29818443  0.09397354  0.38525880  1
  Mo  Mo162  1  0.40414954  0.79776146  0.51346709  1
  Mo  Mo163  1  0.10137133  0.09753910  0.64624325  1
  Mo  Mo164  1  0.50979529  0.51060399  0.38729792  1
  Mo  Mo165  1  0.79854226  0.80257315  0.73505718  1
  Mo  Mo166  1  0.79392124  0.19757782  0.76204966  1
  Mo  Mo167  1  0.60086302  0.80585685  0.73976083  1
  Mo  Mo168  1  0.80863355  0.39979642  0.76761113  1
  Mo  Mo169  1  0.50735188  0.29653662  0.38553943  1
  Mo  Mo170  1  0.60096511  0.20051280  0.48708947  1
  Mo  Mo171  1  0.49430105  0.09806897  0.59482003  1
  Mo  Mo172  1  -0.00316559  0.00129962  0.24912613  1
  Mo  Mo173  1  0.89848412  0.30136815  0.36446827  1
  Mo  Mo174  1  0.89735868  0.50081065  0.36616904  1
  Mo  Mo175  1  0.30369975  0.70041125  0.62162197  1
  Mo  Mo176  1  -0.00367492  0.39567076  0.00991509  1
  Mo  Mo177  1  -0.00716339  0.79669561  0.48673701  1
  Mo  Mo178  1  0.59197318  0.39630210  0.75609773  1
  Mo  Mo179  1  0.60524646  0.20199781  0.00288485  1
  Mo  Mo180  1  0.69961011  0.51092361  0.35920889  1
  Mo  Mo181  1  0.00170424  0.59880568  0.73362121  1
  Mo  Mo182  1  0.20013692  0.00020449  0.48481472  1
  Mo  Mo183  1  0.79883141  0.80203333  0.01395863  1
  Mo  Mo184  1  0.10431725  0.70041542  0.13630620  1
  Mo  Mo185  1  0.10669179  0.49374952  0.87822230  1
  Mo  Mo186  1  0.30037405  0.29320150  0.39214004  1
  Mo  Mo187  1  0.50487448  0.49457764  0.10770863  1
  Mo  Mo188  1  0.80067176  0.39863367  0.48266672  1
  Mo  Mo189  1  0.71072109  0.49650941  0.13581222  1
  Mo  Mo190  1  0.40707502  0.80017831  0.23377062  1
  Mo  Mo191  1  0.60866429  0.60232761  0.23952302  1
  Mo  Mo192  1  0.40813888  0.19530167  0.26188677  1
  Mo  Mo193  1  0.11270127  0.30044945  0.62560898  1
  Mo  Mo194  1  0.30151894  0.89853904  0.35743069  1
  Mo  Mo195  1  0.30616550  0.09383233  0.12712407  1
  Mo  Mo196  1  0.88848359  0.10135100  0.86153283  1
  Mo  Mo197  1  0.60144540  0.60613968  0.73780805  1
  Mo  Mo198  1  0.20941087  0.19804560  0.00088890  1
  Mo  Mo199  1  0.89508050  0.29776878  0.86556589  1
