# generated using pymatgen
data_HfZrTaTiMo
_symmetry_space_group_name_H-M   'P 1'
_cell_length_a   15.82014506
_cell_length_b   15.84853937
_cell_length_c   15.40272355
_cell_angle_alpha   90.00539155
_cell_angle_beta   90.02734319
_cell_angle_gamma   89.94005857
_symmetry_Int_Tables_number   1
_chemical_formula_structural   HfZrTaTiMo
_chemical_formula_sum   'Hf40 Zr40 Ta40 Ti40 Mo40'
_cell_volume   3861.86364982
_cell_formula_units_Z   40
loop_
 _symmetry_equiv_pos_site_id
 _symmetry_equiv_pos_as_xyz
  1  'x, y, z'
loop_
 _atom_site_type_symbol
 _atom_site_label
 _atom_site_symmetry_multiplicity
 _atom_site_fract_x
 _atom_site_fract_y
 _atom_site_fract_z
 _atom_site_occupancy
  Hf  Hf0  1  0.40780959  0.39190975  -0.02183407  1
  Hf  Hf1  1  0.39438591  0.39381197  0.27241661  1
  Hf  Hf2  1  0.39932346  0.79283282  -0.00607233  1
  Hf  Hf3  1  0.90886787  0.29294342  0.62639723  1
  Hf  Hf4  1  0.59775260  0.60224154  0.25735241  1
  Hf  Hf5  1  0.80782212  0.81068161  0.47752992  1
  Hf  Hf6  1  0.38954465  0.81352680  0.50284902  1
  Hf  Hf7  1  0.50095170  0.29869425  0.39602090  1
  Hf  Hf8  1  -0.00890059  -0.00753009  0.77312524  1
  Hf  Hf9  1  0.10662654  0.10226553  0.11264014  1
  Hf  Hf10  1  0.59479117  0.60557470  0.01022362  1
  Hf  Hf11  1  0.19797114  0.00256598  0.24169942  1
  Hf  Hf12  1  -0.00341553  0.20235442  -0.00375944  1
  Hf  Hf13  1  0.30470121  0.89257957  0.12509815  1
  Hf  Hf14  1  0.59635900  0.41096933  0.00095585  1
  Hf  Hf15  1  0.21228923  -0.00646028  0.49452302  1
  Hf  Hf16  1  0.11236269  0.30939678  0.11931911  1
  Hf  Hf17  1  0.10340055  0.29518756  0.63816529  1
  Hf  Hf18  1  0.80575484  0.59979654  0.25414221  1
  Hf  Hf19  1  0.79539057  0.40967541  0.73368578  1
  Hf  Hf20  1  0.90645324  0.50362923  0.88240320  1
  Hf  Hf21  1  0.90693078  0.70436090  0.90008250  1
  Hf  Hf22  1  0.61220739  0.19059194  0.51268288  1
  Hf  Hf23  1  0.00349179  0.20128304  0.23700639  1
  Hf  Hf24  1  0.41357370  0.18748328  0.76310524  1
  Hf  Hf25  1  0.49358949  0.10954677  0.10738482  1
  Hf  Hf26  1  0.10541101  0.90726506  0.63107376  1
  Hf  Hf27  1  0.40711756  0.00203851  0.26214479  1
  Hf  Hf28  1  0.69356560  0.31980699  0.86154225  1
  Hf  Hf29  1  0.60596697  0.59939965  0.72722931  1
  Hf  Hf30  1  0.60602189  0.39722641  0.51697856  1
  Hf  Hf31  1  0.79248618  0.19873753  0.23719522  1
  Hf  Hf32  1  0.29171237  0.49676435  0.13853433  1
  Hf  Hf33  1  0.78928733  0.00277376  0.47344921  1
  Hf  Hf34  1  0.79551239  0.21053152  0.00244702  1
  Hf  Hf35  1  0.39451359  0.79927820  0.73585494  1
  Hf  Hf36  1  0.70648358  0.07033863  0.63651879  1
  Hf  Hf37  1  0.90328548  0.10220702  0.36510015  1
  Hf  Hf38  1  0.39820591  0.18936933  0.51717333  1
  Hf  Hf39  1  0.30640195  0.51359318  0.85716621  1
  Zr  Zr40  1  0.90789453  0.29820895  0.37421592  1
  Zr  Zr41  1  0.10335174  0.50200044  0.60358165  1
  Zr  Zr42  1  -0.00170133  0.19032097  0.77606789  1
  Zr  Zr43  1  0.00007269  0.79668766  0.24162622  1
  Zr  Zr44  1  0.09591503  0.31337943  0.87427866  1
  Zr  Zr45  1  0.49382234  0.68627022  0.86138291  1
  Zr  Zr46  1  0.69712349  0.70487669  0.88690257  1
  Zr  Zr47  1  0.80463977  0.19216494  0.75870245  1
  Zr  Zr48  1  0.30371055  0.07265088  0.65149602  1
  Zr  Zr49  1  0.00781981  0.79888065  0.48605000  1
  Zr  Zr50  1  0.70926457  0.90232332  0.89499281  1
  Zr  Zr51  1  0.60761143  0.80618892  0.73266310  1
  Zr  Zr52  1  0.88946126  0.90963873  0.62347784  1
  Zr  Zr53  1  0.00059316  0.00145984  0.48630605  1
  Zr  Zr54  1  0.30661222  0.10477039  0.11684252  1
  Zr  Zr55  1  0.81063518  0.61125467  0.74653455  1
  Zr  Zr56  1  0.19478440  0.78777739  0.73747128  1
  Zr  Zr57  1  0.69040394  0.70013729  0.38350654  1
  Zr  Zr58  1  0.10435194  0.09947616  0.64198764  1
  Zr  Zr59  1  0.59955144  0.39576300  0.26220255  1
  Zr  Zr60  1  0.49257732  0.70881724  0.14260308  1
  Zr  Zr61  1  0.80254504  0.80634591  0.74513971  1
  Zr  Zr62  1  0.10755997  0.89892838  0.36367857  1
  Zr  Zr63  1  0.80233518  0.40087485  0.24810452  1
  Zr  Zr64  1  0.49636660  0.92809317  0.62877888  1
  Zr  Zr65  1  0.28459202  0.69610117  0.88048698  1
  Zr  Zr66  1  0.11420932  0.30615115  0.37048525  1
  Zr  Zr67  1  0.28991431  0.51482822  0.62279569  1
  Zr  Zr68  1  0.91100776  0.50909581  0.60717780  1
  Zr  Zr69  1  0.79974486  0.79668370  0.24630076  1
  Zr  Zr70  1  0.60412790  0.19835109  0.74761011  1
  Zr  Zr71  1  0.59546923  0.01520583  0.25539691  1
  Zr  Zr72  1  0.48945606  0.49557848  0.13910029  1
  Zr  Zr73  1  0.27846653  0.49028113  0.39237567  1
  Zr  Zr74  1  0.57934475  0.21619493  -0.02171194  1
  Zr  Zr75  1  0.09723295  0.87572037  0.89277790  1
  Zr  Zr76  1  0.79921961  0.41015275  0.00934061  1
  Zr  Zr77  1  -0.00491266  0.78374514  0.74297051  1
  Zr  Zr78  1  0.31142435  0.29644492  0.11744640  1
  Zr  Zr79  1  0.80320542  0.39109985  0.50234128  1
  Ta  Ta80  1  0.39219031  0.60116865  0.27578900  1
  Ta  Ta81  1  0.90177026  0.69356041  0.59687965  1
  Ta  Ta82  1  0.49336806  0.71220063  0.37958110  1
  Ta  Ta83  1  0.29896914  0.69105262  0.13274287  1
  Ta  Ta84  1  0.10530688  0.51315390  0.88310238  1
  Ta  Ta85  1  0.39730962  0.58993211  0.00418930  1
  Ta  Ta86  1  0.20159670  -0.00663138  -0.00707233  1
  Ta  Ta87  1  0.59561045  0.00466226  0.77015214  1
  Ta  Ta88  1  0.20663231  0.20145563  -0.02277803  1
  Ta  Ta89  1  0.79762200  0.00175903  0.24207841  1
  Ta  Ta90  1  0.90297589  0.09661123  0.62134445  1
  Ta  Ta91  1  0.40906301  0.19697069  0.26690637  1
  Ta  Ta92  1  0.68488892  0.29869497  0.12579517  1
  Ta  Ta93  1  0.39730975  -0.00210231  -0.01680224  1
  Ta  Ta94  1  0.00214705  0.59981337  0.24782335  1
  Ta  Ta95  1  0.00226792  0.59098761  0.02125630  1
  Ta  Ta96  1  0.68897267  0.90048778  0.35405885  1
  Ta  Ta97  1  0.38895659  0.61115807  0.49511752  1
  Ta  Ta98  1  0.19840163  0.40781524  0.75197549  1
  Ta  Ta99  1  0.29603369  0.10558444  0.37230060  1
  Ta  Ta100  1  0.88636163  0.07967771  0.90054623  1
  Ta  Ta101  1  0.49751332  0.50655470  0.39809063  1
  Ta  Ta102  1  0.59963807  0.81723841  0.50283390  1
  Ta  Ta103  1  0.49928652  0.69988777  0.60688496  1
  Ta  Ta104  1  0.70852114  0.70320369  0.59776362  1
  Ta  Ta105  1  0.40326935  0.00209913  0.48169940  1
  Ta  Ta106  1  0.69943378  0.50092213  0.38899569  1
  Ta  Ta107  1  0.70054301  0.09381726  0.89033224  1
  Ta  Ta108  1  0.40389050  0.40600324  0.73831622  1
  Ta  Ta109  1  0.69132428  0.10077267  0.10959603  1
  Ta  Ta110  1  0.50180370  0.30103686  0.63364847  1
  Ta  Ta111  1  0.69684110  0.51122300  0.87056604  1
  Ta  Ta112  1  0.20748838  0.40954000  -0.01278255  1
  Ta  Ta113  1  0.50369598  0.89151617  0.87939635  1
  Ta  Ta114  1  0.00212737  -0.00892794  0.00982471  1
  Ta  Ta115  1  0.10303400  0.49522200  0.13526481  1
  Ta  Ta116  1  0.29561106  0.28935910  0.64657540  1
  Ta  Ta117  1  0.68658184  0.89675382  0.12849131  1
  Ta  Ta118  1  0.39395874  0.39535949  0.51846159  1
  Ta  Ta119  1  0.49840805  0.90283856  0.11902283  1
  Ti  Ti120  1  0.10577605  0.10722743  0.36701401  1
  Ti  Ti121  1  0.89539480  0.89141853  0.90357628  1
  Ti  Ti122  1  0.89901093  0.31451012  0.87719751  1
  Ti  Ti123  1  0.79020747  0.79331036  0.02526319  1
  Ti  Ti124  1  0.30188745  0.89349630  0.35863783  1
  Ti  Ti125  1  0.90049711  0.69363409  0.11931891  1
  Ti  Ti126  1  0.59629697  0.19765879  0.25907285  1
  Ti  Ti127  1  0.20371322  0.79600579  0.50509404  1
  Ti  Ti128  1  0.21275181  0.20653243  0.24945610  1
  Ti  Ti129  1  0.70389469  0.29174817  0.37572589  1
  Ti  Ti130  1  0.00100484  0.41390519  0.74736821  1
  Ti  Ti131  1  0.71045008  0.51837102  0.60024858  1
  Ti  Ti132  1  0.59663514  0.00470874  0.48153158  1
  Ti  Ti133  1  0.89535984  0.09698118  0.11687616  1
  Ti  Ti134  1  0.49515259  0.50768955  0.61451345  1
  Ti  Ti135  1  0.29459626  0.09342814  0.86865343  1
  Ti  Ti136  1  0.59453115  -0.00407336  -0.00227758  1
  Ti  Ti137  1  0.09935821  0.69103727  0.90008459  1
  Ti  Ti138  1  0.19853623  0.79438088  0.23731020  1
  Ti  Ti139  1  0.90974988  0.31725934  0.12215953  1
  Ti  Ti140  1  0.20051203  0.19276230  0.50718607  1
  Ti  Ti141  1  -0.00155036  -0.00320556  0.23643059  1
  Ti  Ti142  1  0.11161129  0.69223893  0.11882626  1
  Ti  Ti143  1  0.01176296  0.60374538  0.74895370  1
  Ti  Ti144  1  0.49606002  0.29722712  0.13290985  1
  Ti  Ti145  1  0.29577192  0.89563879  0.86733047  1
  Ti  Ti146  1  0.79942743  0.19414738  0.50704100  1
  Ti  Ti147  1  0.28942025  0.70676778  0.36782010  1
  Ti  Ti148  1  0.29673360  0.29391355  0.39107113  1
  Ti  Ti149  1  0.50783947  0.49875856  0.85162330  1
  Ti  Ti150  1  0.01032620  0.39272322  0.49411240  1
  Ti  Ti151  1  0.30078870  0.30148309  0.85768356  1
  Ti  Ti152  1  0.69772446  0.50211224  0.13422138  1
  Ti  Ti153  1  0.00707026  0.60635923  0.46757824  1
  Ti  Ti154  1  0.90769755  0.49522282  0.37376463  1
  Ti  Ti155  1  0.00796316  0.19501102  0.49833952  1
  Ti  Ti156  1  0.79398980  0.59811427  0.01554354  1
  Ti  Ti157  1  0.10103268  0.49668432  0.35908267  1
  Ti  Ti158  1  0.10515600  0.68479553  0.60967181  1
  Ti  Ti159  1  0.89795653  0.90001416  0.12022360  1
  Mo  Mo160  1  0.18419256  0.60201968  0.75084213  1
  Mo  Mo161  1  0.00074854  0.40579012  0.24287005  1
  Mo  Mo162  1  0.69743591  0.69818600  0.12533773  1
  Mo  Mo163  1  -0.00274397  0.79189111  0.02526236  1
  Mo  Mo164  1  0.39972505  0.60552036  0.72124945  1
  Mo  Mo165  1  0.89757593  0.90585818  0.34465130  1
  Mo  Mo166  1  0.70222082  0.10702202  0.36831856  1
  Mo  Mo167  1  0.80082716  -0.00082646  0.76538279  1
  Mo  Mo168  1  0.79736009  -0.00293316  0.02755422  1
  Mo  Mo169  1  0.80919474  0.60188905  0.47734798  1
  Mo  Mo170  1  0.39180008  0.20169560  -0.02716853  1
  Mo  Mo171  1  0.20733121  0.37404266  0.52504253  1
  Mo  Mo172  1  0.00318489  0.40662299  0.00721022  1
  Mo  Mo173  1  0.20331613  0.19794158  0.77256243  1
  Mo  Mo174  1  0.69756042  0.89958689  0.61918576  1
  Mo  Mo175  1  0.19722581  0.60346792  0.25636698  1
  Mo  Mo176  1  0.20189858  0.59443548  0.01323482  1
  Mo  Mo177  1  0.49987647  0.09192474  0.88972599  1
  Mo  Mo178  1  0.49987872  0.10607986  0.38993079  1
  Mo  Mo179  1  0.10365200  0.89617212  0.11720612  1
  Mo  Mo180  1  0.19181651  0.61749462  0.47461140  1
  Mo  Mo181  1  0.39640064  0.80029631  0.26096299  1
  Mo  Mo182  1  0.59175340  0.80692384  0.24752686  1
  Mo  Mo183  1  0.50113141  0.89766439  0.37652396  1
  Mo  Mo184  1  0.70611130  0.29594177  0.63466528  1
  Mo  Mo185  1  0.40375176  -0.00773147  0.77648104  1
  Mo  Mo186  1  0.20190738  0.39347150  0.24908831  1
  Mo  Mo187  1  0.49793609  0.31722766  0.84609922  1
  Mo  Mo188  1  0.60411827  0.41302744  0.72388961  1
  Mo  Mo189  1  0.90638233  0.69596287  0.37448240  1
  Mo  Mo190  1  0.20056495  0.79518998  0.01791331  1
  Mo  Mo191  1  0.90382340  0.50362380  0.12856854  1
  Mo  Mo192  1  0.29377303  0.70020734  0.61088661  1
  Mo  Mo193  1  0.09953829  0.09065452  0.89240244  1
  Mo  Mo194  1  0.50398818  0.09573743  0.61812428  1
  Mo  Mo195  1  0.19394584  -0.00674040  0.78007284  1
  Mo  Mo196  1  0.59496633  0.80202533  0.01292641  1
  Mo  Mo197  1  0.10734711  0.69804145  0.35880487  1
  Mo  Mo198  1  0.59507876  0.60445591  0.50182819  1
  Mo  Mo199  1  0.29476892  0.90179461  0.63478183  1
