# generated using pymatgen
data_HfZrTaTiMo
_symmetry_space_group_name_H-M   'P 1'
_cell_length_a   15.83295650
_cell_length_b   15.84215214
_cell_length_c   15.41959737
_cell_angle_alpha   89.91480527
_cell_angle_beta   89.97315150
_cell_angle_gamma   89.88228383
_symmetry_Int_Tables_number   1
_chemical_formula_structural   HfZrTaTiMo
_chemical_formula_sum   'Hf40 Zr40 Ta40 Ti40 Mo40'
_cell_volume   3867.65554009
_cell_formula_units_Z   40
loop_
 _symmetry_equiv_pos_site_id
 _symmetry_equiv_pos_as_xyz
  1  'x, y, z'
loop_
 _atom_site_type_symbol
 _atom_site_label
 _atom_site_symmetry_multiplicity
 _atom_site_fract_x
 _atom_site_fract_y
 _atom_site_fract_z
 _atom_site_occupancy
  Hf  Hf0  1  0.90971466  0.51416295  0.63120151  1
  Hf  Hf1  1  0.49583403  0.89854349  0.35793882  1
  Hf  Hf2  1  0.19229680  0.19139918  0.24050936  1
  Hf  Hf3  1  0.49503478  0.69122154  0.35666561  1
  Hf  Hf4  1  0.68997637  0.30785569  0.39224104  1
  Hf  Hf5  1  0.89220542  0.11135581  0.86303686  1
  Hf  Hf6  1  0.89761012  0.70556607  0.88556557  1
  Hf  Hf7  1  0.60336068  0.00102160  0.75130839  1
  Hf  Hf8  1  0.88998313  0.30520780  0.65053188  1
  Hf  Hf9  1  0.70305987  0.30638312  0.86365403  1
  Hf  Hf10  1  0.40741323  0.79338455  0.01964408  1
  Hf  Hf11  1  0.80512787  0.02681061  0.27241326  1
  Hf  Hf12  1  0.20355774  0.00175205  0.00678946  1
  Hf  Hf13  1  0.09734989  0.10348628  0.87394081  1
  Hf  Hf14  1  0.88917624  0.89066438  0.62187235  1
  Hf  Hf15  1  0.70660210  0.71964364  0.62118617  1
  Hf  Hf16  1  -0.00036424  0.59425387  0.47501177  1
  Hf  Hf17  1  0.29071150  0.30474732  0.36709974  1
  Hf  Hf18  1  0.88230462  0.30901837  0.12752474  1
  Hf  Hf19  1  0.80073570  0.00616858  0.50185433  1
  Hf  Hf20  1  -0.02193211  0.18847692  0.25471266  1
  Hf  Hf21  1  0.60520893  0.60337699  0.73745311  1
  Hf  Hf22  1  0.41214719  0.19189526  0.25149764  1
  Hf  Hf23  1  0.10016883  0.30631190  0.87814302  1
  Hf  Hf24  1  0.80254389  0.60644047  0.75223793  1
  Hf  Hf25  1  0.39098974  0.59879967  0.75399373  1
  Hf  Hf26  1  0.31800879  0.91127908  0.13708228  1
  Hf  Hf27  1  0.70457291  0.10430077  0.11123302  1
  Hf  Hf28  1  0.30297927  0.48939302  0.88382388  1
  Hf  Hf29  1  0.40411103  0.58896055  0.02285759  1
  Hf  Hf30  1  0.71940557  0.48713555  0.12991838  1
  Hf  Hf31  1  0.09633330  0.67972508  0.61874988  1
  Hf  Hf32  1  0.61130161  0.39978102  0.72487936  1
  Hf  Hf33  1  0.29617586  0.08697172  0.36078054  1
  Hf  Hf34  1  0.50838691  0.89095970  0.87906598  1
  Hf  Hf35  1  0.50474359  0.89520552  0.62530472  1
  Hf  Hf36  1  -0.00526935  0.00329992  0.00192386  1
  Hf  Hf37  1  0.79397251  0.41195766  0.50893685  1
  Hf  Hf38  1  0.20649258  0.39410225  0.75013804  1
  Hf  Hf39  1  0.50104678  0.30534822  0.39029472  1
  Zr  Zr40  1  0.20576703  0.20263035  0.00387361  1
  Zr  Zr41  1  0.88890603  0.91043292  0.12561770  1
  Zr  Zr42  1  0.60692756  0.79508352  0.02187965  1
  Zr  Zr43  1  0.29144201  0.50560790  0.62471797  1
  Zr  Zr44  1  0.89044949  0.70381201  0.11975702  1
  Zr  Zr45  1  0.30592823  0.28585881  0.61459096  1
  Zr  Zr46  1  0.20390053  0.78934593  0.76618538  1
  Zr  Zr47  1  0.00724152  0.01219098  0.51651561  1
  Zr  Zr48  1  0.19953635  0.79469326  0.23636091  1
  Zr  Zr49  1  0.91766971  0.90681685  0.37508515  1
  Zr  Zr50  1  0.30891608  0.88513879  0.62069867  1
  Zr  Zr51  1  0.49075357  0.70704600  0.61958821  1
  Zr  Zr52  1  0.40232035  0.00277856  0.76586019  1
  Zr  Zr53  1  0.81207552  0.58695181  0.26529896  1
  Zr  Zr54  1  0.50262167  0.69139335  0.87891183  1
  Zr  Zr55  1  -0.00118347  0.60377994  0.24662008  1
  Zr  Zr56  1  0.50576001  0.28654223  0.88543207  1
  Zr  Zr57  1  0.20340642  -0.00670317  0.75934072  1
  Zr  Zr58  1  0.20168701  0.79894140  0.01571236  1
  Zr  Zr59  1  0.09281819  0.29662486  0.36403389  1
  Zr  Zr60  1  0.79765015  0.59820185  -0.00393907  1
  Zr  Zr61  1  -0.00342911  0.39441944  0.49803132  1
  Zr  Zr62  1  0.08544604  0.30453921  0.13021490  1
  Zr  Zr63  1  0.60438116  0.00823212  0.49322991  1
  Zr  Zr64  1  0.00252271  -0.00311781  0.74441726  1
  Zr  Zr65  1  0.49020899  0.11149730  0.61841459  1
  Zr  Zr66  1  0.29638444  0.09231068  0.62290190  1
  Zr  Zr67  1  0.18183995  0.18903440  0.49630748  1
  Zr  Zr68  1  -0.00288688  0.78897684  0.75627329  1
  Zr  Zr69  1  0.19826688  -0.01362176  0.49416620  1
  Zr  Zr70  1  0.50585499  0.50118704  0.37278712  1
  Zr  Zr71  1  0.50837254  0.48911104  0.87750784  1
  Zr  Zr72  1  0.60640369  0.80177005  0.48290318  1
  Zr  Zr73  1  0.70452877  0.91097091  0.13844590  1
  Zr  Zr74  1  0.17824071  0.58851199  0.76649220  1
  Zr  Zr75  1  0.30112478  0.50273628  0.35791591  1
  Zr  Zr76  1  0.10586431  0.87980841  0.62083746  1
  Zr  Zr77  1  0.49465780  0.50030089  0.61449319  1
  Zr  Zr78  1  0.60622596  0.19792450  0.25312678  1
  Zr  Zr79  1  0.40462672  0.40117335  0.23088151  1
  Ta  Ta80  1  0.29951353  0.69354797  0.89476553  1
  Ta  Ta81  1  0.20863163  0.78170649  0.47767943  1
  Ta  Ta82  1  0.69216366  0.71033938  0.87254058  1
  Ta  Ta83  1  0.39212243  0.40244446  0.50066191  1
  Ta  Ta84  1  0.00092405  0.59104112  0.00681786  1
  Ta  Ta85  1  0.01469954  0.41944968  0.75207360  1
  Ta  Ta86  1  0.40580482  0.37894629  0.74456139  1
  Ta  Ta87  1  0.38691179  0.60990045  0.49222815  1
  Ta  Ta88  1  0.20393791  0.40179413  0.01319878  1
  Ta  Ta89  1  0.09674138  0.69255176  0.89736576  1
  Ta  Ta90  1  0.59799848  0.01591680  0.26336311  1
  Ta  Ta91  1  0.90138962  0.70408638  0.61127280  1
  Ta  Ta92  1  0.79343289  0.00143757  0.74977322  1
  Ta  Ta93  1  -0.00048877  0.80275028  0.00976055  1
  Ta  Ta94  1  0.50916281  0.28948933  0.11192003  1
  Ta  Ta95  1  0.19109428  0.40306455  0.50552618  1
  Ta  Ta96  1  0.60408625  0.39720372  0.23736038  1
  Ta  Ta97  1  0.19803763  0.59696063  0.48290511  1
  Ta  Ta98  1  0.69057506  0.11109453  0.87121180  1
  Ta  Ta99  1  0.20859348  0.19946223  0.75857731  1
  Ta  Ta100  1  0.10577028  0.69659467  0.35955428  1
  Ta  Ta101  1  0.09532261  0.89378455  0.88793648  1
  Ta  Ta102  1  0.89738354  0.11387831  0.64174393  1
  Ta  Ta103  1  0.39798057  0.79564984  0.76449102  1
  Ta  Ta104  1  0.80210942  0.20413034  0.50066632  1
  Ta  Ta105  1  0.80483147  0.79536332  0.26822784  1
  Ta  Ta106  1  0.40142661  -0.00502474  0.48335581  1
  Ta  Ta107  1  -0.02547257  0.40969779  0.25903557  1
  Ta  Ta108  1  0.39719616  0.38972886  0.01211586  1
  Ta  Ta109  1  -0.01223836  0.20884893  -0.00524471  1
  Ta  Ta110  1  0.60622308  -0.00104218  -0.01167100  1
  Ta  Ta111  1  0.09407007  0.29349084  0.63681322  1
  Ta  Ta112  1  0.60454308  0.79717756  0.24641167  1
  Ta  Ta113  1  0.10773239  0.49170221  0.35551635  1
  Ta  Ta114  1  0.50278569  0.09056824  0.10880991  1
  Ta  Ta115  1  0.60318768  0.59596101  0.01967391  1
  Ta  Ta116  1  0.61041673  0.59801237  0.50478222  1
  Ta  Ta117  1  0.89388197  0.90478606  0.88021180  1
  Ta  Ta118  1  0.70339354  0.11406848  0.63108118  1
  Ta  Ta119  1  0.30379393  0.89138917  0.35417855  1
  Ti  Ti120  1  0.39208486  0.79602773  0.48213796  1
  Ti  Ti121  1  0.31344423  0.09553783  0.12837456  1
  Ti  Ti122  1  -0.00985668  0.19951449  0.50245546  1
  Ti  Ti123  1  0.29344926  0.70034886  0.62509643  1
  Ti  Ti124  1  0.40212877  0.19487194  0.00246086  1
  Ti  Ti125  1  0.10529995  0.89564564  0.36507091  1
  Ti  Ti126  1  0.70272914  0.69350304  0.14341322  1
  Ti  Ti127  1  0.79064356  0.81509012  -0.00452271  1
  Ti  Ti128  1  -0.00444431  0.40530942  -0.00317386  1
  Ti  Ti129  1  0.18674961  -0.00405284  0.23433048  1
  Ti  Ti130  1  0.90935705  0.50251275  0.86537914  1
  Ti  Ti131  1  0.80258233  0.80030012  0.47906999  1
  Ti  Ti132  1  0.88856524  0.10871474  0.10944828  1
  Ti  Ti133  1  0.80916244  0.40430624  -0.01691114  1
  Ti  Ti134  1  0.80017913  0.60796176  0.48932784  1
  Ti  Ti135  1  0.79817265  0.21051997  -0.01395134  1
  Ti  Ti136  1  0.30550493  0.89549115  0.89137648  1
  Ti  Ti137  1  0.70159023  0.90452012  0.36171335  1
  Ti  Ti138  1  0.60528790  0.40064237  0.00990462  1
  Ti  Ti139  1  0.69529115  0.69229984  0.36440799  1
  Ti  Ti140  1  0.78920312  0.81039361  0.75771611  1
  Ti  Ti141  1  0.00049694  0.80325890  0.24118142  1
  Ti  Ti142  1  0.39735394  0.19333911  0.48220263  1
  Ti  Ti143  1  0.70268033  0.29615312  0.12019716  1
  Ti  Ti144  1  0.31323623  0.10730608  0.88074914  1
  Ti  Ti145  1  0.20107302  0.59207575  0.01365195  1
  Ti  Ti146  1  0.00733026  0.79277552  0.48783157  1
  Ti  Ti147  1  0.69229029  0.49950117  0.37151840  1
  Ti  Ti148  1  0.79593898  0.20994352  0.27389564  1
  Ti  Ti149  1  0.00206726  0.00047013  0.23471009  1
  Ti  Ti150  1  0.20920050  0.59623221  0.23274565  1
  Ti  Ti151  1  0.09642855  0.49372721  0.13206024  1
  Ti  Ti152  1  0.90055098  0.30894898  0.85561190  1
  Ti  Ti153  1  0.58795322  0.20773022  0.73598555  1
  Ti  Ti154  1  0.50592373  0.91017636  0.13539763  1
  Ti  Ti155  1  0.08867388  0.10436744  0.11667622  1
  Ti  Ti156  1  0.69926431  0.50326529  0.87524384  1
  Ti  Ti157  1  0.09736773  0.69595715  0.12160632  1
  Ti  Ti158  1  0.30054260  0.29472464  0.13094898  1
  Ti  Ti159  1  0.08838016  0.08681707  0.36649203  1
  Mo  Mo160  1  0.60109379  0.20795314  0.51669821  1
  Mo  Mo161  1  0.10013664  0.49662509  0.89947480  1
  Mo  Mo162  1  0.40123118  0.60133364  0.22880863  1
  Mo  Mo163  1  0.30645755  0.29598985  0.88011772  1
  Mo  Mo164  1  0.60821685  0.20051674  0.00721662  1
  Mo  Mo165  1  0.60590426  0.59371497  0.23760010  1
  Mo  Mo166  1  0.70338531  0.90112668  0.87170099  1
  Mo  Mo167  1  0.69961244  0.10942610  0.39369485  1
  Mo  Mo168  1  0.60389941  0.80166563  0.74941157  1
  Mo  Mo169  1  0.90389257  0.70779508  0.38340232  1
  Mo  Mo170  1  0.50208819  0.09865606  0.89084989  1
  Mo  Mo171  1  0.59869626  0.40829219  0.51418844  1
  Mo  Mo172  1  0.09374083  0.11646470  0.64570398  1
  Mo  Mo173  1  0.50738961  0.69324598  0.14274875  1
  Mo  Mo174  1  0.40631413  0.00132718  -0.00790448  1
  Mo  Mo175  1  0.30157822  0.69499070  0.35430434  1
  Mo  Mo176  1  0.09558859  0.90576715  0.12280383  1
  Mo  Mo177  1  0.90603588  0.48921277  0.11503255  1
  Mo  Mo178  1  0.00252014  0.20924888  0.75923299  1
  Mo  Mo179  1  0.69854454  0.30012079  0.62095712  1
  Mo  Mo180  1  0.49573893  0.29962950  0.60792754  1
  Mo  Mo181  1  0.39797583  0.20356978  0.76417184  1
  Mo  Mo182  1  -0.00038247  0.60309839  0.76606326  1
  Mo  Mo183  1  0.89510043  0.49839951  0.38564270  1
  Mo  Mo184  1  0.70823817  0.51353319  0.61796719  1
  Mo  Mo185  1  0.09965369  0.49487026  0.61654259  1
  Mo  Mo186  1  0.80267765  0.41387971  0.75420193  1
  Mo  Mo187  1  0.89127132  0.30162572  0.37648051  1
  Mo  Mo188  1  0.78839287  0.20615195  0.75414465  1
  Mo  Mo189  1  0.29613836  0.49280218  0.12546281  1
  Mo  Mo190  1  0.19177490  0.39936995  0.23009049  1
  Mo  Mo191  1  0.79436581  0.00704598  -0.02320335  1
  Mo  Mo192  1  0.79339231  0.39119423  0.26777952  1
  Mo  Mo193  1  0.51220982  0.48977224  0.12082971  1
  Mo  Mo194  1  0.70472255  0.90591085  0.63290847  1
  Mo  Mo195  1  0.30242956  0.69269653  0.12735056  1
  Mo  Mo196  1  0.40934158  0.00586504  0.25691366  1
  Mo  Mo197  1  0.40569007  0.79712423  0.23481562  1
  Mo  Mo198  1  0.90488088  0.10925956  0.39090058  1
  Mo  Mo199  1  0.50020671  0.10324448  0.38937501  1
