# generated using pymatgen
data_HfZrTaTiMo
_symmetry_space_group_name_H-M   'P 1'
_cell_length_a   15.82063013
_cell_length_b   15.83901882
_cell_length_c   15.38703181
_cell_angle_alpha   89.95334320
_cell_angle_beta   89.96919584
_cell_angle_gamma   89.86605303
_symmetry_Int_Tables_number   1
_chemical_formula_structural   HfZrTaTiMo
_chemical_formula_sum   'Hf40 Zr40 Ta40 Ti40 Mo40'
_cell_volume   3855.72020180
_cell_formula_units_Z   40
loop_
 _symmetry_equiv_pos_site_id
 _symmetry_equiv_pos_as_xyz
  1  'x, y, z'
loop_
 _atom_site_type_symbol
 _atom_site_label
 _atom_site_symmetry_multiplicity
 _atom_site_fract_x
 _atom_site_fract_y
 _atom_site_fract_z
 _atom_site_occupancy
  Hf  Hf0  1  0.30490786  0.50015378  0.13457062  1
  Hf  Hf1  1  0.90916871  0.31262222  0.61733578  1
  Hf  Hf2  1  0.79164207  0.60319297  0.25846009  1
  Hf  Hf3  1  0.20761487  0.40739287  -0.01763698  1
  Hf  Hf4  1  0.40187461  0.60633537  0.74842335  1
  Hf  Hf5  1  0.10391596  0.10577002  0.36202378  1
  Hf  Hf6  1  0.70594471  0.49769962  0.87630758  1
  Hf  Hf7  1  0.29550900  0.69985655  0.63157194  1
  Hf  Hf8  1  0.49927377  0.50292859  0.13031102  1
  Hf  Hf9  1  0.10249965  0.49806107  0.11937701  1
  Hf  Hf10  1  0.92334621  0.69088202  0.90010234  1
  Hf  Hf11  1  0.30213767  0.91260139  0.36728545  1
  Hf  Hf12  1  0.89807512  0.89762848  0.11777473  1
  Hf  Hf13  1  0.10580827  0.90662255  0.36896824  1
  Hf  Hf14  1  0.50314440  0.10653835  0.64390666  1
  Hf  Hf15  1  0.30048788  0.09864301  0.37048692  1
  Hf  Hf16  1  0.61181072  -0.00159712  0.75224851  1
  Hf  Hf17  1  0.50184608  0.30486543  0.13404379  1
  Hf  Hf18  1  0.19687532  0.19907524  0.51876714  1
  Hf  Hf19  1  0.79150521  0.20111044  0.74293532  1
  Hf  Hf20  1  0.50450634  0.48554482  0.63824888  1
  Hf  Hf21  1  0.30357696  0.88510196  0.11195629  1
  Hf  Hf22  1  0.69627198  0.90072098  0.89480322  1
  Hf  Hf23  1  0.59755553  0.20554983  0.49099830  1
  Hf  Hf24  1  0.68525106  0.30757903  0.62300175  1
  Hf  Hf25  1  0.60380519  0.58115400  0.49324397  1
  Hf  Hf26  1  0.89362067  0.48893685  0.14104704  1
  Hf  Hf27  1  0.60720717  0.00420607  0.23159735  1
  Hf  Hf28  1  -0.00498671  0.20626883  -0.00023989  1
  Hf  Hf29  1  0.09360161  0.48471921  0.63042121  1
  Hf  Hf30  1  0.89891151  0.50057846  0.62091430  1
  Hf  Hf31  1  0.00253843  0.60606635  0.24818447  1
  Hf  Hf32  1  0.29782882  0.30024357  0.12328480  1
  Hf  Hf33  1  0.09887825  0.30325536  0.12346799  1
  Hf  Hf34  1  0.49562860  0.09313796  0.36222907  1
  Hf  Hf35  1  0.40034707  0.78942292  0.25542655  1
  Hf  Hf36  1  0.00219389  -0.00315966  -0.00548788  1
  Hf  Hf37  1  0.79996427  0.80150011  0.25037426  1
  Hf  Hf38  1  0.10753319  0.10649798  0.11575960  1
  Hf  Hf39  1  0.29851855  0.69579876  0.38583225  1
  Zr  Zr40  1  0.39317249  0.19591356  0.51016014  1
  Zr  Zr41  1  0.69211616  0.69555845  0.11641442  1
  Zr  Zr42  1  0.30953246  0.10846105  0.86991797  1
  Zr  Zr43  1  0.49524587  0.90016032  0.12511252  1
  Zr  Zr44  1  0.01228696  0.20843338  0.50325558  1
  Zr  Zr45  1  0.19428900  0.79208106  0.23970128  1
  Zr  Zr46  1  0.88889243  0.11332187  0.13034273  1
  Zr  Zr47  1  0.80740138  0.61410324  0.74139273  1
  Zr  Zr48  1  0.41349784  -0.00489442  -0.01264445  1
  Zr  Zr49  1  0.00109786  -0.00308438  0.24030733  1
  Zr  Zr50  1  0.20184189  -0.00941639  -0.01274238  1
  Zr  Zr51  1  0.39810688  0.81347230  0.51220540  1
  Zr  Zr52  1  0.77972234  0.40428999  0.48718048  1
  Zr  Zr53  1  0.08616708  0.52329593  0.86884958  1
  Zr  Zr54  1  0.60402230  0.80093728  0.24335315  1
  Zr  Zr55  1  0.79865497  -0.00205662  0.75590683  1
  Zr  Zr56  1  0.50175601  0.90444246  0.37803321  1
  Zr  Zr57  1  0.40203628  0.40148731  -0.01510097  1
  Zr  Zr58  1  0.49258355  0.30464137  0.64275220  1
  Zr  Zr59  1  0.90221067  0.09919901  0.62392204  1
  Zr  Zr60  1  0.79707626  0.80237628  0.74568311  1
  Zr  Zr61  1  0.49156118  0.29579942  0.35892946  1
  Zr  Zr62  1  0.19990397  0.80881990  0.51036583  1
  Zr  Zr63  1  0.50542956  0.49702636  0.86045732  1
  Zr  Zr64  1  0.70309366  0.70124086  0.88850655  1
  Zr  Zr65  1  0.50887495  0.28877888  0.86269600  1
  Zr  Zr66  1  0.80104741  0.80728677  0.49357463  1
  Zr  Zr67  1  0.00330726  -0.00804683  0.76559921  1
  Zr  Zr68  1  0.90474761  0.49714517  0.37792447  1
  Zr  Zr69  1  0.88909694  0.30625901  0.87266192  1
  Zr  Zr70  1  0.10062966  0.69359696  0.38181441  1
  Zr  Zr71  1  0.39991165  0.59049765  0.50661050  1
  Zr  Zr72  1  0.10077288  0.89919259  0.63564366  1
  Zr  Zr73  1  0.00427811  0.00627693  0.49752624  1
  Zr  Zr74  1  0.60898344  0.41004324  0.26404002  1
  Zr  Zr75  1  -0.00632802  0.79949717  0.49685828  1
  Zr  Zr76  1  0.89372505  0.10312894  0.88049311  1
  Zr  Zr77  1  0.38355157  0.60907105  -0.01609254  1
  Zr  Zr78  1  -0.00131154  0.77531571  0.74421266  1
  Zr  Zr79  1  0.09622805  0.30684456  0.87375870  1
  Ta  Ta80  1  0.89715892  0.30251940  0.14396920  1
  Ta  Ta81  1  0.69718334  0.90958734  0.38332115  1
  Ta  Ta82  1  0.29410201  0.29666575  0.36955601  1
  Ta  Ta83  1  0.20478772  0.20680338  0.74364206  1
  Ta  Ta84  1  0.89861127  0.50181257  0.86924772  1
  Ta  Ta85  1  0.20877315  0.00100801  0.22882637  1
  Ta  Ta86  1  0.71503260  0.30057765  0.13019419  1
  Ta  Ta87  1  0.90373174  0.29304972  0.36608796  1
  Ta  Ta88  1  0.01198541  0.39639987  0.26563203  1
  Ta  Ta89  1  0.00825742  0.20422407  0.74174159  1
  Ta  Ta90  1  0.59298159  0.59664935  -0.00257073  1
  Ta  Ta91  1  0.89724373  0.88683980  0.89363729  1
  Ta  Ta92  1  0.30665897  0.88216677  0.86886030  1
  Ta  Ta93  1  0.89611119  0.90165806  0.62412885  1
  Ta  Ta94  1  0.59140010  0.60676728  0.26170043  1
  Ta  Ta95  1  0.39852956  0.39848148  0.48967033  1
  Ta  Ta96  1  0.60852929  0.39767522  0.00320345  1
  Ta  Ta97  1  0.59742639  0.00316609  0.50613060  1
  Ta  Ta98  1  0.51080098  0.10370582  0.86566368  1
  Ta  Ta99  1  -0.00629692  0.79265739  0.24191570  1
  Ta  Ta100  1  0.20835683  0.00680148  0.52413711  1
  Ta  Ta101  1  0.70201976  0.09735287  0.37688954  1
  Ta  Ta102  1  0.60147365  0.80025689  0.74508578  1
  Ta  Ta103  1  0.50414995  0.70211647  0.39317062  1
  Ta  Ta104  1  0.10758766  0.10961534  0.87254057  1
  Ta  Ta105  1  0.69172687  0.70760848  0.38411042  1
  Ta  Ta106  1  0.80104712  0.60721064  0.49275077  1
  Ta  Ta107  1  0.29560699  0.48911336  0.63271877  1
  Ta  Ta108  1  0.60533784  0.61031040  0.74694432  1
  Ta  Ta109  1  0.50422042  0.90314606  0.63174483  1
  Ta  Ta110  1  0.48586465  0.69602517  0.11535875  1
  Ta  Ta111  1  0.29502957  0.49476898  0.37514478  1
  Ta  Ta112  1  0.80671780  0.58803727  0.01136594  1
  Ta  Ta113  1  0.20326867  -0.00661694  0.75982239  1
  Ta  Ta114  1  0.79663124  0.40278554  0.74332814  1
  Ta  Ta115  1  0.50988159  0.70231143  0.61819362  1
  Ta  Ta116  1  0.00035532  0.60019664  0.50550903  1
  Ta  Ta117  1  0.20182428  0.59760693  0.24791860  1
  Ta  Ta118  1  -0.01515913  0.40874951  -0.00023681  1
  Ta  Ta119  1  0.40695592  0.19815183  0.00489773  1
  Ti  Ti120  1  0.40592143  -0.00861668  0.75829701  1
  Ti  Ti121  1  0.70606011  0.29387936  0.36371684  1
  Ti  Ti122  1  0.89580735  0.10532724  0.36133887  1
  Ti  Ti123  1  0.60111764  0.19848777  0.01599790  1
  Ti  Ti124  1  0.69494996  0.50086226  0.63277978  1
  Ti  Ti125  1  0.27740613  0.52507842  0.85304843  1
  Ti  Ti126  1  0.30393059  0.09502403  0.64705288  1
  Ti  Ti127  1  0.78922173  0.00181881  0.24019085  1
  Ti  Ti128  1  0.21658114  0.77306334  -0.00817884  1
  Ti  Ti129  1  0.19520808  0.39785349  0.75619500  1
  Ti  Ti130  1  0.69670430  0.70415626  0.60985617  1
  Ti  Ti131  1  0.29665843  0.31004369  0.62670433  1
  Ti  Ti132  1  0.89734440  0.90825272  0.36440233  1
  Ti  Ti133  1  0.49994045  0.71096615  0.87563812  1
  Ti  Ti134  1  0.30370118  0.09752791  0.11209754  1
  Ti  Ti135  1  0.80134968  0.19958964  0.49346455  1
  Ti  Ti136  1  0.58611091  0.80473165  0.00176083  1
  Ti  Ti137  1  0.69668504  0.11311587  0.89016010  1
  Ti  Ti138  1  0.20137791  0.20109867  0.24427002  1
  Ti  Ti139  1  0.39652814  0.00136144  0.51952495  1
  Ti  Ti140  1  0.61110029  0.19297166  0.23957513  1
  Ti  Ti141  1  0.69943500  0.29937316  0.88124716  1
  Ti  Ti142  1  0.39480962  0.18970390  0.23389186  1
  Ti  Ti143  1  0.10073532  0.69545608  0.10631675  1
  Ti  Ti144  1  0.79099935  0.00746000  0.00947985  1
  Ti  Ti145  1  0.40801260  0.80201449  0.74770212  1
  Ti  Ti146  1  0.19572674  0.78934588  0.75482162  1
  Ti  Ti147  1  0.10328540  0.89039088  0.11422651  1
  Ti  Ti148  1  0.69905005  0.49498647  0.12497492  1
  Ti  Ti149  1  0.18995252  0.39181808  0.49360490  1
  Ti  Ti150  1  0.37561509  0.38963934  0.77212815  1
  Ti  Ti151  1  0.69991148  0.10232382  0.61200992  1
  Ti  Ti152  1  0.40185943  0.59778568  0.26352876  1
  Ti  Ti153  1  0.59938329  0.00998128  0.00989677  1
  Ti  Ti154  1  0.80331489  0.00542941  0.49486160  1
  Ti  Ti155  1  0.19918124  0.40129129  0.26111190  1
  Ti  Ti156  1  0.09796565  0.87291097  0.88452823  1
  Ti  Ti157  1  0.80258724  0.79283886  0.01404348  1
  Ti  Ti158  1  0.19616714  0.58804414  0.50935611  1
  Ti  Ti159  1  0.69837005  0.90307103  0.61120037  1
  Mo  Mo160  1  0.00189358  0.20394144  0.24890732  1
  Mo  Mo161  1  0.89655316  0.69880427  0.60715423  1
  Mo  Mo162  1  0.10838935  0.49832206  0.38370214  1
  Mo  Mo163  1  0.79577846  0.19512937  0.26260371  1
  Mo  Mo164  1  0.30521995  0.90570475  0.65321840  1
  Mo  Mo165  1  0.10897067  0.29727246  0.36194991  1
  Mo  Mo166  1  0.90259044  0.69603138  0.11768142  1
  Mo  Mo167  1  0.49160917  0.50167246  0.36834377  1
  Mo  Mo168  1  0.39188655  0.39959702  0.26353725  1
  Mo  Mo169  1  0.39474047  0.20059245  0.74493178  1
  Mo  Mo170  1  0.69902204  0.10784405  0.11615580  1
  Mo  Mo171  1  0.40292386  0.79456842  -0.01578033  1
  Mo  Mo172  1  0.30236656  0.69055341  0.13343588  1
  Mo  Mo173  1  0.49679608  0.10762133  0.12748907  1
  Mo  Mo174  1  0.89756971  0.70284982  0.37904550  1
  Mo  Mo175  1  0.10044710  0.68976325  0.61424334  1
  Mo  Mo176  1  0.20733857  0.20268690  -0.00386698  1
  Mo  Mo177  1  0.61079622  0.19592326  0.75265114  1
  Mo  Mo178  1  0.10538811  0.30660993  0.63870173  1
  Mo  Mo179  1  0.00958691  0.39945341  0.47862372  1
  Mo  Mo180  1  0.29632511  0.29273489  0.87984202  1
  Mo  Mo181  1  -0.00333430  0.59454145  0.02162714  1
  Mo  Mo182  1  0.50611286  0.89758870  0.86293513  1
  Mo  Mo183  1  0.11224751  0.69391775  0.88928058  1
  Mo  Mo184  1  -0.00912980  0.40206944  0.76067913  1
  Mo  Mo185  1  0.29599950  0.70239033  0.85141708  1
  Mo  Mo186  1  0.39382684  0.00444876  0.23246333  1
  Mo  Mo187  1  -0.00077203  0.60374331  0.73208336  1
  Mo  Mo188  1  0.79679050  0.39940595  0.00663839  1
  Mo  Mo189  1  0.00822133  0.79904479  0.01280355  1
  Mo  Mo190  1  0.78928845  0.20826823  0.00022795  1
  Mo  Mo191  1  0.19168736  0.60505586  0.72958514  1
  Mo  Mo192  1  0.10900146  0.09964037  0.65050437  1
  Mo  Mo193  1  0.60155911  0.80351312  0.51297712  1
  Mo  Mo194  1  0.80144668  0.39479144  0.26316426  1
  Mo  Mo195  1  0.20142017  0.60053515  0.00746969  1
  Mo  Mo196  1  0.69868429  0.50685349  0.37040123  1
  Mo  Mo197  1  0.58837942  0.39876402  0.48087785  1
  Mo  Mo198  1  0.61501178  0.40195141  0.76296493  1
  Mo  Mo199  1  0.70203973  0.90337470  0.10464190  1
