# generated using pymatgen
data_V85Zn86O256
_symmetry_space_group_name_H-M   'P 1'
_cell_length_a   16.96036091
_cell_length_b   16.95529349
_cell_length_c   16.95495200
_cell_angle_alpha   89.97208103
_cell_angle_beta   90.18552910
_cell_angle_gamma   89.92337644
_symmetry_Int_Tables_number   1
_chemical_formula_structural   V85Zn86O256
_chemical_formula_sum   'V85 Zn86 O256'
_cell_volume   4875.66937917
_cell_formula_units_Z   1
loop_
 _symmetry_equiv_pos_site_id
 _symmetry_equiv_pos_as_xyz
  1  'x, y, z'
loop_
 _atom_site_type_symbol
 _atom_site_label
 _atom_site_symmetry_multiplicity
 _atom_site_fract_x
 _atom_site_fract_y
 _atom_site_fract_z
 _atom_site_occupancy
  V  V0  1  0.50101210  0.00234315  0.49440788  1
  V  V1  1  0.86386518  0.62986590  0.75368884  1
  V  V2  1  0.24991990  0.50204397  0.75262620  1
  V  V3  1  0.36934648  0.00436465  0.36781691  1
  V  V4  1  0.10230904  0.12000468  -0.00453964  1
  V  V5  1  0.62251741  0.12408696  0.00767520  1
  V  V6  1  0.62752775  0.88155114  0.75096846  1
  V  V7  1  0.49885479  0.75339795  0.75239110  1
  V  V8  1  0.12615665  0.37312089  0.74986212  1
  V  V9  1  0.63017137  0.74051421  0.88118622  1
  V  V10  1  0.00453941  0.75139265  0.75743612  1
  V  V11  1  0.63346820  0.25262238  0.88067353  1
  V  V12  1  0.12294870  0.75325988  0.36539344  1
  V  V13  1  0.25032450  0.75269075  0.49770103  1
  V  V14  1  0.25157508  0.50064808  0.24783098  1
  V  V15  1  0.87468869  0.75369661  0.62367530  1
  V  V16  1  0.49509391  0.88283953  0.87413647  1
  V  V17  1  0.50128566  0.49936059  0.50127697  1
  V  V18  1  0.74270746  -0.00115073  0.24018732  1
  V  V19  1  0.37659222  0.49951173  0.37577003  1
  V  V20  1  0.24937926  0.37422171  0.62673397  1
  V  V21  1  0.12859319  0.24887628  0.87480804  1
  V  V22  1  0.74389513  0.11205682  0.86584902  1
  V  V23  1  0.74883497  0.12612088  0.36968209  1
  V  V24  1  0.38542695  0.62947053  0.24940493  1
  V  V25  1  0.22932176  0.13558014  0.35829931  1
  V  V26  1  0.37470092  0.87845974  0.49650774  1
  V  V27  1  0.50000509  0.37500431  0.87667559  1
  V  V28  1  0.87478470  0.50859874  0.87537854  1
  V  V29  1  0.50174004  0.86884770  0.36784428  1
  V  V30  1  0.62379797  0.13819631  0.49247236  1
  V  V31  1  0.10414966  -0.00529466  0.12033447  1
  V  V32  1  0.00214251  0.50240088  0.01220039  1
  V  V33  1  0.12618577  0.11000304  0.50767420  1
  V  V34  1  0.50012896  0.62552925  0.62631158  1
  V  V35  1  0.77405998  0.25114354  0.49781004  1
  V  V36  1  0.24647065  -0.00097923  0.74344170  1
  V  V37  1  0.49915677  0.24823525  0.75125361  1
  V  V38  1  0.25179793  0.36375454  0.12653059  1
  V  V39  1  0.37569267  0.11618697  0.75433865  1
  V  V40  1  0.00391920  0.37808681  0.87617953  1
  V  V41  1  0.37329838  0.62737557  0.75258995  1
  V  V42  1  0.24055263  0.24868642  0.49736567  1
  V  V43  1  0.24245520  -0.00952884  0.23552035  1
  V  V44  1  -0.00300801  0.87142130  0.36761041  1
  V  V45  1  0.86842106  0.87294920  -0.00389807  1
  V  V46  1  0.37320463  0.75519177  0.62450876  1
  V  V47  1  0.00061018  0.62867782  0.62722365  1
  V  V48  1  0.00879419  0.88165237  0.88056768  1
  V  V49  1  0.62598958  0.62857482  0.49323980  1
  V  V50  1  0.36883202  0.13379093  0.24275562  1
  V  V51  1  0.87305660  -0.00161190  0.36741312  1
  V  V52  1  -0.00138234  0.74387614  0.23894626  1
  V  V53  1  0.75152892  0.87839304  0.62473988  1
  V  V54  1  0.37486457  0.37307866  0.50081236  1
  V  V55  1  0.80215630  0.20702773  0.04394226  1
  V  V56  1  0.37365489  0.24757774  0.62552576  1
  V  V57  1  0.12315646  0.87593469  0.74062184  1
  V  V58  1  0.88451157  0.60968175  0.25580239  1
  V  V59  1  0.37595006  0.36936366  0.00593377  1
  V  V60  1  0.75235653  0.50227595  0.26376004  1
  V  V61  1  0.12283689  0.62676605  0.49906191  1
  V  V62  1  0.74863939  0.37688788  0.12069726  1
  V  V63  1  0.50222181  0.62918670  0.11646001  1
  V  V64  1  0.49981613  0.12386202  0.62320909  1
  V  V65  1  0.24720120  0.63124928  0.87703234  1
  V  V66  1  0.62762367  0.36635196  0.26155382  1
  V  V67  1  0.12291491  0.62801878  0.00040789  1
  V  V68  1  0.25319141  0.11565219  0.87843046  1
  V  V69  1  0.63149879  0.00304974  0.62229407  1
  V  V70  1  0.49466272  0.13398405  0.12480504  1
  V  V71  1  0.76970217  0.36888012  0.62476850  1
  V  V72  1  0.37634082  0.75842823  0.12866072  1
  V  V73  1  0.24737174  0.75455812  0.00388441  1
  V  V74  1  0.62759460  0.37372266  0.74748830  1
  V  V75  1  0.12529674  0.50222600  0.62590792  1
  V  V76  1  0.50048295  -0.00118173  0.00698331  1
  V  V77  1  0.62162617  0.86726590  0.23796110  1
  V  V78  1  -0.01070933  0.12174383  0.62420491  1
  V  V79  1  0.12718140  0.49939259  0.12711082  1
  V  V80  1  0.25152852  0.62694528  0.37284001  1
  V  V81  1  0.87070131  0.37902662  0.00126392  1
  V  V82  1  0.36858423  0.88146212  -0.00241211  1
  V  V83  1  0.00162495  0.37742837  0.38836410  1
  V  V84  1  0.62260447  0.50294855  0.12425466  1
  Zn  Zn85  1  0.62957518  0.74606281  0.36615605  1
  Zn  Zn86  1  0.87715452  -0.00218015  0.86859530  1
  Zn  Zn87  1  0.00092393  -0.00710118  0.49924675  1
  Zn  Zn88  1  0.49883995  0.50244592  -0.00095477  1
  Zn  Zn89  1  0.86244433  0.12387980  0.73932762  1
  Zn  Zn90  1  0.74476280  0.86558951  0.11745502  1
  Zn  Zn91  1  0.13869649  0.35509972  0.27508038  1
  Zn  Zn92  1  0.87209548  0.74220728  0.12148666  1
  Zn  Zn93  1  0.37527267  0.50032884  0.87833617  1
  Zn  Zn94  1  0.25268646  0.24237356  0.00520577  1
  Zn  Zn95  1  0.50663599  0.36612990  0.38022241  1
  Zn  Zn96  1  0.50146298  0.24923283  0.25489350  1
  Zn  Zn97  1  0.62741955  0.49766130  0.62675781  1
  Zn  Zn98  1  0.75266380  0.71541999  0.99613183  1
  Zn  Zn99  1  0.74862047  0.49993381  0.75015450  1
  Zn  Zn100  1  -0.01755220  0.50278317  0.50007006  1
  Zn  Zn101  1  0.75225062  0.74776588  0.49350481  1
  Zn  Zn102  1  0.02202094  0.25047027  0.27360470  1
  Zn  Zn103  1  0.24362978  0.88239945  0.61705164  1
  Zn  Zn104  1  -0.06602258  0.18000359  0.17871577  1
  Zn  Zn105  1  0.87369676  0.87384379  0.49627702  1
  Zn  Zn106  1  -0.00903063  0.25573255  0.73468637  1
  Zn  Zn107  1  0.14273989  0.19737511  0.17118602  1
  Zn  Zn108  1  0.18482410  0.18615220  0.68666256  1
  Zn  Zn109  1  0.18999790  0.68610565  0.18400650  1
  Zn  Zn110  1  0.18725879  0.69392728  0.68739143  1
  Zn  Zn111  1  0.68494019  0.18485159  0.18863002  1
  Zn  Zn112  1  0.68661560  0.19356696  0.68230612  1
  Zn  Zn113  1  0.69340169  0.68461973  0.18421017  1
  Zn  Zn114  1  0.68445649  0.69462684  0.68640864  1
  Zn  Zn115  1  0.31476339  0.31207619  0.31427305  1
  Zn  Zn116  1  0.31353355  0.30857132  0.81542945  1
  Zn  Zn117  1  0.31155342  0.81480376  0.30938314  1
  Zn  Zn118  1  0.30861967  0.81452956  0.81564306  1
  Zn  Zn119  1  0.81988026  0.30258254  0.31155766  1
  Zn  Zn120  1  0.81473385  0.31053255  0.81471418  1
  Zn  Zn121  1  0.81101533  0.80476433  0.31093586  1
  Zn  Zn122  1  0.81045857  0.81502392  0.81274803  1
  Zn  Zn123  1  0.18722189  0.44179728  0.44088423  1
  Zn  Zn124  1  0.19230089  0.43896579  0.93996817  1
  Zn  Zn125  1  0.18770788  0.93730203  0.42597605  1
  Zn  Zn126  1  0.18283105  0.94010722  0.93644213  1
  Zn  Zn127  1  0.82162060  0.43756339  0.43824923  1
  Zn  Zn128  1  0.71180500  0.50184570  0.96136934  1
  Zn  Zn129  1  0.68724320  0.93513859  0.43433065  1
  Zn  Zn130  1  0.67983950  0.93469331  0.94024297  1
  Zn  Zn131  1  0.31126097  0.06128814  0.06256945  1
  Zn  Zn132  1  0.31067173  0.06398040  0.55952950  1
  Zn  Zn133  1  0.31665793  0.56074044  0.06250173  1
  Zn  Zn134  1  0.31273433  0.56476903  0.56343298  1
  Zn  Zn135  1  0.81678649  0.04172668  0.05709353  1
  Zn  Zn136  1  0.81396535  0.06126484  0.55285301  1
  Zn  Zn137  1  0.81965600  0.56196171  0.07748731  1
  Zn  Zn138  1  0.80574252  0.56510389  0.57389082  1
  Zn  Zn139  1  0.43946420  0.43585702  0.18773162  1
  Zn  Zn140  1  0.43611942  0.43853417  0.68990875  1
  Zn  Zn141  1  0.43701315  0.94162033  0.18500327  1
  Zn  Zn142  1  0.43780188  0.94047626  0.68448309  1
  Zn  Zn143  1  0.92524260  0.39082999  0.21002009  1
  Zn  Zn144  1  0.94168522  0.44391812  0.68867796  1
  Zn  Zn145  1  0.93193397  0.92955970  0.18805188  1
  Zn  Zn146  1  0.93565023  0.94676264  0.68968710  1
  Zn  Zn147  1  0.05707200  0.06164150  0.30278193  1
  Zn  Zn148  1  0.06328214  0.05986864  0.80641039  1
  Zn  Zn149  1  0.06135095  0.55474320  0.31508433  1
  Zn  Zn150  1  0.06176312  0.56514644  0.81595013  1
  Zn  Zn151  1  0.56289045  0.06057171  0.30872223  1
  Zn  Zn152  1  0.56300561  0.06033774  0.81542997  1
  Zn  Zn153  1  0.56456886  0.55384881  0.31298075  1
  Zn  Zn154  1  0.56121481  0.55931886  0.81089793  1
  Zn  Zn155  1  0.43183116  0.18846623  0.43210973  1
  Zn  Zn156  1  0.43639202  0.18992954  0.93758000  1
  Zn  Zn157  1  0.43938514  0.68992191  0.43651808  1
  Zn  Zn158  1  0.43582167  0.69387773  0.93756282  1
  Zn  Zn159  1  0.94707579  0.17578863  0.41463211  1
  Zn  Zn160  1  0.92899091  0.19569321  0.90152440  1
  Zn  Zn161  1  0.93407812  0.68259326  0.43409990  1
  Zn  Zn162  1  0.94178442  0.69048667  0.93886625  1
  Zn  Zn163  1  0.05971404  0.31179544  0.06417733  1
  Zn  Zn164  1  0.05860448  0.30825008  0.55547659  1
  Zn  Zn165  1  0.06302926  0.81260762  0.06097849  1
  Zn  Zn166  1  0.05986507  0.81303056  0.55912145  1
  Zn  Zn167  1  0.56574522  0.31316952  0.06404995  1
  Zn  Zn168  1  0.56350402  0.31261881  0.56376137  1
  Zn  Zn169  1  0.55898136  0.80844856  0.06045612  1
  Zn  Zn170  1  0.56028597  0.81499098  0.56140977  1
  O  O171  1  0.12622685  0.11029749  0.10091973  1
  O  O172  1  0.12786795  0.12054453  0.60970431  1
  O  O173  1  0.13561934  0.61030015  0.11251839  1
  O  O174  1  0.12130948  0.62545246  0.61847056  1
  O  O175  1  0.61573940  0.12721376  0.11382350  1
  O  O176  1  0.61963764  0.11917153  0.61752032  1
  O  O177  1  0.61128823  0.61650054  0.13761180  1
  O  O178  1  0.60998846  0.62678670  0.62369032  1
  O  O179  1  0.37354191  0.38388390  0.38503742  1
  O  O180  1  0.38399673  0.37503666  0.87967780  1
  O  O181  1  0.37967733  0.88671492  0.37445439  1
  O  O182  1  0.38413567  0.86928777  0.88443996  1
  O  O183  1  0.89100327  0.37624677  0.37167102  1
  O  O184  1  0.88414472  0.38338284  0.88375514  1
  O  O185  1  0.88129602  0.87758756  0.37443499  1
  O  O186  1  0.88418984  0.87317217  0.87965249  1
  O  O187  1  0.25238929  0.01002887  0.36144125  1
  O  O188  1  0.24686156  0.01003652  0.86342791  1
  O  O189  1  0.25649469  0.50734471  0.36890729  1
  O  O190  1  0.25234632  0.51173996  0.86972473  1
  O  O191  1  0.75402733  0.00322960  0.36567341  1
  O  O192  1  0.73615359  0.01134282  0.87287467  1
  O  O193  1  0.74763388  0.49124839  0.36125156  1
  O  O194  1  0.77134999  0.49217483  0.86509164  1
  O  O195  1  0.24847997  0.49388534  0.13294186  1
  O  O196  1  0.24577753  0.49642230  0.63253263  1
  O  O197  1  0.24664017  0.99826255  0.13371459  1
  O  O198  1  0.25754178  0.99885894  0.63807853  1
  O  O199  1  0.74133725  0.48923094  0.13478236  1
  O  O200  1  0.74599951  0.48401561  0.63164741  1
  O  O201  1  0.75240626  0.99220109  0.13761554  1
  O  O202  1  0.73799418  0.99714171  0.61880195  1
  O  O203  1  0.02122506  0.37681988  0.26972147  1
  O  O204  1  0.00993758  0.37459624  0.75597547  1
  O  O205  1  -0.00467526  0.86051054  0.25940134  1
  O  O206  1  0.00657077  0.87100086  0.75527591  1
  O  O207  1  0.51603928  0.37540426  0.24930979  1
  O  O208  1  0.50411804  0.36893265  0.75580748  1
  O  O209  1  0.51329899  0.88559560  0.25391382  1
  O  O210  1  0.50305170  0.87365003  0.75660759  1
  O  O211  1  0.48949819  0.12090056  0.24040565  1
  O  O212  1  0.49300305  0.12701710  0.74717070  1
  O  O213  1  0.48781603  0.61890550  0.24770811  1
  O  O214  1  0.49293839  0.63029033  0.74342298  1
  O  O215  1  0.98261870  0.13950581  0.27673642  1
  O  O216  1  1.00739794  0.12461559  0.72979072  1
  O  O217  1  0.99186359  0.62590176  0.25440776  1
  O  O218  1  0.99728128  0.63514744  0.74564595  1
  O  O219  1  0.37041633  0.26344988  -0.00410421  1
  O  O220  1  0.36532460  0.25167475  0.50880281  1
  O  O221  1  0.36820445  0.76095433  0.00738810  1
  O  O222  1  0.37045074  0.75849297  0.50247041  1
  O  O223  1  0.87210559  0.26210694  -0.01316436  1
  O  O224  1  0.86988727  0.23701557  0.49631935  1
  O  O225  1  0.87035226  0.75695935  -0.00325575  1
  O  O226  1  0.87534425  0.74896464  0.51354912  1
  O  O227  1  0.13826191  0.23766008  0.50336219  1
  O  O228  1  0.12914008  0.23572639  0.99147383  1
  O  O229  1  0.13051012  0.74177983  0.49325040  1
  O  O230  1  0.13448966  0.73985490  1.00651791  1
  O  O231  1  0.62464216  0.23905967  0.50078600  1
  O  O232  1  0.61619657  0.23935107  0.99031535  1
  O  O233  1  0.61595447  0.73554233  0.50041232  1
  O  O234  1  0.62447137  0.75302767  0.98361243  1
  O  O235  1  0.50229955  0.23731653  0.12882170  1
  O  O236  1  0.49440502  0.24250330  0.63102917  1
  O  O237  1  0.48920535  0.74192412  0.12332013  1
  O  O238  1  0.49277366  0.74611014  0.63165367  1
  O  O239  1  1.03169472  0.23983500  0.14389572  1
  O  O240  1  1.00909207  0.22971888  0.62173470  1
  O  O241  1  1.00294412  0.75059947  0.13679519  1
  O  O242  1  0.99224191  0.74864719  0.63353299  1
  O  O243  1  0.00416203  0.26944964  0.39067386  1
  O  O244  1  0.01919824  0.26134784  0.87513711  1
  O  O245  1  0.00673387  0.75165973  0.36677930  1
  O  O246  1  -0.00257650  0.75971101  0.86127172  1
  O  O247  1  0.49329503  0.25413604  0.36928610  1
  O  O248  1  0.50571509  0.25776920  0.86931595  1
  O  O249  1  0.49927346  0.76614224  0.37428374  1
  O  O250  1  0.50587678  0.76166413  0.87026846  1
  O  O251  1  0.24031564  0.12832758  0.49067645  1
  O  O252  1  0.25016937  0.12382362  0.98840779  1
  O  O253  1  0.24672972  0.63366681  0.49310764  1
  O  O254  1  0.24754621  0.63090615  0.99391553  1
  O  O255  1  0.74178758  0.13450732  0.49352092  1
  O  O256  1  0.73935078  0.12501810  1.00012058  1
  O  O257  1  0.72687560  0.62712771  0.51244734  1
  O  O258  1  0.75297613  0.60193969  0.99787639  1
  O  O259  1  0.25790711  0.37264559  0.00907032  1
  O  O260  1  0.25496840  0.36698442  0.50662820  1
  O  O261  1  0.25610392  0.86663267  -0.01071084  1
  O  O262  1  0.25601230  0.87122359  0.49611312  1
  O  O263  1  0.75863075  0.39114428  0.00799991  1
  O  O264  1  0.76146277  0.35877006  0.50694524  1
  O  O265  1  0.76080555  0.87676773  -0.00340038  1
  O  O266  1  0.74791009  0.87370565  0.51385330  1
  O  O267  1  0.14107467  0.50639148  0.24292431  1
  O  O268  1  0.13064922  0.49525167  0.74603554  1
  O  O269  1  0.13264680  1.00867625  0.23133252  1
  O  O270  1  0.13512341  0.98981538  0.74996211  1
  O  O271  1  0.63498864  0.49170277  0.24453558  1
  O  O272  1  0.62705562  0.48858036  0.74904773  1
  O  O273  1  0.63710928  0.98961015  0.25209183  1
  O  O274  1  0.61683846  0.98911665  0.73950096  1
  O  O275  1  0.36313665  0.00539922  0.25197571  1
  O  O276  1  0.37124373  0.01116780  0.74864612  1
  O  O277  1  0.36707910  0.50625236  0.25398200  1
  O  O278  1  0.36712761  0.50939349  0.75194626  1
  O  O279  1  0.85794603  -0.01124948  0.25859202  1
  O  O280  1  0.87504354  0.01185832  0.75620585  1
  O  O281  1  0.86450469  0.50026671  0.24652064  1
  O  O282  1  0.87887434  0.51425168  0.75743479  1
  O  O283  1  0.11640704  0.37823379  0.38561415  1
  O  O284  1  0.12654651  0.36852293  0.87123094  1
  O  O285  1  0.11817677  0.85960253  0.37555915  1
  O  O286  1  0.11295098  0.87482688  0.86666391  1
  O  O287  1  0.62702182  0.37668499  0.35919865  1
  O  O288  1  0.61627644  0.36523720  0.86323000  1
  O  O289  1  0.61460897  0.87626329  0.36411161  1
  O  O290  1  0.61626778  0.87011425  0.86568607  1
  O  O291  1  0.38090147  0.12164676  0.13178625  1
  O  O292  1  0.38099235  0.12788357  0.63097221  1
  O  O293  1  0.38175356  0.63270151  0.13206874  1
  O  O294  1  0.38296763  0.63345530  0.62972842  1
  O  O295  1  0.86096218  0.13811776  0.10209964  1
  O  O296  1  0.88504074  0.12512420  0.62076326  1
  O  O297  1  0.87795272  0.62618372  0.14668828  1
  O  O298  1  0.88027957  0.63580212  0.63569799  1
  O  O299  1  0.23885472  0.26233419  0.12485944  1
  O  O300  1  0.25468945  0.25339158  0.61875511  1
  O  O301  1  0.26022831  0.74599877  0.11225701  1
  O  O302  1  0.25785034  0.75415520  0.61650913  1
  O  O303  1  0.74312422  0.25998389  0.11568326  1
  O  O304  1  0.74917980  0.25477681  0.60867531  1
  O  O305  1  0.75188848  0.74809588  0.11247927  1
  O  O306  1  0.75769854  0.75937661  0.62198954  1
  O  O307  1  0.26069477  0.23935518  0.38679847  1
  O  O308  1  0.24041629  0.23899281  0.87380798  1
  O  O309  1  0.24287720  0.74598899  0.37641086  1
  O  O310  1  0.25433478  0.73855522  0.88641044  1
  O  O311  1  0.75545373  0.24060460  0.38549730  1
  O  O312  1  0.73607631  0.24238390  0.87767348  1
  O  O313  1  0.74169929  0.75579409  0.38213010  1
  O  O314  1  0.73391453  0.75216956  0.87455181  1
  O  O315  1  0.00592256  0.13043582  -0.01720238  1
  O  O316  1  0.01432695  0.12002055  0.50245043  1
  O  O317  1  0.01266659  0.61679797  -0.00518457  1
  O  O318  1  0.00970086  0.62818908  0.50705343  1
  O  O319  1  0.50122145  0.11895807  0.00452468  1
  O  O320  1  0.50486238  0.12044008  0.50174525  1
  O  O321  1  0.49172934  0.62369498  0.01230386  1
  O  O322  1  0.50000984  0.62040618  0.50881214  1
  O  O323  1  0.49399782  0.38388868  0.50376548  1
  O  O324  1  0.49388476  0.37308445  0.99250867  1
  O  O325  1  0.49474902  0.88343051  0.48992927  1
  O  O326  1  0.49376023  0.88233666  0.99385449  1
  O  O327  1  1.00298759  0.38562236  0.49741934  1
  O  O328  1  0.99599781  0.38230336  0.99595600  1
  O  O329  1  0.99806371  0.87354998  0.48446590  1
  O  O330  1  0.99320264  0.86365424  0.98275371  1
  O  O331  1  0.49396505  0.49398046  0.38526146  1
  O  O332  1  0.49923831  0.48652355  0.87599779  1
  O  O333  1  0.48859500  0.99623693  0.37617829  1
  O  O334  1  0.50154979  0.98903743  0.88380779  1
  O  O335  1  1.00527149  0.48959398  0.38568019  1
  O  O336  1  0.99523757  0.49443291  0.88239040  1
  O  O337  1  0.99128788  0.98794678  0.36962579  1
  O  O338  1  1.00139573  0.98440758  0.87021661  1
  O  O339  1  0.00516365  0.00156810  0.13377676  1
  O  O340  1  -0.00089098  0.01416354  0.61596963  1
  O  O341  1  0.01172328  0.49431300  0.11414790  1
  O  O342  1  0.00950833  0.51153684  0.62434004  1
  O  O343  1  0.49584305  0.01037408  0.11210280  1
  O  O344  1  0.50912477  0.00556882  0.61607268  1
  O  O345  1  0.50573759  0.50933286  0.12693443  1
  O  O346  1  0.49747794  0.50990000  0.62056764  1
  O  O347  1  0.25115628  0.38322557  0.24497589  1
  O  O348  1  0.24597233  0.37994240  0.74654691  1
  O  O349  1  0.24706256  0.89253834  0.25453374  1
  O  O350  1  0.24156721  0.88182795  0.75007460  1
  O  O351  1  0.74284423  0.37943254  0.24219797  1
  O  O352  1  0.74248817  0.36731496  0.74362204  1
  O  O353  1  0.73592264  0.88090015  0.24541856  1
  O  O354  1  0.73951504  0.87201327  0.73661736  1
  O  O355  1  0.25491010  0.11533193  0.25118631  1
  O  O356  1  0.25598781  0.11793273  0.75405984  1
  O  O357  1  0.26114921  0.61882131  0.25424350  1
  O  O358  1  0.25263759  0.62486938  0.75819004  1
  O  O359  1  0.74278938  0.11095341  0.25517950  1
  O  O360  1  0.74223406  0.12973472  0.76327775  1
  O  O361  1  0.75588950  0.60648199  0.24856026  1
  O  O362  1  0.76110419  0.62636076  0.74359017  1
  O  O363  1  0.36397105  0.11473766  0.36533578  1
  O  O364  1  0.36605059  0.13066625  0.86519036  1
  O  O365  1  0.37216776  0.62145623  0.36825993  1
  O  O366  1  0.36877667  0.62494519  0.86976194  1
  O  O367  1  0.85739166  0.11213815  0.37903564  1
  O  O368  1  0.84775862  0.11537764  0.89067039  1
  O  O369  1  0.87336823  0.62650592  0.35568594  1
  O  O370  1  0.88489965  0.61953810  0.86533774  1
  O  O371  1  0.13714284  0.38944090  0.12150248  1
  O  O372  1  0.13148102  0.38015641  0.62942320  1
  O  O373  1  0.12187842  0.89611608  0.11175415  1
  O  O374  1  0.12564129  0.87076917  0.63521380  1
  O  O375  1  0.63216785  0.38120684  0.13135470  1
  O  O376  1  0.62806482  0.37162825  0.63819994  1
  O  O377  1  0.62160155  0.87309678  0.13427428  1
  O  O378  1  0.62836054  0.88301746  0.62989931  1
  O  O379  1  0.14395833  0.23866593  0.27404138  1
  O  O380  1  0.12616469  0.25758283  0.75674813  1
  O  O381  1  0.11722205  0.73685347  0.25728864  1
  O  O382  1  0.11549328  0.75933847  0.74801457  1
  O  O383  1  0.62605021  0.26277308  0.24753302  1
  O  O384  1  0.61689316  0.25340937  0.75678872  1
  O  O385  1  0.62659389  0.76382300  0.24783571  1
  O  O386  1  0.61682185  0.76312007  0.75422955  1
  O  O387  1  0.37268352  0.23625141  0.24969967  1
  O  O388  1  0.37893592  0.23935588  0.74437330  1
  O  O389  1  0.36832978  0.74272429  0.24009504  1
  O  O390  1  0.37870127  0.74710815  0.74538388  1
  O  O391  1  0.89365729  0.27692276  0.23254939  1
  O  O392  1  0.88917372  0.22981043  0.78425760  1
  O  O393  1  0.88433784  0.73972146  0.24643862  1
  O  O394  1  0.88054417  0.74738368  0.74219632  1
  O  O395  1  0.38322579  0.49690780  0.49809414  1
  O  O396  1  0.37800360  0.48663725  0.99753033  1
  O  O397  1  0.37738579  0.99787302  0.48811278  1
  O  O398  1  0.37914875  0.98702039  1.00247399  1
  O  O399  1  0.87047258  0.51221866  0.50335204  1
  O  O400  1  0.88728774  0.49656369  0.99402376  1
  O  O401  1  0.87562983  0.99409073  0.48280598  1
  O  O402  1  0.87974735  0.97861560  0.98906441  1
  O  O403  1  0.11912095  0.01088064  0.00245819  1
  O  O404  1  0.12774889  0.00734634  0.49756826  1
  O  O405  1  0.12165265  0.50605520  0.00552603  1
  O  O406  1  0.13373559  0.51839600  0.50963831  1
  O  O407  1  0.61230480  0.01013253  -0.00357994  1
  O  O408  1  0.61933553  0.00772826  0.50514635  1
  O  O409  1  0.61519504  0.49389486  0.01936211  1
  O  O410  1  0.60757856  0.51451929  0.50827542  1
  O  O411  1  0.36596716  0.37771810  0.11865819  1
  O  O412  1  0.36841568  0.36923706  0.62137372  1
  O  O413  1  0.38028888  0.86544398  0.11718180  1
  O  O414  1  0.37457785  0.87120572  0.61541907  1
  O  O415  1  0.86621540  0.38172838  0.10939602  1
  O  O416  1  0.86852157  0.37004750  0.64083530  1
  O  O417  1  0.87560093  0.86836723  0.10705869  1
  O  O418  1  0.86757822  0.87093390  0.62482223  1
  O  O419  1  0.13112100  0.11558377  0.38494891  1
  O  O420  1  0.13072755  0.12816524  0.88027108  1
  O  O421  1  0.13031934  0.63188884  0.38260478  1
  O  O422  1  0.13547472  0.62077238  0.88736152  1
  O  O423  1  0.63614004  0.11751829  0.38185568  1
  O  O424  1  0.63002559  0.13046902  0.88390856  1
  O  O425  1  0.61378270  0.62587431  0.38983768  1
  O  O426  1  0.61673511  0.64233349  0.86655510  1
