# generated using pymatgen
data_V85Zn86O256
_symmetry_space_group_name_H-M   'P 1'
_cell_length_a   16.95250713
_cell_length_b   16.95949480
_cell_length_c   16.96257599
_cell_angle_alpha   90.03888707
_cell_angle_beta   90.05189729
_cell_angle_gamma   89.91447812
_symmetry_Int_Tables_number   1
_chemical_formula_structural   V85Zn86O256
_chemical_formula_sum   'V85 Zn86 O256'
_cell_volume   4876.83308180
_cell_formula_units_Z   1
loop_
 _symmetry_equiv_pos_site_id
 _symmetry_equiv_pos_as_xyz
  1  'x, y, z'
loop_
 _atom_site_type_symbol
 _atom_site_label
 _atom_site_symmetry_multiplicity
 _atom_site_fract_x
 _atom_site_fract_y
 _atom_site_fract_z
 _atom_site_occupancy
  V  V0  1  0.49934405  0.12597319  0.12687681  1
  V  V1  1  0.75534083  0.24605758  0.49483556  1
  V  V2  1  0.63344616  0.62572545  0.49576237  1
  V  V3  1  0.49319192  0.00305024  -0.00255265  1
  V  V4  1  0.37517049  0.11488669  0.75835264  1
  V  V5  1  0.00018073  0.00247129  -0.00454954  1
  V  V6  1  0.87286618  0.12718325  0.26040139  1
  V  V7  1  0.36429745  0.62691330  0.75095507  1
  V  V8  1  0.87200398  0.87297783  0.00265023  1
  V  V9  1  0.12641671  0.62665163  0.50114493  1
  V  V10  1  0.74907496  0.37369936  0.62564943  1
  V  V11  1  0.50148327  0.12441846  0.62867370  1
  V  V12  1  0.86659081  0.12073824  0.74777990  1
  V  V13  1  0.74686097  0.63185144  0.87342994  1
  V  V14  1  0.07149053  0.55046814  0.16883320  1
  V  V15  1  0.38619110  0.49820729  0.87499844  1
  V  V16  1  0.24879083  0.87714744  0.12254511  1
  V  V17  1  0.00901614  0.87564354  0.87540796  1
  V  V18  1  0.39033086  0.38023116  -0.00665674  1
  V  V19  1  0.24811369  0.37023541  0.61466413  1
  V  V20  1  0.62255074  0.88374097  0.25136332  1
  V  V21  1  0.12839452  0.37310295  0.75436835  1
  V  V22  1  0.50437399  0.25106653  0.25286063  1
  V  V23  1  0.37780986  0.62700760  0.24784843  1
  V  V24  1  0.37477532  0.75337503  0.62527134  1
  V  V25  1  0.00082411  0.12879400  0.12114662  1
  V  V26  1  0.62213186  0.63206049  -0.00593252  1
  V  V27  1  0.74949139  0.37113094  0.11932707  1
  V  V28  1  0.24845560  0.00497267  0.25156422  1
  V  V29  1  0.88033944  0.24653033  0.62281409  1
  V  V30  1  0.24924030  0.25336567  -0.01143243  1
  V  V31  1  0.49914486  0.87138565  0.37654653  1
  V  V32  1  0.12578676  0.37194454  0.24864508  1
  V  V33  1  0.62934274  0.25920376  0.87791585  1
  V  V34  1  0.11666358  0.86886399  0.25336660  1
  V  V35  1  0.63257750  0.12636609  -0.00229746  1
  V  V36  1  0.63772697  0.74864575  0.37388818  1
  V  V37  1  0.50205808  -0.00055030  0.50415964  1
  V  V38  1  -0.00164461  0.50139043  0.50340980  1
  V  V39  1  0.12546613  0.00269732  0.12046474  1
  V  V40  1  0.49543189  0.88016570  0.87385063  1
  V  V41  1  0.62785973  0.37492398  0.25035856  1
  V  V42  1  0.00134777  -0.01211933  0.47894850  1
  V  V43  1  0.49959532  0.62551867  0.62606480  1
  V  V44  1  -0.00153957  0.37352754  0.87306321  1
  V  V45  1  0.64393511  -0.00333236  0.63091032  1
  V  V46  1  0.86502501  0.76023555  0.63022668  1
  V  V47  1  0.49842148  0.25691538  0.75370541  1
  V  V48  1  0.01198817  0.50630336  -0.00836404  1
  V  V49  1  0.87979096  0.72832555  0.12887827  1
  V  V50  1  0.00506330  0.24701500  0.75201007  1
  V  V51  1  0.50272019  0.75152451  0.75930297  1
  V  V52  1  0.36165292  0.14119072  0.26221597  1
  V  V53  1  0.87260253  0.38035295  -0.00718685  1
  V  V54  1  0.00111911  0.25344686  0.24681431  1
  V  V55  1  0.01135744  0.10584980  0.62301724  1
  V  V56  1  0.62274447  0.50158653  0.11739217  1
  V  V57  1  0.81199056  -0.06061563  0.30798846  1
  V  V58  1  0.75061954  0.51259109  0.25190090  1
  V  V59  1  0.86354882  -0.00156840  0.87241601  1
  V  V60  1  0.12483575  0.13218434  -0.00766431  1
  V  V61  1  0.87630904  0.61989006  0.75376743  1
  V  V62  1  0.87118689  0.24851913  0.11672214  1
  V  V63  1  0.63628039  0.87565630  0.75329355  1
  V  V64  1  0.00322921  0.75275321  0.74916421  1
  V  V65  1  0.37190900  0.00578978  0.37695476  1
  V  V66  1  0.49966439  0.49939251  0.49917760  1
  V  V67  1  0.75227068  0.49664415  0.75729996  1
  V  V68  1  0.86662779  0.51133817  0.37444442  1
  V  V69  1  0.37840665  0.75504985  0.12299192  1
  V  V70  1  0.37549403  0.25316846  0.11849357  1
  V  V71  1  0.25253106  0.50215913  0.24150139  1
  V  V72  1  0.00326377  0.37922728  0.37272824  1
  V  V73  1  0.12096806  0.73755450  0.88199360  1
  V  V74  1  0.24889462  0.75293062  0.49462002  1
  V  V75  1  0.87466375  0.37533028  0.49751189  1
  V  V76  1  0.23701213  -0.01194970  0.75629380  1
  V  V77  1  0.37609686  0.50209486  0.37443979  1
  V  V78  1  0.24651596  0.37686230  0.11692885  1
  V  V79  1  0.62468911  0.12419857  0.50030694  1
  V  V80  1  0.24491576  0.74347986  0.00117694  1
  V  V81  1  0.37276680  0.87692397  0.50432116  1
  V  V82  1  0.62528610  0.49847301  0.62524007  1
  V  V83  1  0.50139904  0.62363832  0.11881631  1
  V  V84  1  0.63113869  0.00157605  0.12685957  1
  Zn  Zn85  1  0.75217920  0.87279636  0.12615690  1
  Zn  Zn86  1  0.37094909  0.37096040  0.49751882  1
  Zn  Zn87  1  0.50378507  0.75086831  0.24870689  1
  Zn  Zn88  1  0.36991237  0.24592680  0.62008159  1
  Zn  Zn89  1  0.12700232  0.50411706  0.62799647  1
  Zn  Zn90  1  0.86949588  0.87891168  0.49057899  1
  Zn  Zn91  1  0.24618326  0.61912425  0.88127639  1
  Zn  Zn92  1  0.24733596  0.62650719  0.37151861  1
  Zn  Zn93  1  0.14279724  0.13410910  0.48877556  1
  Zn  Zn94  1  0.74690208  0.75262736  -0.00156151  1
  Zn  Zn95  1  0.74837119  0.12636882  0.87294884  1
  Zn  Zn96  1  0.25107340  0.12217638  0.87481433  1
  Zn  Zn97  1  0.50234439  0.37445157  0.37762065  1
  Zn  Zn98  1  0.75095721  0.11535633  0.37159175  1
  Zn  Zn99  1  0.62782023  0.24749283  0.37438824  1
  Zn  Zn100  1  0.74773195  0.75548061  0.50571943  1
  Zn  Zn101  1  0.11262981  0.75489920  0.37583552  1
  Zn  Zn102  1  0.24877674  0.49808716  0.74996788  1
  Zn  Zn103  1  0.37143749  0.88247740  -0.00509096  1
  Zn  Zn104  1  0.20419244  0.90586585  0.60911227  1
  Zn  Zn105  1  -0.00171854  0.62564078  0.62711140  1
  Zn  Zn106  1  0.61894144  0.37805656  0.75270109  1
  Zn  Zn107  1  0.18339560  0.18712547  0.31402164  1
  Zn  Zn108  1  0.18933915  0.18645953  0.68775746  1
  Zn  Zn109  1  0.19034076  0.69054308  0.18659174  1
  Zn  Zn110  1  0.16953025  0.72647348  0.66864602  1
  Zn  Zn111  1  0.69196553  0.18560951  0.18639648  1
  Zn  Zn112  1  0.68649225  0.19035177  0.68698017  1
  Zn  Zn113  1  0.69237880  0.69595492  0.18478972  1
  Zn  Zn114  1  0.68421216  0.68650396  0.69049924  1
  Zn  Zn115  1  0.31958783  0.32223739  0.30588784  1
  Zn  Zn116  1  0.31684557  0.31288957  0.80791575  1
  Zn  Zn117  1  0.31114996  0.81639989  0.31049256  1
  Zn  Zn118  1  0.31119792  0.81241052  0.81629932  1
  Zn  Zn119  1  0.81607803  0.31443769  0.31084247  1
  Zn  Zn120  1  0.81198123  0.30950041  0.81175664  1
  Zn  Zn121  1  0.94154177  0.79314360  0.29650645  1
  Zn  Zn122  1  0.81661680  0.80982474  0.81697487  1
  Zn  Zn123  1  0.18530106  0.44392122  0.43413603  1
  Zn  Zn124  1  0.19049123  0.43819050  0.92981329  1
  Zn  Zn125  1  0.18307510  0.94498772  0.43335482  1
  Zn  Zn126  1  0.18928651  0.93848572  0.93321407  1
  Zn  Zn127  1  0.68684850  0.43550655  0.43586990  1
  Zn  Zn128  1  0.68617956  0.44110372  0.93761459  1
  Zn  Zn129  1  0.68649501  0.93155458  0.44672758  1
  Zn  Zn130  1  0.68201589  0.93627772  0.93623577  1
  Zn  Zn131  1  0.31089640  0.06945473  0.06567346  1
  Zn  Zn132  1  0.31040515  0.06211003  0.57222828  1
  Zn  Zn133  1  0.31671529  0.56236496  0.05942600  1
  Zn  Zn134  1  0.30921088  0.56139986  0.56505362  1
  Zn  Zn135  1  0.81315059  0.06095694  0.06235073  1
  Zn  Zn136  1  0.82099530  0.06063090  0.55604688  1
  Zn  Zn137  1  0.80999252  0.55606648  0.05615928  1
  Zn  Zn138  1  0.81282795  0.56455384  0.56933060  1
  Zn  Zn139  1  0.43992224  0.43781253  0.18291289  1
  Zn  Zn140  1  0.43258538  0.43844739  0.68599044  1
  Zn  Zn141  1  0.43720497  0.94278285  0.18845657  1
  Zn  Zn142  1  0.43908642  0.93935216  0.68845084  1
  Zn  Zn143  1  0.93010648  0.44123147  0.18459988  1
  Zn  Zn144  1  0.93638565  0.43586708  0.68735615  1
  Zn  Zn145  1  0.94180695  0.93959476  0.18027879  1
  Zn  Zn146  1  0.93690918  0.93583186  0.69345341  1
  Zn  Zn147  1  0.05773886  0.05840365  0.30666567  1
  Zn  Zn148  1  0.06051153  0.06325919  0.81221890  1
  Zn  Zn149  1  0.02538866  0.60695202  0.34035514  1
  Zn  Zn150  1  0.06133263  0.55960981  0.81316993  1
  Zn  Zn151  1  0.55700330  0.06517332  0.31608892  1
  Zn  Zn152  1  0.56443701  0.06068570  0.81360548  1
  Zn  Zn153  1  0.56399688  0.56431905  0.30948344  1
  Zn  Zn154  1  0.56254096  0.56442475  0.81028680  1
  Zn  Zn155  1  0.32772141  0.19041411  0.44684093  1
  Zn  Zn156  1  0.44391770  0.18925407  0.93490917  1
  Zn  Zn157  1  0.44105551  0.68646923  0.43716525  1
  Zn  Zn158  1  0.43469967  0.68830454  0.93814587  1
  Zn  Zn159  1  0.98495183  0.19740952  0.44616428  1
  Zn  Zn160  1  0.93419735  0.19022067  0.93376052  1
  Zn  Zn161  1  0.93063459  0.68987327  0.44823647  1
  Zn  Zn162  1  0.93225940  0.68618623  0.93820025  1
  Zn  Zn163  1  0.06381098  0.31457801  0.05848782  1
  Zn  Zn164  1  0.06943118  0.31081298  0.56427749  1
  Zn  Zn165  1  0.05814108  0.80904039  0.06431027  1
  Zn  Zn166  1  0.05248306  0.81429208  0.55980800  1
  Zn  Zn167  1  0.56549519  0.31095346  0.06058310  1
  Zn  Zn168  1  0.56038879  0.30937374  0.56219893  1
  Zn  Zn169  1  0.56255373  0.81524771  0.06104890  1
  Zn  Zn170  1  0.56544573  0.81337336  0.56776984  1
  O  O171  1  0.11424862  0.11716568  0.10952547  1
  O  O172  1  0.11062673  0.12952501  0.62285095  1
  O  O173  1  0.12660010  0.61944103  0.12288315  1
  O  O174  1  0.12253201  0.62945908  0.61323743  1
  O  O175  1  0.62025991  0.12057250  0.11952024  1
  O  O176  1  0.62231193  0.11684138  0.62253807  1
  O  O177  1  0.61937566  0.62026752  0.12016699  1
  O  O178  1  0.61763466  0.61950224  0.61816614  1
  O  O179  1  0.38044974  0.39008789  0.37480013  1
  O  O180  1  0.37362104  0.38885331  0.87810510  1
  O  O181  1  0.38066785  0.88139403  0.38353301  1
  O  O182  1  0.38957456  0.87041390  0.87833003  1
  O  O183  1  0.87902442  0.38700405  0.38001112  1
  O  O184  1  0.88236503  0.36769778  0.88243130  1
  O  O185  1  0.87069269  0.87264119  0.35678796  1
  O  O186  1  0.88121189  0.88112118  0.88434598  1
  O  O187  1  0.26045004  -0.00666388  0.36381983  1
  O  O188  1  0.25228720  0.00384433  0.86375379  1
  O  O189  1  0.25838977  0.50112490  0.36065737  1
  O  O190  1  0.26056523  0.50413708  0.86813851  1
  O  O191  1  0.75718463  -0.00449715  0.37452299  1
  O  O192  1  0.76075720  0.00235714  0.87886879  1
  O  O193  1  0.75146647  0.49593171  0.36060610  1
  O  O194  1  0.74454157  0.50683209  0.86159268  1
  O  O195  1  0.26173254  0.49216978  0.13326685  1
  O  O196  1  0.24670160  0.48886499  0.62975286  1
  O  O197  1  0.24622352  0.99290747  0.12765142  1
  O  O198  1  0.25404519  0.99732470  0.64590639  1
  O  O199  1  0.74456220  0.49125705  0.13429408  1
  O  O200  1  0.74366225  0.49511160  0.63410735  1
  O  O201  1  0.73408799  0.99911031  0.12011549  1
  O  O202  1  0.74201006  1.00637330  0.62219191  1
  O  O203  1  0.00754647  0.37823039  0.25130844  1
  O  O204  1  0.00383857  0.36749460  0.75441710  1
  O  O205  1  0.01227359  0.87379182  0.24429805  1
  O  O206  1  -0.00808915  0.86374887  0.76475448  1
  O  O207  1  0.51499946  0.37094001  0.24360049  1
  O  O208  1  0.49892678  0.36059089  0.74100995  1
  O  O209  1  0.50554666  0.87546394  0.25860555  1
  O  O210  1  0.50260735  0.86929572  0.75651838  1
  O  O211  1  0.49119191  0.13485592  0.24595276  1
  O  O212  1  0.49302610  0.12803107  0.74665130  1
  O  O213  1  0.49605302  0.62947616  0.23779460  1
  O  O214  1  0.49377828  0.63520365  0.74480192  1
  O  O215  1  0.99298125  0.13113950  0.23787169  1
  O  O216  1  0.99471790  0.13086961  0.74109824  1
  O  O217  1  1.00742561  0.59637499  0.22953372  1
  O  O218  1  0.99075532  0.62922747  0.75133176  1
  O  O219  1  0.37463865  0.25770932  0.00192826  1
  O  O220  1  0.38902976  0.25954573  0.50780905  1
  O  O221  1  0.36903947  0.75542298  0.01073959  1
  O  O222  1  0.37286233  0.75788071  0.50403929  1
  O  O223  1  0.87914761  0.25959053  0.01064747  1
  O  O224  1  0.87465475  0.25263537  0.50655927  1
  O  O225  1  0.87133979  0.75894399  0.00401974  1
  O  O226  1  0.87229610  0.75209294  0.51981619  1
  O  O227  1  0.08756229  0.23643748  0.48715167  1
  O  O228  1  0.13692204  0.24390017  1.00399585  1
  O  O229  1  0.13312941  0.74546946  0.49378236  1
  O  O230  1  0.13307381  0.75477857  0.99501178  1
  O  O231  1  0.63586090  0.24054055  0.50060834  1
  O  O232  1  0.61947447  0.24264526  0.98585644  1
  O  O233  1  0.62095784  0.74212999  0.49412174  1
  O  O234  1  0.62668548  0.73631640  1.00575836  1
  O  O235  1  0.49658415  0.24454793  0.12836578  1
  O  O236  1  0.50837718  0.23500410  0.63571421  1
  O  O237  1  0.49260770  0.74673798  0.12628558  1
  O  O238  1  0.48981804  0.74593526  0.63076329  1
  O  O239  1  0.99268975  0.24925881  0.12847208  1
  O  O240  1  0.98906051  0.24796036  0.63383308  1
  O  O241  1  0.98001952  0.75158494  0.12039653  1
  O  O242  1  0.98582518  0.74680872  0.63627961  1
  O  O243  1  -0.01536911  0.27350284  0.35913655  1
  O  O244  1  -0.00473165  0.25838948  0.86202075  1
  O  O245  1  0.00012009  0.72423837  0.36409418  1
  O  O246  1  0.00429238  0.75529293  0.87452227  1
  O  O247  1  0.50281836  0.25533084  0.35550940  1
  O  O248  1  0.51415094  0.24594900  0.86392633  1
  O  O249  1  0.50177993  0.76234117  0.37290079  1
  O  O250  1  0.49703294  0.75470776  0.86373114  1
  O  O251  1  0.25475078  0.12219448  0.49828329  1
  O  O252  1  0.24348511  0.13498142  0.99843804  1
  O  O253  1  0.24407978  0.63255043  0.49725962  1
  O  O254  1  0.25581424  0.63984320  1.00114529  1
  O  O255  1  0.74531854  0.12969067  0.49605077  1
  O  O256  1  0.73580925  0.12243476  1.00022549  1
  O  O257  1  0.73575015  0.62689032  0.50561477  1
  O  O258  1  0.74148270  0.62129620  0.98885273  1
  O  O259  1  0.25733413  0.37159295  0.00258879  1
  O  O260  1  0.24572049  0.38000054  0.51069347  1
  O  O261  1  0.25118164  0.87050763  0.00996019  1
  O  O262  1  0.25526405  0.87201034  0.50170222  1
  O  O263  1  0.75799999  0.38298834  0.00799755  1
  O  O264  1  0.75486295  0.36690167  0.50518591  1
  O  O265  1  0.75662933  0.87425365  -0.00201374  1
  O  O266  1  0.75697109  0.86860836  0.50172300  1
  O  O267  1  0.13480112  0.49152702  0.23393212  1
  O  O268  1  0.12422136  0.48943853  0.74678909  1
  O  O269  1  0.12973973  0.98913780  0.24095405  1
  O  O270  1  0.13757201  1.00097922  0.75480244  1
  O  O271  1  0.63239884  0.49362700  0.24190233  1
  O  O272  1  0.63059512  0.49760304  0.74280522  1
  O  O273  1  0.61594321  0.99170575  0.24407733  1
  O  O274  1  0.62362266  0.98732065  0.74407525  1
  O  O275  1  0.36674226  0.00813267  0.25774814  1
  O  O276  1  0.37469579  0.01271797  0.75089850  1
  O  O277  1  0.37150719  0.50464894  0.25405375  1
  O  O278  1  0.37469808  0.50986851  0.75741217  1
  O  O279  1  0.87154929  0.00387300  0.25001950  1
  O  O280  1  0.87958874  0.00899475  0.76050192  1
  O  O281  1  0.85808055  0.49549472  0.25687472  1
  O  O282  1  0.86483488  0.50708187  0.74367541  1
  O  O283  1  0.11423748  0.38797530  0.36177634  1
  O  O284  1  0.11734869  0.37393945  0.86184061  1
  O  O285  1  0.12895097  0.87425747  0.35657029  1
  O  O286  1  0.11242525  0.86596804  0.88172135  1
  O  O287  1  0.62356142  0.37034080  0.36409767  1
  O  O288  1  0.62656668  0.36324373  0.87503725  1
  O  O289  1  0.61643172  0.87096903  0.36991688  1
  O  O290  1  0.61273916  0.87865207  0.86184251  1
  O  O291  1  0.37741595  0.13844016  0.13406986  1
  O  O292  1  0.38680073  0.12519132  0.63730983  1
  O  O293  1  0.38341115  0.63316974  0.12691799  1
  O  O294  1  0.38108093  0.63101911  0.63158330  1
  O  O295  1  0.87951646  0.13290884  0.12622348  1
  O  O296  1  0.88566761  0.12950579  0.63096937  1
  O  O297  1  0.87246623  0.62898399  0.11645811  1
  O  O298  1  0.87512399  0.63328015  0.63896928  1
  O  O299  1  0.26706085  0.26158352  0.11040960  1
  O  O300  1  0.24904384  0.26520155  0.62697662  1
  O  O301  1  0.25720736  0.75904586  0.11974739  1
  O  O302  1  0.26813420  0.74549251  0.60975222  1
  O  O303  1  0.75616774  0.26214385  0.12505924  1
  O  O304  1  0.76106334  0.25067837  0.61478214  1
  O  O305  1  0.76150348  0.75425690  0.11679981  1
  O  O306  1  0.76199474  0.74506780  0.63022906  1
  O  O307  1  0.28987802  0.21858055  0.33861299  1
  O  O308  1  0.25770446  0.24935156  0.88590618  1
  O  O309  1  0.25444905  0.74984126  0.38655707  1
  O  O310  1  0.23980610  0.74915443  0.88424486  1
  O  O311  1  0.75314347  0.25069923  0.38749952  1
  O  O312  1  0.73402269  0.24631166  0.87039975  1
  O  O313  1  0.73548996  0.74847529  0.38005521  1
  O  O314  1  0.74974322  0.73591388  0.87616966  1
  O  O315  1  0.00435387  0.12435174  0.00112702  1
  O  O316  1  -0.00666418  0.10448806  0.51641269  1
  O  O317  1  -0.00472832  0.60442591  -0.01078218  1
  O  O318  1  0.00612846  0.61759478  0.50372399  1
  O  O319  1  0.50821849  0.12011839  0.00600961  1
  O  O320  1  0.51641565  0.11961899  0.51153476  1
  O  O321  1  0.50519299  0.62963011  0.01044270  1
  O  O322  1  0.50523352  0.61481730  0.50569668  1
  O  O323  1  0.50422869  0.39015336  0.49963330  1
  O  O324  1  0.48919012  0.37473553  1.00348392  1
  O  O325  1  0.49408277  0.87823045  0.49468479  1
  O  O326  1  0.50111766  0.88503343  0.99231066  1
  O  O327  1  0.99552809  0.38451041  0.49100385  1
  O  O328  1  0.99465761  0.37716896  0.98932439  1
  O  O329  1  0.99195549  0.88117476  0.49275949  1
  O  O330  1  0.99249577  0.88203021  0.99354718  1
  O  O331  1  0.49442762  0.50057343  0.38122310  1
  O  O332  1  0.48567797  0.50272656  0.86924204  1
  O  O333  1  0.49536017  0.98791500  0.38279873  1
  O  O334  1  0.50261275  0.99374605  0.88560773  1
  O  O335  1  0.98909966  0.49790507  0.38552049  1
  O  O336  1  1.00012497  0.48484179  0.88113560  1
  O  O337  1  0.99581938  0.99603053  0.38059074  1
  O  O338  1  0.99336524  0.99261068  0.87850947  1
  O  O339  1  0.00466051  0.00850064  0.11405930  1
  O  O340  1  0.00660585  0.00655484  0.63588233  1
  O  O341  1  0.00745705  0.49010622  0.11012900  1
  O  O342  1  -0.00051145  0.50001013  0.61294303  1
  O  O343  1  0.50890535  0.00735624  0.12091844  1
  O  O344  1  0.50664701  0.00979609  0.62186021  1
  O  O345  1  0.51059005  0.51104582  0.12893573  1
  O  O346  1  0.50399174  0.50478224  0.61857544  1
  O  O347  1  0.24461855  0.38263531  0.24095848  1
  O  O348  1  0.24104164  0.37357418  0.74292591  1
  O  O349  1  0.24446819  0.88351004  0.23844190  1
  O  O350  1  0.25225740  0.88702879  0.75448194  1
  O  O351  1  0.74040105  0.37812307  0.24157254  1
  O  O352  1  0.74963575  0.38123478  0.74367732  1
  O  O353  1  0.74298757  0.88765740  0.24974988  1
  O  O354  1  0.73455982  0.86844591  0.76006946  1
  O  O355  1  0.24747314  0.10836092  0.23905244  1
  O  O356  1  0.26230425  0.12109935  0.75151838  1
  O  O357  1  0.25814068  0.61793783  0.24887267  1
  O  O358  1  0.26232221  0.63087675  0.74836084  1
  O  O359  1  0.76257816  0.12829330  0.25405581  1
  O  O360  1  0.76366655  0.12920026  0.74812521  1
  O  O361  1  0.73991494  0.61014519  0.24675012  1
  O  O362  1  0.75253075  0.61722095  0.75590362  1
  O  O363  1  0.39020263  0.10746953  0.37465172  1
  O  O364  1  0.37668670  0.12935448  0.86110825  1
  O  O365  1  0.37596908  0.61612792  0.36793582  1
  O  O366  1  0.37372792  0.61751084  0.86819947  1
  O  O367  1  0.88103980  0.13363672  0.35976948  1
  O  O368  1  0.87261271  0.11769195  0.86676795  1
  O  O369  1  0.87491439  0.61092390  0.38169613  1
  O  O370  1  0.86474029  0.62669086  0.86205935  1
  O  O371  1  0.14103152  0.37001487  0.12759037  1
  O  O372  1  0.13264348  0.37669700  0.63260083  1
  O  O373  1  0.13152060  0.87977108  0.13057606  1
  O  O374  1  0.12945309  0.83309466  0.63689695  1
  O  O375  1  0.63176361  0.38216046  0.12648776  1
  O  O376  1  0.63253921  0.37981911  0.62574484  1
  O  O377  1  0.62531810  0.88251922  0.13454087  1
  O  O378  1  0.62021469  0.88469944  0.64016311  1
  O  O379  1  0.12021235  0.26569589  0.25077804  1
  O  O380  1  0.11316183  0.25614979  0.74448966  1
  O  O381  1  0.13281015  0.76556749  0.25078054  1
  O  O382  1  0.10791095  0.74075903  0.76523768  1
  O  O383  1  0.62160293  0.25719303  0.24696608  1
  O  O384  1  0.61829007  0.25141497  0.76015579  1
  O  O385  1  0.62559229  0.76459404  0.25540692  1
  O  O386  1  0.61317853  0.76284563  0.74198242  1
  O  O387  1  0.38920784  0.25890893  0.23214535  1
  O  O388  1  0.38409157  0.24030927  0.74497937  1
  O  O389  1  0.37436123  0.74671270  0.23816271  1
  O  O390  1  0.38032550  0.74654845  0.74274814  1
  O  O391  1  0.87929161  0.24573333  0.23641035  1
  O  O392  1  0.88128513  0.24221776  0.74173174  1
  O  O393  1  0.86615106  0.74592879  0.22796393  1
  O  O394  1  0.88111431  0.74258937  0.74664409  1
  O  O395  1  0.38190872  0.49990864  0.49153872  1
  O  O396  1  0.37379326  0.49498924  0.98456116  1
  O  O397  1  0.38080399  0.99232891  0.49671257  1
  O  O398  1  0.38894867  1.00265567  1.01044568  1
  O  O399  1  0.87690502  0.49537481  0.49678450  1
  O  O400  1  0.88660010  0.48397792  1.00441455  1
  O  O401  1  0.89447374  0.99255522  0.50600255  1
  O  O402  1  0.88138110  0.99670548  0.99119599  1
  O  O403  1  0.11981926  0.00567065  0.00219587  1
  O  O404  1  0.10761041  -0.00349626  0.49992556  1
  O  O405  1  0.11180640  0.49439649  -0.00585671  1
  O  O406  1  0.11549939  0.50838165  0.50238109  1
  O  O407  1  0.61517889  0.00702066  0.00707507  1
  O  O408  1  0.62047342  0.00505558  0.50898736  1
  O  O409  1  0.62889221  0.50986718  0.01221501  1
  O  O410  1  0.61940292  0.50690910  0.50245681  1
  O  O411  1  0.37002340  0.37282304  0.11429002  1
  O  O412  1  0.35795901  0.37608188  0.62431066  1
  O  O413  1  0.36777043  0.87052052  0.12523771  1
  O  O414  1  0.38214288  0.86895517  0.61314843  1
  O  O415  1  0.86683001  0.36827646  0.11845298  1
  O  O416  1  0.86996760  0.36552560  0.61832610  1
  O  O417  1  0.87173269  0.88325370  0.10947210  1
  O  O418  1  0.87308982  0.86091657  0.63514590  1
  O  O419  1  0.11396157  0.12646778  0.37414028  1
  O  O420  1  0.12481145  0.12323680  0.88811242  1
  O  O421  1  0.12902444  0.62592713  0.38895576  1
  O  O422  1  0.12569986  0.63377057  0.87738422  1
  O  O423  1  0.62800388  0.12593637  0.38529441  1
  O  O424  1  0.62717655  0.13135762  0.88188143  1
  O  O425  1  0.61400377  0.63671925  0.38382425  1
  O  O426  1  0.63067666  0.61994293  0.88365563  1
