# generated using pymatgen
data_V85Zn86O256
_symmetry_space_group_name_H-M   'P 1'
_cell_length_a   16.96604558
_cell_length_b   16.95557577
_cell_length_c   16.95086963
_cell_angle_alpha   90.01460330
_cell_angle_beta   90.00087171
_cell_angle_gamma   89.96807945
_symmetry_Int_Tables_number   1
_chemical_formula_structural   V85Zn86O256
_chemical_formula_sum   'V85 Zn86 O256'
_cell_volume   4876.24001222
_cell_formula_units_Z   1
loop_
 _symmetry_equiv_pos_site_id
 _symmetry_equiv_pos_as_xyz
  1  'x, y, z'
loop_
 _atom_site_type_symbol
 _atom_site_label
 _atom_site_symmetry_multiplicity
 _atom_site_fract_x
 _atom_site_fract_y
 _atom_site_fract_z
 _atom_site_occupancy
  V  V0  1  0.12595435  0.00354941  0.62441951  1
  V  V1  1  0.62907441  0.87322423  0.24894947  1
  V  V2  1  0.24945353  0.74769870  -0.00230019  1
  V  V3  1  0.24598124  0.37731076  0.12410306  1
  V  V4  1  -0.01008252  0.87510570  0.88048342  1
  V  V5  1  0.87355812  0.26315069  0.62836323  1
  V  V6  1  0.62093142  0.12284147  -0.00293701  1
  V  V7  1  -0.00170259  0.62564167  0.12185587  1
  V  V8  1  0.36396065  0.11750284  0.25002744  1
  V  V9  1  0.75462983  0.61773909  0.37631706  1
  V  V10  1  -0.01296067  -0.00221525  -0.00560858  1
  V  V11  1  0.49911384  0.62291469  0.12695162  1
  V  V12  1  -0.00318796  0.87230395  0.37865288  1
  V  V13  1  0.12324756  0.74924205  0.87339535  1
  V  V14  1  0.00056158  0.25588871  0.26174123  1
  V  V15  1  0.25399838  0.74542593  0.50073830  1
  V  V16  1  0.37400232  0.37259206  0.50181735  1
  V  V17  1  0.75538667  0.25006041  -0.00155642  1
  V  V18  1  0.75277507  0.49272387  0.75218793  1
  V  V19  1  0.62950914  0.49308979  0.62706004  1
  V  V20  1  0.49769190  0.87940767  0.37348581  1
  V  V21  1  0.62413240  0.12245574  0.50340450  1
  V  V22  1  -0.01539890  0.37224172  0.87972749  1
  V  V23  1  0.12710947  0.00004832  0.12629657  1
  V  V24  1  -0.05873898  0.79826696  0.69462463  1
  V  V25  1  0.37650734  0.62351614  0.25057756  1
  V  V26  1  0.24426787  0.24767558  -0.00405499  1
  V  V27  1  0.12446445  0.12248999  -0.01111000  1
  V  V28  1  0.61946155  0.75185384  0.87005941  1
  V  V29  1  0.12607455  0.37300498  0.76137234  1
  V  V30  1  0.12709361  0.86977829  0.75113106  1
  V  V31  1  0.00758690  0.24818516  0.75251485  1
  V  V32  1  0.87356549  0.38135545  0.48518463  1
  V  V33  1  -0.00151658  0.12678912  0.12152568  1
  V  V34  1  0.37748251  0.86818930  0.49901399  1
  V  V35  1  0.62636708  0.62750911  0.50428356  1
  V  V36  1  0.75520474  0.37552767  0.11989155  1
  V  V37  1  0.50086530  0.37491982  0.87191464  1
  V  V38  1  0.49550820  0.50308477  -0.00671109  1
  V  V39  1  0.87136644  0.76365680  0.12191478  1
  V  V40  1  0.37403761  0.25087568  0.12480490  1
  V  V41  1  0.75124298  0.11449434  0.87582483  1
  V  V42  1  0.12309049  0.49516165  0.12309002  1
  V  V43  1  0.37787191  0.24634644  0.63454573  1
  V  V44  1  0.50172466  0.62759643  0.63477967  1
  V  V45  1  0.25914309  0.12590893  0.86550069  1
  V  V46  1  0.75071591  -0.00534079  0.24589604  1
  V  V47  1  0.37286958  0.61815047  0.76586921  1
  V  V48  1  0.37318993  0.74813305  0.12834542  1
  V  V49  1  0.62369822  -0.00511130  0.12004364  1
  V  V50  1  0.25179655  0.49901776  0.24532675  1
  V  V51  1  0.63022150  0.62350979  0.00003241  1
  V  V52  1  0.25205582  0.62043437  0.37591819  1
  V  V53  1  0.37934681  0.74698816  0.63699586  1
  V  V54  1  0.87289902  0.12394500  0.24791937  1
  V  V55  1  0.34068817  0.03230449  0.40198820  1
  V  V56  1  -0.00113575  0.74751068  0.24754842  1
  V  V57  1  -0.00308274  0.49939035  0.48884538  1
  V  V58  1  0.87266716  -0.00464390  0.38543530  1
  V  V59  1  0.00338601  0.00482083  0.49768496  1
  V  V60  1  0.12678538  0.62218159  -0.00674409  1
  V  V61  1  0.74859379  0.12459492  0.37648799  1
  V  V62  1  0.88339200  0.61511420  0.74842653  1
  V  V63  1  0.75313712  -0.00639183  0.75108413  1
  V  V64  1  0.50122525  0.37735652  0.37602583  1
  V  V65  1  0.25009083  0.37628085  0.62589106  1
  V  V66  1  0.25135429  0.87771567  0.12756900  1
  V  V67  1  0.62678760  0.37556044  0.24788262  1
  V  V68  1  0.25291274  0.87307069  0.62487034  1
  V  V69  1  0.87377927  0.12636629  0.75215902  1
  V  V70  1  0.49931038  0.25040993  0.24919823  1
  V  V71  1  0.49962039  0.11917934  0.12381998  1
  V  V72  1  0.12289171  0.49975689  0.62893042  1
  V  V73  1  0.12590631  0.62186833  0.50295840  1
  V  V74  1  0.76887410  0.75336979  0.50492266  1
  V  V75  1  0.61503427  0.87166534  0.74923748  1
  V  V76  1  -0.01414094  0.49599002  -0.00337301  1
  V  V77  1  0.75445039  0.76553820  0.00198657  1
  V  V78  1  0.74970050  0.25439535  0.50600074  1
  V  V79  1  0.26024481  -0.00121188  0.75532927  1
  V  V80  1  0.62696078  0.74943881  0.37716851  1
  V  V81  1  0.37201130  0.37966661  -0.00677840  1
  V  V82  1  0.12480343  0.87651122  0.25276999  1
  V  V83  1  0.87664438  0.61912196  0.25139595  1
  V  V84  1  0.75907917  0.61929796  0.87711878  1
  Zn  Zn85  1  0.39261761  -0.00471936  0.88742126  1
  Zn  Zn86  1  0.37749294  0.49976384  0.37794040  1
  Zn  Zn87  1  0.16031213  0.21289142  0.42612470  1
  Zn  Zn88  1  0.50337795  -0.00197826  0.50064900  1
  Zn  Zn89  1  0.50168815  0.74822067  0.25307257  1
  Zn  Zn90  1  0.00010706  0.62929047  0.62819198  1
  Zn  Zn91  1  0.62553408  0.24975937  0.87137276  1
  Zn  Zn92  1  0.24929370  0.50249647  0.76644035  1
  Zn  Zn93  1  0.75573167  0.49526092  0.25254454  1
  Zn  Zn94  1  0.12535238  0.74456603  0.37127442  1
  Zn  Zn95  1  0.87623270  0.25300741  0.12171997  1
  Zn  Zn96  1  0.50284413  0.24294870  0.75392344  1
  Zn  Zn97  1  0.75779088  0.86938579  0.62534582  1
  Zn  Zn98  1  0.62833451  0.37447357  0.75044209  1
  Zn  Zn99  1  0.62718439  0.49984861  0.12553066  1
  Zn  Zn100  1  0.62644519  0.25042276  0.37660620  1
  Zn  Zn101  1  0.50072047  0.50137874  0.50265171  1
  Zn  Zn102  1  0.00085450  0.13107604  0.61740224  1
  Zn  Zn103  1  0.14435346  0.34549471  0.29176116  1
  Zn  Zn104  1  0.39519411  0.87898592  -0.00226256  1
  Zn  Zn105  1  0.49556298  0.11725919  0.62650395  1
  Zn  Zn106  1  0.62673725  -0.00507751  0.62353929  1
  Zn  Zn107  1  0.18426012  0.18684253  0.18487228  1
  Zn  Zn108  1  0.16666277  0.20983641  0.63339838  1
  Zn  Zn109  1  0.18590051  0.68401159  0.18498379  1
  Zn  Zn110  1  0.19194860  0.68584474  0.69076764  1
  Zn  Zn111  1  0.68654323  0.18856472  0.18546278  1
  Zn  Zn112  1  0.68407302  0.18899065  0.68889061  1
  Zn  Zn113  1  0.69115861  0.68788135  0.18691433  1
  Zn  Zn114  1  0.69612003  0.68506896  0.68800327  1
  Zn  Zn115  1  0.31377589  0.30741696  0.31647639  1
  Zn  Zn116  1  0.30973499  0.31222381  0.81270493  1
  Zn  Zn117  1  0.30907437  0.81411320  0.31325857  1
  Zn  Zn118  1  0.31535367  0.81242466  0.81702751  1
  Zn  Zn119  1  0.81124341  0.30867317  0.31184019  1
  Zn  Zn120  1  0.81072471  0.30720556  0.81584036  1
  Zn  Zn121  1  0.81324103  0.80829264  0.31473864  1
  Zn  Zn122  1  0.80387745  0.81271950  0.82132861  1
  Zn  Zn123  1  0.19116365  0.41191132  0.43238741  1
  Zn  Zn124  1  0.17910572  0.43335880  0.93853651  1
  Zn  Zn125  1  0.18155880  1.03463965  0.42814817  1
  Zn  Zn126  1  0.19258296  0.93601575  0.93951271  1
  Zn  Zn127  1  0.68857145  0.43758749  0.43921404  1
  Zn  Zn128  1  0.68713294  0.43811528  0.93779748  1
  Zn  Zn129  1  0.69037148  0.93392763  0.43794539  1
  Zn  Zn130  1  0.56184052  0.92998920  0.93700366  1
  Zn  Zn131  1  0.31133449  0.06031843  0.06155356  1
  Zn  Zn132  1  0.31389736  0.06022785  0.57067345  1
  Zn  Zn133  1  0.31161847  0.56464967  -0.06028655  1
  Zn  Zn134  1  0.31442177  0.55663081  0.56733930  1
  Zn  Zn135  1  0.80860008  0.05905483  0.06264776  1
  Zn  Zn136  1  0.81082768  0.06552512  0.56864807  1
  Zn  Zn137  1  0.81188464  0.56426559  0.06890230  1
  Zn  Zn138  1  0.81337503  0.56305490  0.56814753  1
  Zn  Zn139  1  0.43650404  0.43854118  0.18307614  1
  Zn  Zn140  1  0.43818015  0.44310354  0.68837809  1
  Zn  Zn141  1  0.43648810  0.93819867  0.18907396  1
  Zn  Zn142  1  0.44204697  0.93881601  0.68773230  1
  Zn  Zn143  1  0.93660149  0.43654424  0.18516650  1
  Zn  Zn144  1  0.94058725  0.43765301  0.68750373  1
  Zn  Zn145  1  0.94001966  0.94003613  0.18778084  1
  Zn  Zn146  1  0.93969900  0.95787170  0.69200108  1
  Zn  Zn147  1  0.05957038  0.06661942  0.30835438  1
  Zn  Zn148  1  0.06427427  0.05970522  0.81117984  1
  Zn  Zn149  1  0.07938501  0.52987408  0.32811064  1
  Zn  Zn150  1  0.06156747  0.55727957  0.81677412  1
  Zn  Zn151  1  0.56034969  0.06166781  0.31335975  1
  Zn  Zn152  1  0.56118105  0.06351375  0.80509896  1
  Zn  Zn153  1  0.56662544  0.55985529  0.31399008  1
  Zn  Zn154  1  0.56436892  0.56465665  0.81309028  1
  Zn  Zn155  1  0.43926656  0.19430475  0.44158002  1
  Zn  Zn156  1  0.43627059  0.18668979  0.93754479  1
  Zn  Zn157  1  0.44237590  0.68786366  0.43950841  1
  Zn  Zn158  1  0.44295526  0.70110211  0.94391162  1
  Zn  Zn159  1  0.93460469  0.18782884  0.43708134  1
  Zn  Zn160  1  0.93670769  0.18802437  0.93403773  1
  Zn  Zn161  1  0.94278892  0.67992384  0.43454345  1
  Zn  Zn162  1  0.93765585  0.68897751  0.93573037  1
  Zn  Zn163  1  0.06142524  0.30960745  0.06032591  1
  Zn  Zn164  1  0.05579345  0.31876842  0.55919984  1
  Zn  Zn165  1  0.06152087  0.81369933  0.06081988  1
  Zn  Zn166  1  0.06988591  0.81742056  0.55399111  1
  Zn  Zn167  1  0.56412343  0.31081106  0.06051650  1
  Zn  Zn168  1  0.56173064  0.31167574  0.56194803  1
  Zn  Zn169  1  0.57162551  0.80273225  0.07126391  1
  Zn  Zn170  1  0.56399702  0.80956378  0.56606279  1
  O  O171  1  0.11780938  0.11716256  0.11718027  1
  O  O172  1  0.11950997  0.10593606  0.63758041  1
  O  O173  1  0.11779248  0.62094146  0.11066029  1
  O  O174  1  0.12602560  0.61846814  0.62155226  1
  O  O175  1  0.61794753  0.11688495  0.12153907  1
  O  O176  1  0.63183347  0.12202314  0.60992373  1
  O  O177  1  0.61842662  0.62576787  0.11766281  1
  O  O178  1  0.62012477  0.62204490  0.62225515  1
  O  O179  1  0.38400313  0.37537770  0.38326918  1
  O  O180  1  0.37969803  0.36865322  0.88820466  1
  O  O181  1  0.38489023  0.86261544  0.38530423  1
  O  O182  1  0.36471975  0.88132973  0.88505069  1
  O  O183  1  0.87164297  0.37541519  0.38643369  1
  O  O184  1  0.88619417  0.37255461  0.87533303  1
  O  O185  1  0.88539548  0.88383978  0.36540568  1
  O  O186  1  0.89099832  0.86705345  0.86975531  1
  O  O187  1  0.26521398  -0.02130652  0.36503964  1
  O  O188  1  0.24432172  0.01060717  0.86837629  1
  O  O189  1  0.25594041  0.51072171  0.36862258  1
  O  O190  1  0.24292902  0.50161562  0.87966923  1
  O  O191  1  0.75659877  0.00309158  0.36653928  1
  O  O192  1  0.74933046  0.01293405  0.86315766  1
  O  O193  1  0.74693199  0.51387237  0.37351668  1
  O  O194  1  0.74560743  0.51229806  0.86965910  1
  O  O195  1  0.24228579  0.48547738  0.12292002  1
  O  O196  1  0.23910041  0.49365120  0.63233213  1
  O  O197  1  0.23802495  0.99076554  0.12429313  1
  O  O198  1  0.24453867  0.99335639  0.63375730  1
  O  O199  1  0.74635785  0.49105841  0.12861061  1
  O  O200  1  0.74054698  0.50883962  0.63865539  1
  O  O201  1  0.74135111  1.00374738  0.13890458  1
  O  O202  1  0.75086420  0.99292436  0.63670956  1
  O  O203  1  -0.00948149  0.35477941  0.24413382  1
  O  O204  1  0.00389666  0.36966206  0.76071802  1
  O  O205  1  0.00396737  0.86477622  0.25372806  1
  O  O206  1  0.00260018  0.86785977  0.75067797  1
  O  O207  1  0.50513444  0.37096311  0.25347644  1
  O  O208  1  0.49762900  0.38132247  0.76628988  1
  O  O209  1  0.50690468  0.87187525  0.25798183  1
  O  O210  1  0.51617322  0.87203834  0.74888357  1
  O  O211  1  0.49732012  0.13207157  0.24035620  1
  O  O212  1  0.50942194  0.13124027  0.73707536  1
  O  O213  1  0.49746780  0.62321958  0.24358530  1
  O  O214  1  0.48810849  0.62228441  0.74589346  1
  O  O215  1  0.99046545  0.13077409  0.23982543  1
  O  O216  1  0.99311418  0.13302529  0.75303481  1
  O  O217  1  0.99483855  0.63713214  0.24409520  1
  O  O218  1  0.98780978  0.62050838  0.75227940  1
  O  O219  1  0.36310880  0.25428872  0.00662260  1
  O  O220  1  0.37740774  0.26570848  0.51034316  1
  O  O221  1  0.36614568  0.75043292  0.01358436  1
  O  O222  1  0.37305857  0.74966146  0.51186103  1
  O  O223  1  0.85966213  0.24087906  0.00250001  1
  O  O224  1  0.87140706  0.26113647  0.50586002  1
  O  O225  1  0.86270827  0.74570173  0.00661804  1
  O  O226  1  0.86689933  0.74558549  0.49632256  1
  O  O227  1  0.12623837  0.23858116  0.52927790  1
  O  O228  1  0.13717396  0.23915210  1.00535778  1
  O  O229  1  0.13384821  0.73755939  0.49843323  1
  O  O230  1  0.12991758  0.74150855  0.99624794  1
  O  O231  1  0.63421908  0.24509690  0.49962595  1
  O  O232  1  0.63378538  0.23498894  1.00280478  1
  O  O233  1  0.63057975  0.73871386  0.49745870  1
  O  O234  1  0.63755055  0.73914625  0.99375575  1
  O  O235  1  0.49311691  0.24489003  0.13012800  1
  O  O236  1  0.48459322  0.25611073  0.62616427  1
  O  O237  1  0.49405856  0.73669206  0.12989318  1
  O  O238  1  0.49367797  0.73632247  0.62384653  1
  O  O239  1  0.99596732  0.23680965  0.12368255  1
  O  O240  1  0.98931245  0.24954359  0.63475043  1
  O  O241  1  0.99303734  0.74649427  0.12883560  1
  O  O242  1  1.00293549  0.75149575  0.62788363  1
  O  O243  1  -0.00064792  0.24563405  0.36180720  1
  O  O244  1  -0.00162100  0.26116211  0.86758582  1
  O  O245  1  0.00235557  0.75563513  0.36646148  1
  O  O246  1  0.01452153  0.75921368  0.88429761  1
  O  O247  1  0.50261837  0.26236252  0.36834126  1
  O  O248  1  0.50163536  0.25994431  0.87696360  1
  O  O249  1  0.50990450  0.75762036  0.37384628  1
  O  O250  1  0.52136339  0.74150836  0.87312184  1
  O  O251  1  0.27678531  0.09413720  0.46903864  1
  O  O252  1  0.24262693  0.13040247  0.99388874  1
  O  O253  1  0.24662218  0.62387206  0.49503378  1
  O  O254  1  0.24114003  0.63802298  1.00115311  1
  O  O255  1  0.74699050  0.13189650  0.49443872  1
  O  O256  1  0.74235827  0.12668131  0.99376761  1
  O  O257  1  0.74745741  0.63197465  0.49523719  1
  O  O258  1  0.74400027  0.62325926  0.99424256  1
  O  O259  1  0.25378356  0.36628953  0.00270976  1
  O  O260  1  0.26090679  0.38630388  0.51478774  1
  O  O261  1  0.23879646  0.86120364  0.01637530  1
  O  O262  1  0.26730618  0.86412347  0.50820655  1
  O  O263  1  0.74145926  0.36380113  0.00792649  1
  O  O264  1  0.76112734  0.36818916  0.49796711  1
  O  O265  1  0.74786023  0.86018991  -0.00364384  1
  O  O266  1  0.75093472  0.85807816  0.50140250  1
  O  O267  1  0.13518028  0.51521677  0.22807250  1
  O  O268  1  0.12416106  0.49104534  0.74493705  1
  O  O269  1  0.11297944  0.99038416  0.23549094  1
  O  O270  1  0.12968071  0.98546295  0.74500109  1
  O  O271  1  0.62674429  0.48624666  0.24734343  1
  O  O272  1  0.63418939  0.49966772  0.74462212  1
  O  O273  1  0.63268115  0.99363542  0.24584201  1
  O  O274  1  0.63474403  0.98302791  0.74971786  1
  O  O275  1  0.37771200  0.01645548  0.25508894  1
  O  O276  1  0.36169663  -0.00625382  0.75058420  1
  O  O277  1  0.36890250  0.50662729  0.24928741  1
  O  O278  1  0.37358473  0.51480607  0.75384974  1
  O  O279  1  0.86931492  0.00773810  0.25521703  1
  O  O280  1  0.86656037  0.01320207  0.75248674  1
  O  O281  1  0.87626406  0.51488743  0.24463043  1
  O  O282  1  0.87035669  0.50821909  0.74897939  1
  O  O283  1  0.10585865  0.42294802  0.36319243  1
  O  O284  1  0.11726280  0.36917996  0.86360763  1
  O  O285  1  0.11470520  0.87124351  0.35805167  1
  O  O286  1  0.11885082  0.86967022  0.86649804  1
  O  O287  1  0.61927687  0.37404428  0.36793022  1
  O  O288  1  0.61406506  0.37246957  0.87747343  1
  O  O289  1  0.61870980  0.87068045  0.36759613  1
  O  O290  1  0.63050451  0.85975483  0.86476800  1
  O  O291  1  0.38095613  0.12871192  0.13383094  1
  O  O292  1  0.37282666  0.14360195  0.62039548  1
  O  O293  1  0.38480233  0.63293156  0.13454483  1
  O  O294  1  0.38375161  0.62845078  0.63353368  1
  O  O295  1  0.88073630  0.12325815  0.13263894  1
  O  O296  1  0.87736127  0.13490459  0.63686067  1
  O  O297  1  0.88132102  0.63488333  0.13211193  1
  O  O298  1  0.87856438  0.62542172  0.64324887  1
  O  O299  1  0.25267185  0.25908487  0.11823734  1
  O  O300  1  0.26475909  0.26768217  0.63105894  1
  O  O301  1  0.25706917  0.75282857  0.12070525  1
  O  O302  1  0.25922243  0.75313661  0.62047654  1
  O  O303  1  0.75114369  0.25576101  0.11743553  1
  O  O304  1  0.75831687  0.24558065  0.61300171  1
  O  O305  1  0.75636453  0.74663771  0.11098808  1
  O  O306  1  0.75326682  0.74729849  0.60917798  1
  O  O307  1  0.21757626  0.29628393  0.37451606  1
  O  O308  1  0.25249843  0.23586225  0.88117175  1
  O  O309  1  0.24879415  0.73645960  0.38042735  1
  O  O310  1  0.23497590  0.75517744  0.88568611  1
  O  O311  1  0.75027080  0.24270975  0.38650456  1
  O  O312  1  0.74608538  0.24001465  0.88292794  1
  O  O313  1  0.74521635  0.74179119  0.38609480  1
  O  O314  1  0.74557071  0.73888319  0.88749877  1
  O  O315  1  0.00648074  0.12075802  0.00234739  1
  O  O316  1  -0.00854393  0.10941672  0.49968825  1
  O  O317  1  0.00516969  0.61673623  0.00270693  1
  O  O318  1  0.00980132  0.62265323  0.50852604  1
  O  O319  1  0.50715940  0.13292107  0.01511632  1
  O  O320  1  0.50980808  0.12505338  0.50277100  1
  O  O321  1  0.50663118  0.62132447  0.00658627  1
  O  O322  1  0.51133276  0.62269895  0.50835081  1
  O  O323  1  0.49653184  0.37808202  0.49102846  1
  O  O324  1  0.49245536  0.38287748  0.99516463  1
  O  O325  1  0.49256398  0.86935973  0.49410599  1
  O  O326  1  0.50730916  0.85692984  1.00062198  1
  O  O327  1  0.98490387  0.38494227  0.50036843  1
  O  O328  1  1.00283266  0.37821414  0.98764652  1
  O  O329  1  1.00369568  0.88243884  0.48483898  1
  O  O330  1  1.00490187  0.88581537  0.99221419  1
  O  O331  1  0.49967124  0.48815236  0.37585138  1
  O  O332  1  0.50550362  0.49578856  0.88794948  1
  O  O333  1  0.49779525  0.98578795  0.37747939  1
  O  O334  1  0.50616845  1.00679000  0.88134794  1
  O  O335  1  0.98417358  0.52358384  0.39295454  1
  O  O336  1  1.00379434  0.48274492  0.88355225  1
  O  O337  1  0.99221425  0.99280258  0.37843984  1
  O  O338  1  1.00587671  0.98967146  0.88300369  1
  O  O339  1  0.00417736  0.01013291  0.11767467  1
  O  O340  1  0.00801132  -0.00126013  0.61385079  1
  O  O341  1  0.00618474  0.50265558  0.11814999  1
  O  O342  1  0.01213015  0.50114376  0.62046309  1
  O  O343  1  0.51073244  0.00861232  0.13444058  1
  O  O344  1  0.50733938  -0.00106029  0.61843557  1
  O  O345  1  0.50151482  0.50962124  0.11464437  1
  O  O346  1  0.50989527  0.51209021  0.62601054  1
  O  O347  1  0.25017523  0.38097313  0.23881068  1
  O  O348  1  0.24133737  0.37860998  0.74674675  1
  O  O349  1  0.23858318  0.86582790  0.23693785  1
  O  O350  1  0.24263179  0.87942554  0.74479432  1
  O  O351  1  0.74265350  0.37325806  0.24405745  1
  O  O352  1  0.75210840  0.38937763  0.75941863  1
  O  O353  1  0.74176237  0.88329375  0.25853063  1
  O  O354  1  0.74737779  0.88040702  0.74919755  1
  O  O355  1  0.26522564  0.13158437  0.24511181  1
  O  O356  1  0.24513145  0.11634728  0.76490094  1
  O  O357  1  0.25610360  0.62085317  0.25625581  1
  O  O358  1  0.26851572  0.62321990  0.74965174  1
  O  O359  1  0.75541371  0.11960491  0.25534655  1
  O  O360  1  0.75491881  0.11979755  0.75471876  1
  O  O361  1  0.75812621  0.62495437  0.25809178  1
  O  O362  1  0.76222945  0.61816822  0.75885177  1
  O  O363  1  0.38418251  0.12768110  0.36017162  1
  O  O364  1  0.36135464  0.11914169  0.87998406  1
  O  O365  1  0.37117726  0.62477140  0.36894826  1
  O  O366  1  0.37960153  0.63327077  0.86934542  1
  O  O367  1  0.86931285  0.11572157  0.36730313  1
  O  O368  1  0.86579051  0.13409856  0.86111602  1
  O  O369  1  0.86511313  0.63484694  0.36336503  1
  O  O370  1  0.86942042  0.62867723  0.86385253  1
  O  O371  1  0.13100020  0.38242117  0.11893776  1
  O  O372  1  0.13139933  0.38305422  0.63294286  1
  O  O373  1  0.12738854  0.88078850  0.13279921  1
  O  O374  1  0.13199614  0.88048309  0.63136166  1
  O  O375  1  0.63240901  0.37460052  0.13206945  1
  O  O376  1  0.62009534  0.39017281  0.62509555  1
  O  O377  1  0.62287893  0.88084230  0.14052276  1
  O  O378  1  0.63145984  0.86842719  0.63914500  1
  O  O379  1  0.10650220  0.24893181  0.24194942  1
  O  O380  1  0.11214374  0.25792944  0.73528212  1
  O  O381  1  0.11483762  0.75441680  0.24729837  1
  O  O382  1  0.13048834  0.75974204  0.75724693  1
  O  O383  1  0.61858637  0.25960686  0.25132305  1
  O  O384  1  0.62334224  0.25941461  0.75161480  1
  O  O385  1  0.62762278  0.75755774  0.25640489  1
  O  O386  1  0.63790895  0.75629144  0.76238593  1
  O  O387  1  0.38045034  0.24419002  0.24469077  1
  O  O388  1  0.37889975  0.25734566  0.73751017  1
  O  O389  1  0.37530618  0.74419585  0.24127364  1
  O  O390  1  0.37058365  0.74083975  0.74153787  1
  O  O391  1  0.88087193  0.23722256  0.24829041  1
  O  O392  1  0.88130302  0.24756750  0.74368156  1
  O  O393  1  0.88018318  0.74378821  0.24208175  1
  O  O394  1  0.87755010  0.74135810  0.75174556  1
  O  O395  1  0.38122272  0.48924555  0.50078703  1
  O  O396  1  0.38331163  0.49251907  0.99983138  1
  O  O397  1  0.38030963  0.98552081  0.49803996  1
  O  O398  1  0.37018182  0.99016015  1.00293578  1
  O  O399  1  0.87883625  0.48732752  0.50899512  1
  O  O400  1  0.88728327  0.50432188  1.00576568  1
  O  O401  1  0.87644378  1.00058773  0.48955067  1
  O  O402  1  0.88795147  1.00557302  1.00175989  1
  O  O403  1  0.11923117  0.00640625  0.00919953  1
  O  O404  1  0.11513118  -0.00686367  0.51062596  1
  O  O405  1  0.11653134  0.50648531  0.00779648  1
  O  O406  1  0.11741271  0.51014451  0.50924945  1
  O  O407  1  0.62719745  0.00756057  0.01521561  1
  O  O408  1  0.62732752  0.00730043  0.49952594  1
  O  O409  1  0.61835813  0.51194958  0.00195504  1
  O  O410  1  0.62863644  0.51189379  0.50879847  1
  O  O411  1  0.36746953  0.37145549  0.11339026  1
  O  O412  1  0.36943102  0.37495422  0.62195118  1
  O  O413  1  0.36637978  0.86629046  0.12968734  1
  O  O414  1  0.37540116  0.86409762  0.62159763  1
  O  O415  1  0.85960273  0.37186861  0.12837290  1
  O  O416  1  0.87622988  0.36548417  0.62144242  1
  O  O417  1  0.87790598  0.86302468  0.13074046  1
  O  O418  1  0.88462338  0.86387758  0.64161803  1
  O  O419  1  0.12984367  0.11910390  0.37514185  1
  O  O420  1  0.13203916  0.12105297  0.88541566  1
  O  O421  1  0.13495083  0.62163417  0.38473779  1
  O  O422  1  0.11773376  0.63217657  0.88564553  1
  O  O423  1  0.63031626  0.12637879  0.38390823  1
  O  O424  1  0.63329903  0.12583803  0.88530361  1
  O  O425  1  0.63152660  0.62918353  0.38414042  1
  O  O426  1  0.63498598  0.63273624  0.88072454  1
