# generated using pymatgen
data_V85Zn86O256
_symmetry_space_group_name_H-M   'P 1'
_cell_length_a   16.92442615
_cell_length_b   16.92736503
_cell_length_c   16.92684513
_cell_angle_alpha   90.00275163
_cell_angle_beta   89.99588369
_cell_angle_gamma   89.98893349
_symmetry_Int_Tables_number   1
_chemical_formula_structural   V85Zn86O256
_chemical_formula_sum   'V85 Zn86 O256'
_cell_volume   4849.30302026
_cell_formula_units_Z   1
loop_
 _symmetry_equiv_pos_site_id
 _symmetry_equiv_pos_as_xyz
  1  'x, y, z'
loop_
 _atom_site_type_symbol
 _atom_site_label
 _atom_site_symmetry_multiplicity
 _atom_site_fract_x
 _atom_site_fract_y
 _atom_site_fract_z
 _atom_site_occupancy
  V  V0  1  0.43158004  0.05083152  0.93110787  1
  V  V1  1  0.62341862  0.24330204  0.38426387  1
  V  V2  1  0.01114574  0.50211762  0.00261161  1
  V  V3  1  -0.00474078  0.49309258  0.49023255  1
  V  V4  1  0.62554486  0.01317859  0.62471601  1
  V  V5  1  0.75470968  0.38025846  0.62973061  1
  V  V6  1  0.87224534  0.24817896  0.12373252  1
  V  V7  1  0.24045064  0.12630774  0.87334108  1
  V  V8  1  0.75133036  0.12517334  0.87537264  1
  V  V9  1  0.87455902  0.85898766  0.50582312  1
  V  V10  1  0.24695305  0.74032816  -0.00106826  1
  V  V11  1  0.12947130  -0.00290548  0.62713622  1
  V  V12  1  0.75264988  0.86171558  0.62411440  1
  V  V13  1  0.62947855  0.38975729  0.75307505  1
  V  V14  1  0.23914281  0.38034359  0.12756244  1
  V  V15  1  -0.00094001  0.87109672  0.87371969  1
  V  V16  1  -0.00159998  0.12440182  0.12667055  1
  V  V17  1  0.25044578  0.25539071  0.51091789  1
  V  V18  1  0.74629434  0.00123906  0.25056229  1
  V  V19  1  -0.00219593  0.62333383  0.62392297  1
  V  V20  1  0.12319953  -0.00093572  0.12381466  1
  V  V21  1  0.00154591  0.24758270  0.75472173  1
  V  V22  1  0.74228919  0.11703858  0.38758372  1
  V  V23  1  0.37230749  0.25228843  0.12870811  1
  V  V24  1  0.87401824  0.37585546  -0.00187945  1
  V  V25  1  0.61816372  0.87692127  0.25162647  1
  V  V26  1  0.13057970  0.87141580  0.74718531  1
  V  V27  1  0.38142509  0.12311822  0.73995303  1
  V  V28  1  -0.00078460  0.74883436  0.24937460  1
  V  V29  1  0.62912904  0.50337283  0.59976413  1
  V  V30  1  0.37756557  0.60990082  0.74726526  1
  V  V31  1  -0.00011451  -0.00186079  0.50162501  1
  V  V32  1  0.24956018  -0.00041597  0.25117276  1
  V  V33  1  0.62493243  0.24705873  0.88066099  1
  V  V34  1  0.37805016  0.12517561  0.25098743  1
  V  V35  1  0.37439509  0.38017076  0.50878648  1
  V  V36  1  0.12380544  0.73801540  0.87499428  1
  V  V37  1  0.74760393  0.87513607  0.12122594  1
  V  V38  1  0.87438352  0.74532220  0.12256355  1
  V  V39  1  0.62305447  0.37349183  0.25249227  1
  V  V40  1  0.12821162  0.75034282  0.37888857  1
  V  V41  1  0.50167570  0.38560329  0.87838472  1
  V  V42  1  -0.00172810  0.87342904  0.37696558  1
  V  V43  1  0.13690984  0.37321698  0.74767620  1
  V  V44  1  0.61875507  0.49916903  0.12222944  1
  V  V45  1  0.87100373  -0.00434791  0.37714064  1
  V  V46  1  0.00663136  0.37142365  0.87425346  1
  V  V47  1  0.87457252  0.24975796  0.62836758  1
  V  V48  1  0.87212264  0.62942614  0.74596879  1
  V  V49  1  0.74918617  0.63404789  0.39022578  1
  V  V50  1  0.50541658  0.62528875  0.61196077  1
  V  V51  1  0.49758213  0.62496213  0.11891118  1
  V  V52  1  0.37708482  0.38550225  0.00359058  1
  V  V53  1  0.87681142  0.00427233  0.86616459  1
  V  V54  1  0.62217784  0.74943349  0.87112699  1
  V  V55  1  0.37919120  0.87724471  0.50758138  1
  V  V56  1  0.74699175  0.37503877  0.12311885  1
  V  V57  1  0.24868599  0.12857819  0.37733143  1
  V  V58  1  0.25210740  0.75564810  0.50941698  1
  V  V59  1  0.38009984  -0.00631502  0.37724933  1
  V  V60  1  0.24208131  0.25274128  -0.00372634  1
  V  V61  1  0.24380152  0.50253864  0.24968097  1
  V  V62  1  0.12499921  0.87610348  0.24984804  1
  V  V63  1  0.61782786  0.00842843  0.11095407  1
  V  V64  1  0.12449353  0.12525412  0.50194956  1
  V  V65  1  0.25745647  -0.00423558  0.75289082  1
  V  V66  1  0.50213762  0.37828800  0.38205706  1
  V  V67  1  0.37682013  0.62516505  0.24964196  1
  V  V68  1  0.74799532  0.61863035  0.86906073  1
  V  V69  1  0.37973851  0.50212318  0.38008204  1
  V  V70  1  0.49916884  0.87184338  0.87539776  1
  V  V71  1  0.01320701  0.62226406  0.12119019  1
  V  V72  1  0.38031010  0.75434638  0.63789369  1
  V  V73  1  0.13665209  0.49655032  0.62587917  1
  V  V74  1  0.37437412  0.87188409  -0.00595063  1
  V  V75  1  -0.00022363  -0.00053648  -0.00112065  1
  V  V76  1  0.62341401  0.87117661  0.74611131  1
  V  V77  1  0.75446004  0.50519762  0.25430867  1
  V  V78  1  0.49982309  0.75385906  0.25416294  1
  V  V79  1  0.50479312  0.01382545  0.50260862  1
  V  V80  1  0.87239228  0.49690026  0.86846575  1
  V  V81  1  -0.00021759  0.25600503  0.25798149  1
  V  V82  1  -0.00591487  0.12314420  0.63053723  1
  V  V83  1  0.62178105  0.62119452  -0.00273713  1
  V  V84  1  0.50490437  0.24979963  0.74221408  1
  Zn  Zn85  1  0.37092308  0.49887055  0.87514603  1
  Zn  Zn86  1  0.12696646  0.62312826  0.50250975  1
  Zn  Zn87  1  0.37981560  0.25277753  0.62511913  1
  Zn  Zn88  1  0.11749490  0.25826671  0.38170230  1
  Zn  Zn89  1  0.12147241  0.13001144  -0.00341247  1
  Zn  Zn90  1  0.61892078  0.74317303  0.38965375  1
  Zn  Zn91  1  0.88278291  0.36985634  0.48407259  1
  Zn  Zn92  1  0.74265382  0.24259465  0.00491649  1
  Zn  Zn93  1  0.49897267  0.12508777  0.11181671  1
  Zn  Zn94  1  0.50019640  0.24855342  0.24983439  1
  Zn  Zn95  1  0.25263966  0.62738695  0.37808353  1
  Zn  Zn96  1  0.87605335  0.62162551  0.25332060  1
  Zn  Zn97  1  -0.00166284  0.74804821  0.74450323  1
  Zn  Zn98  1  0.75562572  0.00339154  0.74565724  1
  Zn  Zn99  1  0.87217418  0.12307085  0.25298211  1
  Zn  Zn100  1  0.87329455  0.87332176  -0.00356806  1
  Zn  Zn101  1  0.11431622  0.38787354  0.25716093  1
  Zn  Zn102  1  0.37383463  0.75272859  0.12350012  1
  Zn  Zn103  1  0.24501320  0.61605214  0.86652236  1
  Zn  Zn104  1  0.74998093  0.74805605  -0.00176309  1
  Zn  Zn105  1  0.74868615  0.24443592  0.50681702  1
  Zn  Zn106  1  0.25000791  0.87501466  0.11997368  1
  Zn  Zn107  1  0.18517683  0.18853960  0.18818997  1
  Zn  Zn108  1  0.18587303  0.18638937  0.68967852  1
  Zn  Zn109  1  0.19043825  0.69031501  0.18807586  1
  Zn  Zn110  1  0.19082995  0.68376016  0.68677584  1
  Zn  Zn111  1  0.68460256  0.18438476  0.19047242  1
  Zn  Zn112  1  0.69158358  0.18966852  0.69775843  1
  Zn  Zn113  1  0.68443005  0.68926037  0.18820315  1
  Zn  Zn114  1  0.68475826  0.68344583  0.68618542  1
  Zn  Zn115  1  0.30809297  0.31643541  0.31758856  1
  Zn  Zn116  1  0.31691911  0.31115167  0.81336560  1
  Zn  Zn117  1  0.31246652  0.81337125  0.31358967  1
  Zn  Zn118  1  0.31094661  0.80985200  0.81557580  1
  Zn  Zn119  1  0.80982405  0.30721637  0.31111325  1
  Zn  Zn120  1  0.81397252  0.30895443  0.80954821  1
  Zn  Zn121  1  0.81003528  0.81108017  0.31107197  1
  Zn  Zn122  1  0.80962257  0.81075967  0.81043770  1
  Zn  Zn123  1  0.18743598  0.43697726  0.43664360  1
  Zn  Zn124  1  0.18962356  0.43903441  0.93328969  1
  Zn  Zn125  1  0.19129472  0.93597305  0.43996351  1
  Zn  Zn126  1  0.18803028  0.93577743  0.93350918  1
  Zn  Zn127  1  0.71912409  0.42380594  0.42683235  1
  Zn  Zn128  1  0.68774999  0.43797472  0.93875992  1
  Zn  Zn129  1  0.66481190  0.90211839  0.45827584  1
  Zn  Zn130  1  0.68854349  0.93844660  0.93576123  1
  Zn  Zn131  1  0.30496423  0.06663536  0.06621028  1
  Zn  Zn132  1  0.31163253  0.06246812  0.56530652  1
  Zn  Zn133  1  0.30857968  0.56233472  0.06311259  1
  Zn  Zn134  1  0.31387690  0.56816082  0.56123948  1
  Zn  Zn135  1  0.81178631  0.06049383  0.05707159  1
  Zn  Zn136  1  0.81339383  0.05531538  0.56436837  1
  Zn  Zn137  1  0.81216478  0.56190856  0.05912741  1
  Zn  Zn138  1  0.81371379  0.55984768  0.56248821  1
  Zn  Zn139  1  0.43687064  0.43872489  0.19100532  1
  Zn  Zn140  1  0.45078059  0.44012647  0.68299328  1
  Zn  Zn141  1  0.43734208  0.93937621  0.18100062  1
  Zn  Zn142  1  0.44190759  0.93853475  0.68852164  1
  Zn  Zn143  1  0.93600668  0.43753821  0.18418513  1
  Zn  Zn144  1  0.94178473  0.43937002  0.68586371  1
  Zn  Zn145  1  0.93359250  0.93431397  0.18792725  1
  Zn  Zn146  1  0.93897876  0.93289201  0.68775957  1
  Zn  Zn147  1  0.06074415  0.06525697  0.31341752  1
  Zn  Zn148  1  0.06354303  0.06035840  0.81070444  1
  Zn  Zn149  1  0.06193664  0.56809087  0.31393269  1
  Zn  Zn150  1  0.05913893  0.55555432  0.80778650  1
  Zn  Zn151  1  0.56092873  0.05793786  0.31201116  1
  Zn  Zn152  1  0.57083239  0.06579612  0.80569937  1
  Zn  Zn153  1  0.56639210  0.56391633  0.31545025  1
  Zn  Zn154  1  0.55447746  0.56740444  0.80614422  1
  Zn  Zn155  1  0.43608274  0.19058126  0.43760108  1
  Zn  Zn156  1  0.43087846  0.21475276  0.93255007  1
  Zn  Zn157  1  0.43642238  0.69135766  0.43812311  1
  Zn  Zn158  1  0.43714942  0.68780402  0.93338289  1
  Zn  Zn159  1  0.93064957  0.18215724  0.44128854  1
  Zn  Zn160  1  0.93496635  0.18691729  0.93822256  1
  Zn  Zn161  1  0.93587114  0.67742357  0.43544299  1
  Zn  Zn162  1  0.93659760  0.68472099  0.93835078  1
  Zn  Zn163  1  0.06069484  0.31476499  0.06565328  1
  Zn  Zn164  1  0.06249975  0.31425281  0.56457630  1
  Zn  Zn165  1  0.06326657  0.80998819  0.05955223  1
  Zn  Zn166  1  0.06134409  0.80996073  0.56550508  1
  Zn  Zn167  1  0.55847217  0.31056286  0.06277251  1
  Zn  Zn168  1  0.56675965  0.31866240  0.56242479  1
  Zn  Zn169  1  0.56086907  0.81153685  0.06137084  1
  Zn  Zn170  1  0.55479712  0.81391724  0.56463987  1
  O  O171  1  0.11593639  0.11704485  0.12445679  1
  O  O172  1  0.11559562  0.11848823  0.62105532  1
  O  O173  1  0.11220931  0.63254358  0.12659182  1
  O  O174  1  0.11952166  0.61142832  0.62777193  1
  O  O175  1  0.62119375  0.11404166  0.12386040  1
  O  O176  1  0.63107311  0.11192017  0.63260905  1
  O  O177  1  0.61864317  0.61904431  0.11669308  1
  O  O178  1  0.62227552  0.61241505  0.62264997  1
  O  O179  1  0.38360954  0.38260701  0.38180161  1
  O  O180  1  0.38394170  0.37374471  0.88489129  1
  O  O181  1  0.37066006  0.88982025  0.38056507  1
  O  O182  1  0.38404777  0.87227512  0.88271434  1
  O  O183  1  0.82371821  0.38265458  0.38914350  1
  O  O184  1  0.88207314  0.37950779  0.87694876  1
  O  O185  1  0.87779403  0.87761675  0.38243665  1
  O  O186  1  0.88289920  0.87926106  0.87421998  1
  O  O187  1  0.25573829  0.01113550  0.37211600  1
  O  O188  1  0.24721596  0.00955142  0.86270094  1
  O  O189  1  0.26307484  0.50363876  0.36717518  1
  O  O190  1  0.25732976  0.50471468  0.87785986  1
  O  O191  1  0.75018323  0.00211310  0.36622952  1
  O  O192  1  0.75811014  0.00689866  0.87343992  1
  O  O193  1  0.73975910  0.51693504  0.35695711  1
  O  O194  1  0.75884173  0.50664075  0.87832904  1
  O  O195  1  0.25413588  0.49165525  0.13507139  1
  O  O196  1  0.23544520  0.50387919  0.62002799  1
  O  O197  1  0.24079886  0.99837060  0.13228448  1
  O  O198  1  0.24104752  1.00744448  0.63966527  1
  O  O199  1  0.73739654  0.49618997  0.12896476  1
  O  O200  1  0.73876429  0.49468701  0.62512779  1
  O  O201  1  0.74307527  0.99479596  0.12935548  1
  O  O202  1  0.73836762  0.99359111  0.62628663  1
  O  O203  1  -0.00222085  0.36072082  0.24463487  1
  O  O204  1  0.00640512  0.36820390  0.75722059  1
  O  O205  1  0.00534836  0.86960571  0.25647354  1
  O  O206  1  0.00733570  0.87038094  0.75942553  1
  O  O207  1  0.50709906  0.37371649  0.26003812  1
  O  O208  1  0.50950946  0.37025227  0.75757219  1
  O  O209  1  0.50464646  0.86625801  0.23983464  1
  O  O210  1  0.50990042  0.88156556  0.76425259  1
  O  O211  1  0.48557684  0.12520479  0.25043783  1
  O  O212  1  0.49251629  0.13545337  0.75805009  1
  O  O213  1  0.49509832  0.62977326  0.23956129  1
  O  O214  1  0.48724957  0.62424895  0.73429363  1
  O  O215  1  0.99431529  0.13006771  0.23977741  1
  O  O216  1  1.00792072  0.13422526  0.74237577  1
  O  O217  1  0.99606836  0.63063949  0.24161907  1
  O  O218  1  0.99057159  0.62309875  0.74276329  1
  O  O219  1  0.36199995  0.26047222  0.01117049  1
  O  O220  1  0.36896247  0.25911238  0.50298460  1
  O  O221  1  0.36724287  0.75673682  -0.00203110  1
  O  O222  1  0.37086356  0.76018132  0.50695813  1
  O  O223  1  0.87428884  0.25544902  0.01223559  1
  O  O224  1  0.87492986  0.25201292  0.51413808  1
  O  O225  1  0.87155183  0.75252246  0.00735690  1
  O  O226  1  0.88297650  0.76047372  0.49768190  1
  O  O227  1  0.13173315  0.24434249  0.50119678  1
  O  O228  1  0.13753638  0.25075184  1.00658074  1
  O  O229  1  0.13436861  0.75366673  0.49481561  1
  O  O230  1  0.13424466  0.75625894  0.98697730  1
  O  O231  1  0.62556314  0.25141944  0.48778128  1
  O  O232  1  0.62372157  0.25427913  0.98593424  1
  O  O233  1  0.62991523  0.79567957  0.48715662  1
  O  O234  1  0.62597554  0.73721392  0.99387244  1
  O  O235  1  0.48669842  0.24465389  0.12685451  1
  O  O236  1  0.50500366  0.25613961  0.63834492  1
  O  O237  1  0.49685283  0.74114160  0.13252338  1
  O  O238  1  0.49184799  0.74173494  0.62386467  1
  O  O239  1  0.99240590  0.24262030  0.13187152  1
  O  O240  1  0.99547587  0.24215776  0.63151014  1
  O  O241  1  0.99263057  0.74487807  0.12711448  1
  O  O242  1  1.00743176  0.72973403  0.62603545  1
  O  O243  1  -0.00636937  0.24141415  0.36062256  1
  O  O244  1  -0.00563549  0.25794911  0.86737392  1
  O  O245  1  0.00771718  0.75430429  0.37136190  1
  O  O246  1  0.00618293  0.75594688  0.87434606  1
  O  O247  1  0.50595320  0.25728708  0.37151355  1
  O  O248  1  0.50850560  0.26160547  0.86483221  1
  O  O249  1  0.50079116  0.74485137  0.35880118  1
  O  O250  1  0.51361411  0.75624691  0.87588658  1
  O  O251  1  0.24534014  0.12967175  0.49421695  1
  O  O252  1  0.24764894  0.13361459  0.99181188  1
  O  O253  1  0.24806522  0.63890236  0.49706358  1
  O  O254  1  0.25457192  0.63720438  0.99615086  1
  O  O255  1  0.75140204  0.12222161  0.49066238  1
  O  O256  1  0.75303879  0.12654640  0.98426266  1
  O  O257  1  0.75325535  0.62541780  0.48919746  1
  O  O258  1  0.74083409  0.62505951  0.98775611  1
  O  O259  1  0.25461072  0.37044909  0.00883810  1
  O  O260  1  0.26138233  0.36575154  0.49555214  1
  O  O261  1  0.25832025  0.86656503  -0.00504985  1
  O  O262  1  0.26414836  0.86982021  0.49852497  1
  O  O263  1  0.75534460  0.37089967  0.00668897  1
  O  O264  1  0.74399621  0.36435490  0.52450831  1
  O  O265  1  0.74971039  0.87298882  0.01087031  1
  O  O266  1  0.76328571  0.88274886  0.51722593  1
  O  O267  1  0.13941218  0.50584504  0.25449467  1
  O  O268  1  0.12170870  0.48571466  0.73837142  1
  O  O269  1  0.12842550  0.99613912  0.24543543  1
  O  O270  1  0.13254970  0.99131465  0.74641588  1
  O  O271  1  0.63053982  0.49064870  0.24266902  1
  O  O272  1  0.62500540  0.49074941  0.75462470  1
  O  O273  1  0.62956723  0.99617365  0.23754018  1
  O  O274  1  0.62744993  0.99102091  0.73860540  1
  O  O275  1  0.37117596  0.00515155  0.25674016  1
  O  O276  1  0.36901705  0.00798348  0.74694480  1
  O  O277  1  0.37007196  0.51143335  0.25544654  1
  O  O278  1  0.37825594  0.50737678  0.74475566  1
  O  O279  1  0.86419433  -0.00299997  0.25737314  1
  O  O280  1  0.87752169  -0.00344715  0.76218756  1
  O  O281  1  0.85731830  0.49861676  0.24259151  1
  O  O282  1  0.88107349  0.50678943  0.76320708  1
  O  O283  1  0.13614087  0.36798035  0.36588054  1
  O  O284  1  0.11410506  0.37802116  0.86301868  1
  O  O285  1  0.12044063  0.86765048  0.37224153  1
  O  O286  1  0.11784648  0.86816928  0.86433393  1
  O  O287  1  0.62161461  0.36886866  0.36853883  1
  O  O288  1  0.62069283  0.37143392  0.87070430  1
  O  O289  1  0.62443110  0.88434951  0.35162612  1
  O  O290  1  0.62210954  0.86839769  0.86956014  1
  O  O291  1  0.37362804  0.13249021  0.13355000  1
  O  O292  1  0.37524505  0.12855992  0.63709321  1
  O  O293  1  0.38241588  0.62542663  0.13153130  1
  O  O294  1  0.38266894  0.63111719  0.63083479  1
  O  O295  1  0.88014161  0.13071051  0.12584739  1
  O  O296  1  0.88746898  0.12830292  0.62183106  1
  O  O297  1  0.87740467  0.63618707  0.12452816  1
  O  O298  1  0.88198634  0.61660998  0.63569293  1
  O  O299  1  0.25684700  0.25619592  0.12224609  1
  O  O300  1  0.25326599  0.24365905  0.61384243  1
  O  O301  1  0.25180415  0.75462612  0.11479150  1
  O  O302  1  0.25933776  0.74799088  0.61493315  1
  O  O303  1  0.75566482  0.25343309  0.12623157  1
  O  O304  1  0.75991129  0.25257952  0.62980125  1
  O  O305  1  0.75575594  0.75774758  0.12416209  1
  O  O306  1  0.74644814  0.76291225  0.62809137  1
  O  O307  1  0.25371858  0.23712050  0.38408331  1
  O  O308  1  0.25893968  0.23991798  0.88556662  1
  O  O309  1  0.24358912  0.75249008  0.38463563  1
  O  O310  1  0.24080047  0.74305342  0.88011290  1
  O  O311  1  0.73993293  0.23225423  0.37380189  1
  O  O312  1  0.74509046  0.24133521  0.87601975  1
  O  O313  1  0.74440687  0.73699939  0.36651341  1
  O  O314  1  0.73788412  0.74297700  0.87656285  1
  O  O315  1  0.00125432  0.12137421  0.01095283  1
  O  O316  1  0.00553773  0.11808662  0.50724562  1
  O  O317  1  -0.00339950  0.61431403  0.00764194  1
  O  O318  1  0.00389935  0.61454223  0.50654941  1
  O  O319  1  0.48058415  0.11962262  -0.01118694  1
  O  O320  1  0.49318009  0.11289461  0.50280710  1
  O  O321  1  0.50414808  0.62866521  0.01092883  1
  O  O322  1  0.49608268  0.62773228  0.51150054  1
  O  O323  1  0.49423679  0.37220721  0.48780029  1
  O  O324  1  0.48902735  0.36783457  0.99145901  1
  O  O325  1  0.48419790  0.89073277  0.50198874  1
  O  O326  1  0.49374051  0.87186637  0.98648580  1
  O  O327  1  0.99937250  0.38624197  0.50127815  1
  O  O328  1  0.99388760  0.37748112  0.99333367  1
  O  O329  1  0.99479163  0.87959968  0.49771307  1
  O  O330  1  1.00079379  0.87944997  0.98669242  1
  O  O331  1  0.48955522  0.49325161  0.36802355  1
  O  O332  1  0.49657102  0.48864932  0.87232211  1
  O  O333  1  0.49266784  1.00452573  0.38910482  1
  O  O334  1  0.50107652  0.99719211  0.87714296  1
  O  O335  1  1.00569646  0.50491486  0.39100474  1
  O  O336  1  0.99301623  0.49095440  0.88190330  1
  O  O337  1  0.99427987  0.99269033  0.37958405  1
  O  O338  1  0.99578437  0.99365115  0.87836104  1
  O  O339  1  0.00149652  0.00618705  0.12137304  1
  O  O340  1  0.00665083  0.00587078  0.62371421  1
  O  O341  1  -0.00628596  0.50988038  0.11604448  1
  O  O342  1  0.00963423  0.50714991  0.61847408  1
  O  O343  1  0.51276316  0.00534576  0.12273247  1
  O  O344  1  0.51474114  -0.00116147  0.61719602  1
  O  O345  1  0.51160277  0.50710638  0.13113593  1
  O  O346  1  0.52060676  0.50685179  0.62045824  1
  O  O347  1  0.25567871  0.38660364  0.24198807  1
  O  O348  1  0.23560559  0.36600153  0.75451876  1
  O  O349  1  0.24391824  0.88224176  0.24781603  1
  O  O350  1  0.24325663  0.88398603  0.75702379  1
  O  O351  1  0.73972133  0.38468438  0.24160753  1
  O  O352  1  0.74159032  0.36975297  0.74134648  1
  O  O353  1  0.74372518  0.88358291  0.23836403  1
  O  O354  1  0.74462790  0.87879439  0.74034723  1
  O  O355  1  0.25753015  0.12147882  0.25713969  1
  O  O356  1  0.25989126  0.12316023  0.75863729  1
  O  O357  1  0.26018225  0.62134832  0.25127835  1
  O  O358  1  0.27247987  0.63032834  0.74771987  1
  O  O359  1  0.75014712  0.11144146  0.25437831  1
  O  O360  1  0.75209162  0.12092435  0.76702673  1
  O  O361  1  0.75006206  0.61131986  0.24108138  1
  O  O362  1  0.75452599  0.62639985  0.76116335  1
  O  O363  1  0.36828704  0.11719219  0.36991173  1
  O  O364  1  0.37315873  0.11777455  0.87327584  1
  O  O365  1  0.37642240  0.61918380  0.36755481  1
  O  O366  1  0.38358553  0.62223605  0.85653305  1
  O  O367  1  0.86401587  0.11363336  0.37417301  1
  O  O368  1  0.86723109  0.11640583  0.87756428  1
  O  O369  1  0.85735268  0.62708964  0.36874294  1
  O  O370  1  0.86593146  0.61665582  0.87142006  1
  O  O371  1  0.13635870  0.37088117  0.13481975  1
  O  O372  1  0.12331262  0.38437231  0.63626172  1
  O  O373  1  0.12285403  0.88348932  0.13045001  1
  O  O374  1  0.11930203  0.87976899  0.63936912  1
  O  O375  1  0.62486091  0.38062588  0.12995007  1
  O  O376  1  0.62925948  0.38857189  0.63372172  1
  O  O377  1  0.63019047  0.88393880  0.12794888  1
  O  O378  1  0.63367513  0.88131542  0.63279154  1
  O  O379  1  0.10605793  0.24542854  0.25114640  1
  O  O380  1  0.11476409  0.26278064  0.74280247  1
  O  O381  1  0.12148357  0.75710238  0.25832537  1
  O  O382  1  0.12619486  0.75611274  0.75568560  1
  O  O383  1  0.62386438  0.26088441  0.25538536  1
  O  O384  1  0.62090922  0.25931821  0.76108211  1
  O  O385  1  0.61538450  0.76105454  0.24532342  1
  O  O386  1  0.62846732  0.76166509  0.75616864  1
  O  O387  1  0.37231671  0.24339500  0.24492845  1
  O  O388  1  0.38585969  0.24342569  0.74854058  1
  O  O389  1  0.37884774  0.74096873  0.24836982  1
  O  O390  1  0.37422236  0.75005171  0.73963996  1
  O  O391  1  0.88135875  0.24779716  0.24060495  1
  O  O392  1  0.88867083  0.25172805  0.73924890  1
  O  O393  1  0.88277992  0.75099768  0.23994951  1
  O  O394  1  0.87785399  0.73379348  0.75751361  1
  O  O395  1  0.36980199  0.49440182  0.49050258  1
  O  O396  1  0.37578990  0.48827499  1.00398771  1
  O  O397  1  0.38053662  0.99817428  0.49656883  1
  O  O398  1  0.37077883  0.99652139  0.99463968  1
  O  O399  1  0.89199002  0.49542524  0.50572961  1
  O  O400  1  0.88013721  0.49282860  0.99014432  1
  O  O401  1  0.88349209  0.99182428  0.49475024  1
  O  O402  1  0.88366632  0.99514080  0.98984618  1
  O  O403  1  0.11846271  0.00140160  0.00577782  1
  O  O404  1  0.12095268  0.00274913  0.50715582  1
  O  O405  1  0.11006276  0.49008265  -0.00030945  1
  O  O406  1  0.11916065  0.49861039  0.51181767  1
  O  O407  1  0.62765182  -0.00151691  0.01277439  1
  O  O408  1  0.61370550  -0.00314210  0.50966017  1
  O  O409  1  0.62553784  0.51172429  0.00638920  1
  O  O410  1  0.63602265  0.49103925  0.50321531  1
  O  O411  1  0.37017138  0.36895099  0.12212392  1
  O  O412  1  0.38390616  0.37678554  0.61218790  1
  O  O413  1  0.37431002  0.87624250  0.10732393  1
  O  O414  1  0.37953701  0.86770421  0.62090821  1
  O  O415  1  0.86767679  0.36673021  0.11970763  1
  O  O416  1  0.86885844  0.36799381  0.62869760  1
  O  O417  1  0.86635677  0.86515102  0.12253280  1
  O  O418  1  0.86386225  0.87555651  0.62191214  1
  O  O419  1  0.13230955  0.12827248  0.38235313  1
  O  O420  1  0.13641186  0.12528940  0.87499789  1
  O  O421  1  0.12787882  0.64064175  0.37765611  1
  O  O422  1  0.12173657  0.63483110  0.86532600  1
  O  O423  1  0.63027794  0.13110290  0.36814913  1
  O  O424  1  0.63619518  0.13380267  0.87236142  1
  O  O425  1  0.63961181  0.63009940  0.37015982  1
  O  O426  1  0.62645540  0.62874444  0.87755193  1
