# generated using pymatgen
data_V85Zn86O256
_symmetry_space_group_name_H-M   'P 1'
_cell_length_a   16.93439290
_cell_length_b   16.93067406
_cell_length_c   16.93003178
_cell_angle_alpha   89.99717121
_cell_angle_beta   89.91575869
_cell_angle_gamma   89.97375738
_symmetry_Int_Tables_number   1
_chemical_formula_structural   V85Zn86O256
_chemical_formula_sum   'V85 Zn86 O256'
_cell_volume   4854.01527507
_cell_formula_units_Z   1
loop_
 _symmetry_equiv_pos_site_id
 _symmetry_equiv_pos_as_xyz
  1  'x, y, z'
loop_
 _atom_site_type_symbol
 _atom_site_label
 _atom_site_symmetry_multiplicity
 _atom_site_fract_x
 _atom_site_fract_y
 _atom_site_fract_z
 _atom_site_occupancy
  V  V0  1  0.36905051  0.87649955  0.50310280  1
  V  V1  1  0.50325004  0.37619310  0.87040523  1
  V  V2  1  0.00053868  0.87321920  0.87280879  1
  V  V3  1  0.87796232  0.23928146  0.62646074  1
  V  V4  1  0.62267129  0.62963606  -0.00645329  1
  V  V5  1  0.87220228  0.50473422  0.87434157  1
  V  V6  1  0.25218861  0.37645529  0.61960832  1
  V  V7  1  0.50554905  0.25201383  0.74802182  1
  V  V8  1  0.50550953  0.62480373  0.62157616  1
  V  V9  1  0.37860588  0.23172975  0.13181237  1
  V  V10  1  0.37882762  0.25364865  0.61686499  1
  V  V11  1  0.12631611  0.24939405  0.87491145  1
  V  V12  1  0.12173040  0.12541984  0.50782383  1
  V  V13  1  0.49786857  0.63019712  0.12793409  1
  V  V14  1  0.74380032  0.75233034  -0.00946014  1
  V  V15  1  0.25456153  0.37466951  0.12618795  1
  V  V16  1  0.87020477  0.74237231  0.12444214  1
  V  V17  1  0.24918840  0.49995049  0.25349881  1
  V  V18  1  0.62166632  0.49526779  0.13195355  1
  V  V19  1  0.88639124  0.36939306  0.49734502  1
  V  V20  1  0.25197324  0.24928221  0.00046646  1
  V  V21  1  0.25036747  0.62682560  0.87769941  1
  V  V22  1  0.74702347  0.37546849  0.13250079  1
  V  V23  1  -0.00168980  0.12939399  0.12750456  1
  V  V24  1  0.24809441  -0.01873432  0.24881165  1
  V  V25  1  0.37543044  0.49911941  0.87662596  1
  V  V26  1  0.61582716  0.86915624  0.25174668  1
  V  V27  1  0.12081139  0.49838657  0.12667394  1
  V  V28  1  0.11966960  0.62572213  -0.00219265  1
  V  V29  1  0.38058794  0.62798670  0.25930048  1
  V  V30  1  0.62823686  0.87031845  0.75103878  1
  V  V31  1  0.37634082  0.00393999  0.37167531  1
  V  V32  1  0.50786051  0.24567323  0.24688166  1
  V  V33  1  0.24869430  0.49996392  0.74891262  1
  V  V34  1  -0.00633923  0.25526778  0.25179430  1
  V  V35  1  -0.00217634  0.00150519  0.50168481  1
  V  V36  1  0.74878515  0.36999529  0.62037398  1
  V  V37  1  0.75295972  0.86984652  0.62252852  1
  V  V38  1  -0.00106333  0.37422250  0.87367957  1
  V  V39  1  0.11901907  0.25292434  0.37626021  1
  V  V40  1  0.36891301  0.87586273  0.00303350  1
  V  V41  1  -0.00029197  0.00234400  0.00143731  1
  V  V42  1  0.12117618  0.37368452  0.25293437  1
  V  V43  1  0.62902043  0.25949930  0.38015045  1
  V  V44  1  0.25434140  -0.00455926  0.73983292  1
  V  V45  1  0.85905499  0.62641195  0.25492230  1
  V  V46  1  0.87681432  0.86521408  0.49737040  1
  V  V47  1  0.01085781  0.86366278  0.36157332  1
  V  V48  1  0.74857286  0.12707480  0.38046230  1
  V  V49  1  0.62809652  0.25476200  0.87260831  1
  V  V50  1  0.12957789  0.87366680  0.74214071  1
  V  V51  1  0.23967769  0.75102680  0.50144185  1
  V  V52  1  0.74488944  0.49574354  0.74749105  1
  V  V53  1  0.37883639  -0.00011324  0.87371475  1
  V  V54  1  0.74855057  -0.00055310  0.24798209  1
  V  V55  1  0.25018666  0.12587749  0.36449646  1
  V  V56  1  0.12715746  -0.01166833  0.13068463  1
  V  V57  1  0.11528537  0.51138884  0.62051286  1
  V  V58  1  0.87383793  0.37444899  0.00590760  1
  V  V59  1  -0.00332831  0.74718756  0.73801962  1
  V  V60  1  0.49836805  0.48984512  0.50243563  1
  V  V61  1  0.04420070  0.68123761  0.18038157  1
  V  V62  1  0.37820914  0.12588147  0.74905277  1
  V  V63  1  0.25314043  0.24996729  0.49794897  1
  V  V64  1  0.87684395  0.62715473  0.73770121  1
  V  V65  1  0.23541451  0.62844249  0.38309062  1
  V  V66  1  -0.00195101  0.23386370  0.74799699  1
  V  V67  1  0.37077296  0.49271190  0.38413991  1
  V  V68  1  0.49977099  0.49925931  0.00081843  1
  V  V69  1  0.61924064  0.12681447  0.00339237  1
  V  V70  1  0.87162499  0.87826694  -0.00013725  1
  V  V71  1  0.61431648  0.00576197  0.12810140  1
  V  V72  1  0.50361832  0.00031701  0.49983010  1
  V  V73  1  0.12337956  0.37323622  0.74837632  1
  V  V74  1  0.75287341  0.25025276  0.00612677  1
  V  V75  1  0.74423201  0.74255147  0.48964052  1
  V  V76  1  0.50530477  0.86659366  0.87718047  1
  V  V77  1  0.87234893  0.12844513  0.24561052  1
  V  V78  1  0.37271925  0.75397214  0.62448711  1
  V  V79  1  0.75623659  0.12343604  0.86837586  1
  V  V80  1  0.37332937  0.75680165  0.13110429  1
  V  V81  1  0.87443698  0.50095879  0.37663661  1
  V  V82  1  0.37713069  0.62673036  0.74981591  1
  V  V83  1  0.12608468  0.12430619  0.00197243  1
  V  V84  1  -0.00227391  0.50134232  0.00262679  1
  Zn  Zn85  1  0.49700574  0.37387597  0.37222488  1
  Zn  Zn86  1  0.12486632  0.00041578  0.62407999  1
  Zn  Zn87  1  0.74609020  0.87514707  0.12477217  1
  Zn  Zn88  1  0.49683451  0.86532493  0.37420330  1
  Zn  Zn89  1  0.87905390  -0.00188802  0.37099631  1
  Zn  Zn90  1  0.73632138  0.49879997  0.26288803  1
  Zn  Zn91  1  0.75644020  0.00203331  0.74185591  1
  Zn  Zn92  1  0.62915363  0.12510184  0.50116114  1
  Zn  Zn93  1  0.50643436  0.74784671  0.75118662  1
  Zn  Zn94  1  0.00262281  0.50829533  0.49424792  1
  Zn  Zn95  1  0.37760176  0.37255491  0.00205851  1
  Zn  Zn96  1  0.62712529  0.00105162  0.62543131  1
  Zn  Zn97  1  0.50599883  0.12487040  0.62363038  1
  Zn  Zn98  1  0.88120692  0.00701404  0.86507846  1
  Zn  Zn99  1  0.25160893  0.12438340  0.87417084  1
  Zn  Zn100  1  0.63033466  0.61554635  0.48909406  1
  Zn  Zn101  1  0.24679115  0.75541335  0.00426669  1
  Zn  Zn102  1  0.12628747  0.75141381  0.87411683  1
  Zn  Zn103  1  0.62487638  0.49437720  0.62694961  1
  Zn  Zn104  1  0.61722109  0.73325377  0.36346701  1
  Zn  Zn105  1  0.74425823  0.63023990  0.86800092  1
  Zn  Zn106  1  0.49713858  0.00424724  0.00332613  1
  Zn  Zn107  1  0.18494259  0.18653980  0.18698779  1
  Zn  Zn108  1  0.19152207  0.18669436  0.68823976  1
  Zn  Zn109  1  0.20705551  0.69406286  0.19592361  1
  Zn  Zn110  1  0.18888819  0.69073287  0.68802058  1
  Zn  Zn111  1  0.68590751  0.18927873  0.18878821  1
  Zn  Zn112  1  0.68794722  0.18940560  0.68405262  1
  Zn  Zn113  1  0.68604086  0.68823713  0.18033580  1
  Zn  Zn114  1  0.69073838  0.69086460  0.68286901  1
  Zn  Zn115  1  0.31358591  0.31007782  0.30899308  1
  Zn  Zn116  1  0.31492510  0.31284828  0.81009507  1
  Zn  Zn117  1  0.31486577  0.81037551  0.31996882  1
  Zn  Zn118  1  0.31485375  0.81242845  0.81336479  1
  Zn  Zn119  1  0.81283003  0.31358437  0.31547966  1
  Zn  Zn120  1  0.81450450  0.31312054  0.81003612  1
  Zn  Zn121  1  0.81374365  0.81398340  0.31285764  1
  Zn  Zn122  1  0.81598035  0.81613545  0.81076661  1
  Zn  Zn123  1  0.18555502  0.43633054  0.44092538  1
  Zn  Zn124  1  0.18786671  0.43729596  0.93886749  1
  Zn  Zn125  1  0.18480472  0.93572708  0.43562215  1
  Zn  Zn126  1  0.18900371  0.94054150  0.93180979  1
  Zn  Zn127  1  0.69130812  0.43704849  0.44366266  1
  Zn  Zn128  1  0.68716383  0.43950276  0.93996797  1
  Zn  Zn129  1  0.68923653  0.93642005  0.43323363  1
  Zn  Zn130  1  0.68484687  0.94116590  0.93704657  1
  Zn  Zn131  1  0.30844774  0.05765989  0.06348827  1
  Zn  Zn132  1  0.31461220  0.06751037  0.55979924  1
  Zn  Zn133  1  0.31228015  0.56341467  0.06446969  1
  Zn  Zn134  1  0.31217997  0.56530046  0.56278960  1
  Zn  Zn135  1  0.80911651  0.06405281  0.06336421  1
  Zn  Zn136  1  0.81404727  0.05556590  0.56044584  1
  Zn  Zn137  1  0.80686754  0.56332986  0.06384455  1
  Zn  Zn138  1  0.81984174  0.56108192  0.55974443  1
  Zn  Zn139  1  0.43812814  0.43590208  0.19374090  1
  Zn  Zn140  1  0.43703391  0.43708082  0.68827135  1
  Zn  Zn141  1  0.43500482  0.94282501  0.18890312  1
  Zn  Zn142  1  0.44288503  0.93503311  0.68599522  1
  Zn  Zn143  1  0.93389466  0.44153909  0.18958681  1
  Zn  Zn144  1  0.93431276  0.43301193  0.68824527  1
  Zn  Zn145  1  0.93571354  0.93776837  0.18539645  1
  Zn  Zn146  1  0.93493310  0.93984927  0.68306626  1
  Zn  Zn147  1  0.06340518  0.05964638  0.31709015  1
  Zn  Zn148  1  0.06704110  0.05803254  0.81453723  1
  Zn  Zn149  1  0.05609481  0.55840954  0.31836521  1
  Zn  Zn150  1  0.06172612  0.56233453  0.81034803  1
  Zn  Zn151  1  0.56035266  0.06718113  0.31306043  1
  Zn  Zn152  1  0.56773314  0.06038977  0.81067318  1
  Zn  Zn153  1  0.55881437  0.56090015  0.31744924  1
  Zn  Zn154  1  0.56358582  0.56321468  0.81031315  1
  Zn  Zn155  1  0.44125543  0.18520071  0.43329296  1
  Zn  Zn156  1  0.43711124  0.18909156  0.93802450  1
  Zn  Zn157  1  0.44006874  0.68602392  0.43965373  1
  Zn  Zn158  1  0.43586721  0.69002436  0.94148132  1
  Zn  Zn159  1  0.93646264  0.18566281  0.43644503  1
  Zn  Zn160  1  0.93714839  0.19102755  0.93919713  1
  Zn  Zn161  1  0.94421260  0.68703098  0.43641901  1
  Zn  Zn162  1  0.93513429  0.68923370  0.93492296  1
  Zn  Zn163  1  0.06186345  0.31252242  0.06474878  1
  Zn  Zn164  1  0.06111471  0.31255037  0.56562330  1
  Zn  Zn165  1  0.06267861  0.81533634  0.05487256  1
  Zn  Zn166  1  0.05807860  0.81492901  0.56122371  1
  Zn  Zn167  1  0.56115140  0.31144737  0.06240868  1
  Zn  Zn168  1  0.56597945  0.31351781  0.55992265  1
  Zn  Zn169  1  0.55900152  0.81567083  0.06509876  1
  Zn  Zn170  1  0.56238665  0.81425077  0.56090310  1
  O  O171  1  0.11826804  0.11844763  0.11894987  1
  O  O172  1  0.13011931  0.12614223  0.61139488  1
  O  O173  1  0.11617773  0.62394614  0.12223796  1
  O  O174  1  0.13005906  0.60873207  0.63352793  1
  O  O175  1  0.63022704  0.11912651  0.11587355  1
  O  O176  1  0.62532654  0.12207341  0.61923872  1
  O  O177  1  0.61441794  0.61873426  0.11780554  1
  O  O178  1  0.61266024  0.62448982  0.62402356  1
  O  O179  1  0.36675058  0.38945473  0.37256799  1
  O  O180  1  0.38338481  0.38110820  0.87709721  1
  O  O181  1  0.37583834  0.88685816  0.38266730  1
  O  O182  1  0.38284737  0.88220050  0.88071704  1
  O  O183  1  0.87303291  0.37392826  0.39230601  1
  O  O184  1  0.87720037  0.38587410  0.88360683  1
  O  O185  1  0.87899269  0.87869678  0.38372133  1
  O  O186  1  0.88147534  0.87713407  0.88691330  1
  O  O187  1  0.25244337  0.00554246  0.36478746  1
  O  O188  1  0.26409780  0.00209873  0.86462729  1
  O  O189  1  0.25227790  0.50965751  0.37597713  1
  O  O190  1  0.25395904  0.50869038  0.87130502  1
  O  O191  1  0.74962652  0.00875724  0.36115627  1
  O  O192  1  0.75056235  0.01789062  0.87931009  1
  O  O193  1  0.76569206  0.48821025  0.37344579  1
  O  O194  1  0.75668153  0.50069881  0.86771446  1
  O  O195  1  0.24309061  0.49346660  0.13102093  1
  O  O196  1  0.24467974  0.49282958  0.62935856  1
  O  O197  1  0.24359436  1.00137976  0.14065039  1
  O  O198  1  0.25198733  1.00424457  0.63668336  1
  O  O199  1  0.73756943  0.49193497  0.12386853  1
  O  O200  1  0.75252414  0.48877370  0.63075563  1
  O  O201  1  0.74023592  1.00061814  0.13474245  1
  O  O202  1  0.74779600  0.98518396  0.62127161  1
  O  O203  1  0.00493373  0.36328277  0.24083655  1
  O  O204  1  0.00610787  0.36752676  0.75692721  1
  O  O205  1  -0.00435076  0.88241107  0.26280987  1
  O  O206  1  0.00470054  0.86608694  0.75577935  1
  O  O207  1  0.48939471  0.35570033  0.25525404  1
  O  O208  1  0.49791918  0.36874672  0.76208423  1
  O  O209  1  0.51308341  0.88051508  0.24991857  1
  O  O210  1  0.50880896  0.87281909  0.75869237  1
  O  O211  1  0.49572775  0.14479889  0.25543103  1
  O  O212  1  0.49523498  0.13341709  0.74979537  1
  O  O213  1  0.48719296  0.61745690  0.24239923  1
  O  O214  1  0.49431962  0.62652003  0.74343206  1
  O  O215  1  0.99342966  0.12992290  0.24529366  1
  O  O216  1  1.00562556  0.13473991  0.75607919  1
  O  O217  1  0.98827294  0.62207578  0.24307212  1
  O  O218  1  0.99466589  0.64000891  0.75806537  1
  O  O219  1  0.37182720  0.25107619  0.01282903  1
  O  O220  1  0.37307062  0.24513656  0.51008346  1
  O  O221  1  0.37299305  0.75888792  0.00971095  1
  O  O222  1  0.36851801  0.75797266  0.50645359  1
  O  O223  1  0.86536525  0.26201932  -0.00393366  1
  O  O224  1  0.88363017  0.25977094  0.51100231  1
  O  O225  1  0.86715791  0.75518834  0.00536692  1
  O  O226  1  0.86341720  0.76164289  0.49189273  1
  O  O227  1  0.12784672  0.24568416  0.49386079  1
  O  O228  1  0.13077923  0.24476201  0.99628804  1
  O  O229  1  0.14070519  0.75691243  0.51046882  1
  O  O230  1  0.12787449  0.74092468  0.99675597  1
  O  O231  1  0.62081959  0.24548050  0.48369918  1
  O  O232  1  0.63196663  0.24533576  0.99313229  1
  O  O233  1  0.63792485  0.74983975  0.49912161  1
  O  O234  1  0.63124964  0.74278643  1.00825744  1
  O  O235  1  0.48878288  0.25269823  0.13289114  1
  O  O236  1  0.49568735  0.25288315  0.63171604  1
  O  O237  1  0.49085537  0.73688717  0.12212332  1
  O  O238  1  0.49055837  0.74173123  0.62277816  1
  O  O239  1  1.00593415  0.23662754  0.13356503  1
  O  O240  1  0.98868606  0.25091316  0.63411862  1
  O  O241  1  0.99136120  0.74490419  0.11709312  1
  O  O242  1  0.99906515  0.75385367  0.63997391  1
  O  O243  1  0.00840158  0.24604089  0.36512681  1
  O  O244  1  0.00550337  0.25534713  0.86926527  1
  O  O245  1  -0.00602838  0.76421524  0.37040703  1
  O  O246  1  0.00173907  0.76350135  0.87300857  1
  O  O247  1  0.51033934  0.25234207  0.36762240  1
  O  O248  1  0.50673094  0.25711102  0.86926794  1
  O  O249  1  0.50453169  0.75240199  0.37913620  1
  O  O250  1  0.49435412  0.76282578  0.87386073  1
  O  O251  1  0.24221838  0.13136188  0.49047170  1
  O  O252  1  0.24343487  0.13075592  0.99921294  1
  O  O253  1  0.25077468  0.63211029  0.48966556  1
  O  O254  1  0.23831243  0.62268966  0.99446260  1
  O  O255  1  0.75314610  0.11920883  0.48317798  1
  O  O256  1  0.74287598  0.13470749  0.99388461  1
  O  O257  1  0.75170120  0.64002762  0.50740564  1
  O  O258  1  0.73919265  0.63346325  0.99797719  1
  O  O259  1  0.25113736  0.36820940  0.00908675  1
  O  O260  1  0.24670946  0.36731267  0.51286931  1
  O  O261  1  0.26434073  0.87609498  -0.00734231  1
  O  O262  1  0.26155070  0.86866686  0.49430668  1
  O  O263  1  0.75606410  0.36916960  0.00517710  1
  O  O264  1  0.76288657  0.37457649  0.51568651  1
  O  O265  1  0.75536121  0.87144527  0.00085769  1
  O  O266  1  0.75841882  0.86936021  0.50077131  1
  O  O267  1  0.12818897  0.49454780  0.24610455  1
  O  O268  1  0.13114667  0.49262401  0.74518661  1
  O  O269  1  0.13891580  1.00614111  0.24428453  1
  O  O270  1  0.13609404  0.99315295  0.74865357  1
  O  O271  1  0.62007220  0.49945536  0.23616079  1
  O  O272  1  0.64050879  0.50363385  0.74821391  1
  O  O273  1  0.62897186  0.99696653  0.24447025  1
  O  O274  1  0.63348793  0.98783882  0.74913723  1
  O  O275  1  0.35976975  -0.00301640  0.25738765  1
  O  O276  1  0.37296986  0.00368508  0.75436610  1
  O  O277  1  0.36629004  0.50794252  0.25746939  1
  O  O278  1  0.36837017  0.50624915  0.75663492  1
  O  O279  1  0.86528101  0.00836357  0.24854442  1
  O  O280  1  0.86973364  -0.00541633  0.75345962  1
  O  O281  1  0.86909866  0.51079901  0.25411994  1
  O  O282  1  0.87021724  0.50687527  0.75738914  1
  O  O283  1  0.13102031  0.36144107  0.36984241  1
  O  O284  1  0.12124777  0.36923149  0.86927160  1
  O  O285  1  0.11064311  0.87375604  0.37653400  1
  O  O286  1  0.11718021  0.87475554  0.86641266  1
  O  O287  1  0.62627810  0.36246248  0.37786187  1
  O  O288  1  0.62018577  0.36309418  0.87985147  1
  O  O289  1  0.62300201  0.87745830  0.35741026  1
  O  O290  1  0.61560567  0.88004829  0.86923527  1
  O  O291  1  0.37422781  0.13390553  0.12236303  1
  O  O292  1  0.37829125  0.13654152  0.63222202  1
  O  O293  1  0.38018597  0.63014750  0.13398097  1
  O  O294  1  0.38486347  0.62979336  0.63056533  1
  O  O295  1  0.88218625  0.12269306  0.13606075  1
  O  O296  1  0.86695909  0.14087837  0.61819832  1
  O  O297  1  0.87127268  0.63416955  0.13150763  1
  O  O298  1  0.87603310  0.62095982  0.63911805  1
  O  O299  1  0.26015978  0.25451333  0.12322617  1
  O  O300  1  0.25873937  0.25646189  0.62016406  1
  O  O301  1  0.26671205  0.74885670  0.12042023  1
  O  O302  1  0.26456632  0.74117978  0.61747990  1
  O  O303  1  0.74400044  0.25804491  0.11337603  1
  O  O304  1  0.76414425  0.26202568  0.63457346  1
  O  O305  1  0.75666063  0.75357913  0.11243780  1
  O  O306  1  0.74879608  0.76303434  0.61124301  1
  O  O307  1  0.24583109  0.24391386  0.37940977  1
  O  O308  1  0.24564332  0.24970895  0.88126806  1
  O  O309  1  0.25289902  0.73607856  0.38425554  1
  O  O310  1  0.25113296  0.73681811  0.87843417  1
  O  O311  1  0.73578975  0.24325537  0.36530624  1
  O  O312  1  0.74486440  0.24597389  0.88113334  1
  O  O313  1  0.74414677  0.75518280  0.38723415  1
  O  O314  1  0.75452393  0.74982124  0.88685414  1
  O  O315  1  0.00416017  0.12300597  0.00810409  1
  O  O316  1  0.00973726  0.11556576  0.49214660  1
  O  O317  1  0.01195786  0.61844204  -0.01033870  1
  O  O318  1  -0.01095737  0.61724133  0.50434374  1
  O  O319  1  0.51522980  0.12527165  -0.00688774  1
  O  O320  1  0.49978170  0.11142185  0.49994794  1
  O  O321  1  0.50316765  0.62003770  0.00781630  1
  O  O322  1  0.50011714  0.61143704  0.50885799  1
  O  O323  1  0.49899255  0.38549021  0.49882137  1
  O  O324  1  0.49897658  0.37951607  0.98869071  1
  O  O325  1  0.48906875  0.88518640  0.49876550  1
  O  O326  1  0.49151880  0.87953208  0.99290778  1
  O  O327  1  0.98868534  0.38192676  0.50667468  1
  O  O328  1  0.99196092  0.37761818  0.99483124  1
  O  O329  1  0.98949466  0.87708806  0.49224190  1
  O  O330  1  0.99215509  0.88182775  0.99221501  1
  O  O331  1  0.48817499  0.49472318  0.38329441  1
  O  O332  1  0.49765447  0.49285769  0.87832691  1
  O  O333  1  0.49009723  0.99886151  0.37917374  1
  O  O334  1  0.48996386  0.99370855  0.87433044  1
  O  O335  1  0.98263135  0.49372307  0.37317484  1
  O  O336  1  0.99282310  0.49323522  0.87997036  1
  O  O337  1  0.99998908  0.99230174  0.38521308  1
  O  O338  1  1.00051484  0.99041065  0.88240792  1
  O  O339  1  0.00642343  0.01091364  0.12215345  1
  O  O340  1  0.00502001  -0.00697227  0.60749006  1
  O  O341  1  0.00829488  0.49159190  0.11531192  1
  O  O342  1  0.01495834  0.49557324  0.63341416  1
  O  O343  1  0.50997924  0.00380333  0.12474488  1
  O  O344  1  0.50218798  0.00238669  0.61456841  1
  O  O345  1  0.50149449  0.50613204  0.12000106  1
  O  O346  1  0.50076763  0.50472740  0.62082272  1
  O  O347  1  0.24303784  0.37991036  0.24380024  1
  O  O348  1  0.24433739  0.37919884  0.74207050  1
  O  O349  1  0.24734962  0.88281122  0.25534438  1
  O  O350  1  0.24235249  0.88241934  0.75645829  1
  O  O351  1  0.75634335  0.37556151  0.23500819  1
  O  O352  1  0.76149822  0.38531332  0.73721739  1
  O  O353  1  0.74239090  0.88487292  0.24705037  1
  O  O354  1  0.74595040  0.87205184  0.74040293  1
  O  O355  1  0.24676400  0.12498131  0.26240697  1
  O  O356  1  0.26084724  0.11816103  0.75232240  1
  O  O357  1  0.25912275  0.61916473  0.26359300  1
  O  O358  1  0.25571718  0.62051913  0.75928709  1
  O  O359  1  0.75661707  0.12114535  0.25312058  1
  O  O360  1  0.74565363  0.12770551  0.76621118  1
  O  O361  1  0.75649529  0.61939499  0.24290604  1
  O  O362  1  0.75829996  0.62015513  0.74983250  1
  O  O363  1  0.36474634  0.11201650  0.38168063  1
  O  O364  1  0.37657888  0.11779615  0.86821082  1
  O  O365  1  0.36848614  0.61565258  0.37116447  1
  O  O366  1  0.36952189  0.61956203  0.87277210  1
  O  O367  1  0.86803129  0.12463321  0.36201996  1
  O  O368  1  0.85997909  0.12713724  0.88250473  1
  O  O369  1  0.87404407  0.61939076  0.35971126  1
  O  O370  1  0.87245534  0.61368208  0.87109617  1
  O  O371  1  0.13666575  0.37601559  0.13090646  1
  O  O372  1  0.13365119  0.37768922  0.63321483  1
  O  O373  1  0.11815107  0.88927375  0.12086908  1
  O  O374  1  0.12279860  0.87675341  0.63890435  1
  O  O375  1  0.63291833  0.38407010  0.11594435  1
  O  O376  1  0.64383844  0.37126205  0.62326375  1
  O  O377  1  0.62429756  0.88541465  0.13428695  1
  O  O378  1  0.63199635  0.87695381  0.63205018  1
  O  O379  1  0.11663506  0.25287417  0.25717657  1
  O  O380  1  0.12036580  0.25385845  0.75450208  1
  O  O381  1  0.10738631  0.73547463  0.23401831  1
  O  O382  1  0.11588414  0.75503573  0.75289031  1
  O  O383  1  0.61431068  0.25039317  0.25650119  1
  O  O384  1  0.61350024  0.24735024  0.75726279  1
  O  O385  1  0.63027185  0.76610270  0.24465045  1
  O  O386  1  0.62521018  0.76317539  0.74738791  1
  O  O387  1  0.37819224  0.24778050  0.23610843  1
  O  O388  1  0.38652210  0.24541993  0.74431389  1
  O  O389  1  0.36966668  0.74064580  0.24484719  1
  O  O390  1  0.37740037  0.74421669  0.74218169  1
  O  O391  1  0.88444722  0.24420212  0.25281214  1
  O  O392  1  0.88513999  0.25246130  0.73841781  1
  O  O393  1  0.86580737  0.73810546  0.24016232  1
  O  O394  1  0.88831541  0.74289533  0.75640663  1
  O  O395  1  0.38094365  0.50333144  0.49368462  1
  O  O396  1  0.38181237  0.49923349  0.99429228  1
  O  O397  1  0.37765900  0.99371548  0.49386998  1
  O  O398  1  0.37655447  0.99565897  0.99262782  1
  O  O399  1  0.87547051  0.48691724  0.49361935  1
  O  O400  1  0.87674889  0.49695355  0.99338318  1
  O  O401  1  0.88246385  0.99050478  0.49368132  1
  O  O402  1  0.88062558  0.99316528  1.00154496  1
  O  O403  1  0.12151799  0.00631530  0.00597764  1
  O  O404  1  0.12121923  0.00903235  0.50071101  1
  O  O405  1  0.12089094  0.50678521  0.00704628  1
  O  O406  1  0.12202322  0.49450266  0.51622907  1
  O  O407  1  0.62433583  0.00932769  0.00990364  1
  O  O408  1  0.61505672  -0.00086498  0.49647555  1
  O  O409  1  0.61770676  0.50848344  0.00770253  1
  O  O410  1  0.61636863  0.49854599  0.50652806  1
  O  O411  1  0.36264403  0.37414947  0.12504182  1
  O  O412  1  0.36503793  0.36463413  0.63299169  1
  O  O413  1  0.38369987  0.86783519  0.11738147  1
  O  O414  1  0.37862496  0.86526353  0.61752953  1
  O  O415  1  0.86597307  0.38351703  0.11136913  1
  O  O416  1  0.87069633  0.36770318  0.61608656  1
  O  O417  1  0.87498282  0.86539647  0.11379846  1
  O  O418  1  0.86962879  0.87607528  0.60586174  1
  O  O419  1  0.13168915  0.13599935  0.38138829  1
  O  O420  1  0.12753902  0.13040365  0.88516459  1
  O  O421  1  0.13732065  0.62175411  0.36944567  1
  O  O422  1  0.13385199  0.62410125  0.88157464  1
  O  O423  1  0.63334876  0.13450691  0.37447948  1
  O  O424  1  0.63434170  0.13582326  0.88125955  1
  O  O425  1  0.63055785  0.62072584  0.37485364  1
  O  O426  1  0.62325239  0.62294847  0.88911981  1
