# generated using pymatgen
data_V85Zn86O256
_symmetry_space_group_name_H-M   'P 1'
_cell_length_a   16.91815991
_cell_length_b   16.91260980
_cell_length_c   16.91827491
_cell_angle_alpha   90.03674312
_cell_angle_beta   90.00331577
_cell_angle_gamma   89.96893217
_symmetry_Int_Tables_number   1
_chemical_formula_structural   V85Zn86O256
_chemical_formula_sum   'V85 Zn86 O256'
_cell_volume   4840.82829425
_cell_formula_units_Z   1
loop_
 _symmetry_equiv_pos_site_id
 _symmetry_equiv_pos_as_xyz
  1  'x, y, z'
loop_
 _atom_site_type_symbol
 _atom_site_label
 _atom_site_symmetry_multiplicity
 _atom_site_fract_x
 _atom_site_fract_y
 _atom_site_fract_z
 _atom_site_occupancy
  V  V0  1  0.50257507  0.75180470  0.24944093  1
  V  V1  1  0.00415852  0.12101108  0.12580221  1
  V  V2  1  0.00103498  0.87527416  0.37503867  1
  V  V3  1  0.62579291  0.25444931  0.37872409  1
  V  V4  1  0.87205827  -0.00204648  0.37387210  1
  V  V5  1  -0.00239397  0.25336582  0.25351339  1
  V  V6  1  0.87778684  0.75229863  0.12339720  1
  V  V7  1  0.24666095  0.87815706  0.11456126  1
  V  V8  1  0.75252134  0.87526433  0.63047116  1
  V  V9  1  -0.00964148  0.37755846  0.87713587  1
  V  V10  1  0.25200083  0.63008705  0.38121878  1
  V  V11  1  0.36866512  0.49309190  0.87469623  1
  V  V12  1  -0.01670725  -0.00649406  0.00199755  1
  V  V13  1  0.37810140  -0.00175504  0.88517445  1
  V  V14  1  0.11561498  0.50176473  0.62585309  1
  V  V15  1  0.72597020  0.03359654  0.77227114  1
  V  V16  1  0.75308728  0.50541376  0.76453858  1
  V  V17  1  0.12356462  0.62678574  0.50443657  1
  V  V18  1  0.62613350  0.50030249  0.12633377  1
  V  V19  1  -0.00787468  0.25296699  0.74696773  1
  V  V20  1  0.75126176  0.74986993  0.50049730  1
  V  V21  1  0.62140888  0.37664598  0.25298878  1
  V  V22  1  0.37606617  0.12342593  0.24815384  1
  V  V23  1  0.88002009  0.11534732  0.76361704  1
  V  V24  1  0.12190532  0.37623322  0.25718000  1
  V  V25  1  0.49812315  0.62377621  0.62598531  1
  V  V26  1  0.24984694  0.88085862  0.62797200  1
  V  V27  1  0.13734304  0.62614921  -0.00605788  1
  V  V28  1  0.37939226  0.49460768  0.37506458  1
  V  V29  1  0.37607415  -0.00168377  0.37382139  1
  V  V30  1  0.62838419  0.50002019  0.62807984  1
  V  V31  1  0.36605240  0.74586028  0.61999378  1
  V  V32  1  0.37655070  0.36964751  0.50300595  1
  V  V33  1  0.62896676  0.88720421  0.25129291  1
  V  V34  1  0.61907075  0.37432978  0.76214871  1
  V  V35  1  0.24872628  0.12874163  0.37419136  1
  V  V36  1  0.87850322  0.37127090  0.48605923  1
  V  V37  1  0.37688112  0.75698639  0.11711508  1
  V  V38  1  0.50133819  0.49087268  -0.00625421  1
  V  V39  1  -0.00845610  0.87906927  0.87458757  1
  V  V40  1  0.37579692  0.24848072  0.12527918  1
  V  V41  1  0.87932469  0.73887447  0.62412741  1
  V  V42  1  0.62170035  0.86867589  0.74980880  1
  V  V43  1  0.25104351  0.37128999  0.62666934  1
  V  V44  1  0.50194008  0.49510042  0.49813932  1
  V  V45  1  0.86892878  0.12224420  0.24739995  1
  V  V46  1  0.24902946  0.37480666  0.12321985  1
  V  V47  1  0.49692567  0.13930966  0.62373932  1
  V  V48  1  0.37634999  0.62576753  0.24959375  1
  V  V49  1  0.63109444  0.62250019  -0.00935455  1
  V  V50  1  0.75637459  0.61746263  0.37496847  1
  V  V51  1  0.87583523  0.62379347  0.76820028  1
  V  V52  1  0.49667773  0.74953554  0.75004890  1
  V  V53  1  0.75411707  0.74827701  -0.00497996  1
  V  V54  1  0.62774077  0.74952738  0.37342655  1
  V  V55  1  0.36519992  0.62667549  0.75916744  1
  V  V56  1  0.87924161  0.61783652  0.25037202  1
  V  V57  1  0.62598616  0.00195692  0.10583781  1
  V  V58  1  0.25095641  0.50097528  0.24954823  1
  V  V59  1  0.37089126  0.12108478  0.74364313  1
  V  V60  1  0.74005658  0.23878855  -0.01860431  1
  V  V61  1  -0.00569963  0.50170112  0.48634949  1
  V  V62  1  0.62500233  0.12614538  0.50281173  1
  V  V63  1  0.12292334  0.37508320  0.75285045  1
  V  V64  1  -0.00840002  0.50594796  -0.00164757  1
  V  V65  1  0.24570171  0.24745827  -0.00051654  1
  V  V66  1  0.12455503  0.12667408  0.50102333  1
  V  V67  1  0.37021805  0.86973665  0.49783860  1
  V  V68  1  0.24151347  -0.00176549  0.24632918  1
  V  V69  1  0.50134064  0.25019271  0.25339985  1
  V  V70  1  0.12433811  0.11258412  0.00187124  1
  V  V71  1  0.00336819  0.74935600  0.74794908  1
  V  V72  1  -0.00949755  0.12827590  0.62141042  1
  V  V73  1  0.75495760  0.87842789  0.12411296  1
  V  V74  1  0.50441779  0.12004771  0.11312696  1
  V  V75  1  0.75089134  0.36864795  0.12357211  1
  V  V76  1  0.24770989  0.11865272  0.86873651  1
  V  V77  1  0.12853585  0.75186262  0.37665471  1
  V  V78  1  0.50261420  0.62460736  0.12389892  1
  V  V79  1  0.76024383  0.37031784  0.63110860  1
  V  V80  1  0.74858146  0.11992139  0.37466505  1
  V  V81  1  0.62080389  -0.00136263  0.62413789  1
  V  V82  1  0.49838228  0.87643472  0.88783466  1
  V  V83  1  0.49364749  0.25616430  0.76819300  1
  V  V84  1  0.12693699  0.00344483  0.63364792  1
  Zn  Zn85  1  0.62727184  0.62390259  0.50052753  1
  Zn  Zn86  1  0.00228348  0.74980339  0.24876548  1
  Zn  Zn87  1  0.37899651  0.36880167  -0.00598916  1
  Zn  Zn88  1  0.87122238  0.37509972  -0.00201987  1
  Zn  Zn89  1  0.87395296  0.24921274  0.11953281  1
  Zn  Zn90  1  0.50043481  0.87494294  0.37644961  1
  Zn  Zn91  1  -0.00133911  0.00017261  0.50076258  1
  Zn  Zn92  1  0.12459104  0.87526989  0.24597953  1
  Zn  Zn93  1  0.62778718  0.74640394  0.87363431  1
  Zn  Zn94  1  0.49678124  -0.00018358  0.50198961  1
  Zn  Zn95  1  0.24292317  0.50378345  0.75424966  1
  Zn  Zn96  1  0.13250752  0.75195680  0.87352116  1
  Zn  Zn97  1  0.87655244  0.87530281  0.50265160  1
  Zn  Zn98  1  0.12032509  0.25523633  0.37900518  1
  Zn  Zn99  1  0.75579939  0.49451584  0.25422616  1
  Zn  Zn100  1  0.00498910  0.62816614  0.12519021  1
  Zn  Zn101  1  0.75638210  0.24579174  0.51051550  1
  Zn  Zn102  1  0.12176637  0.24814558  0.87713431  1
  Zn  Zn103  1  0.12937646  0.87908501  0.75419098  1
  Zn  Zn104  1  0.25256423  0.24973347  0.50421113  1
  Zn  Zn105  1  0.12535871  0.50334904  0.12401118  1
  Zn  Zn106  1  0.26015035  0.75075565  -0.01148486  1
  Zn  Zn107  1  0.18379093  0.18826705  0.18776061  1
  Zn  Zn108  1  0.18350173  0.19126441  0.68838639  1
  Zn  Zn109  1  0.18859198  0.68973852  0.18429072  1
  Zn  Zn110  1  0.18757060  0.68945771  0.68500997  1
  Zn  Zn111  1  0.68685350  0.18475067  0.18555239  1
  Zn  Zn112  1  0.68013186  0.18732188  0.70690382  1
  Zn  Zn113  1  0.69192759  0.68808482  0.18686843  1
  Zn  Zn114  1  0.69185616  0.68510963  0.68833880  1
  Zn  Zn115  1  0.31224945  0.31370244  0.31297939  1
  Zn  Zn116  1  0.31076386  0.30968969  0.81167297  1
  Zn  Zn117  1  0.31134070  0.81206683  0.30751583  1
  Zn  Zn118  1  0.31132838  0.81651497  0.81202257  1
  Zn  Zn119  1  0.80846715  0.30681202  0.31108841  1
  Zn  Zn120  1  0.81304316  0.31030874  0.81061816  1
  Zn  Zn121  1  0.81314993  0.81012036  0.30753416  1
  Zn  Zn122  1  0.81403707  0.81289119  0.81214065  1
  Zn  Zn123  1  0.18978587  0.44145630  0.43889762  1
  Zn  Zn124  1  0.18480351  0.43991737  0.93813258  1
  Zn  Zn125  1  0.18923133  0.94020686  0.44140022  1
  Zn  Zn126  1  0.18623004  0.93661157  0.93289788  1
  Zn  Zn127  1  0.69133882  0.43488740  0.44171587  1
  Zn  Zn128  1  0.68876689  0.43289158  0.94063396  1
  Zn  Zn129  1  0.68870069  0.93699959  0.44015373  1
  Zn  Zn130  1  0.69121938  0.93088627  0.93614454  1
  Zn  Zn131  1  0.31203013  0.06104087  0.06213562  1
  Zn  Zn132  1  0.31239244  0.06223106  0.56101915  1
  Zn  Zn133  1  0.31608257  0.56183222  0.06235656  1
  Zn  Zn134  1  0.30806814  0.55710773  0.56509756  1
  Zn  Zn135  1  0.80766473  0.06546709  0.06127556  1
  Zn  Zn136  1  0.80860994  0.05797144  0.56501199  1
  Zn  Zn137  1  0.81232032  0.56249338  0.06644332  1
  Zn  Zn138  1  0.81378055  0.55977796  0.56399893  1
  Zn  Zn139  1  0.43892509  0.43547030  0.18501090  1
  Zn  Zn140  1  0.43581222  0.43721691  0.68849631  1
  Zn  Zn141  1  0.43933954  0.93707138  0.18496616  1
  Zn  Zn142  1  0.43577285  0.93926743  0.68944326  1
  Zn  Zn143  1  0.93899734  0.43829878  0.18366557  1
  Zn  Zn144  1  0.93753497  0.44464002  0.68725339  1
  Zn  Zn145  1  0.93805184  0.93859497  0.18914697  1
  Zn  Zn146  1  0.93800591  0.93914300  0.68898184  1
  Zn  Zn147  1  0.05963533  0.06387270  0.31406203  1
  Zn  Zn148  1  0.05883766  0.06080090  0.81581874  1
  Zn  Zn149  1  0.06396242  0.56358761  0.31211269  1
  Zn  Zn150  1  0.05894802  0.56523685  0.81583636  1
  Zn  Zn151  1  0.56045652  0.06539164  0.31168175  1
  Zn  Zn152  1  0.55383843  0.06278098  0.81099467  1
  Zn  Zn153  1  0.56419961  0.56342963  0.31434843  1
  Zn  Zn154  1  0.55717113  0.55969912  0.81287378  1
  Zn  Zn155  1  0.43944894  0.18735339  0.43642871  1
  Zn  Zn156  1  0.43255378  0.18390809  0.93812688  1
  Zn  Zn157  1  0.44082197  0.68509902  0.43874761  1
  Zn  Zn158  1  0.44210402  0.68284777  0.93590829  1
  Zn  Zn159  1  0.93605372  0.18999509  0.43663567  1
  Zn  Zn160  1  0.93439572  0.19115475  0.94022763  1
  Zn  Zn161  1  0.93960743  0.68782722  0.43703836  1
  Zn  Zn162  1  0.94328725  0.69406750  0.93956241  1
  Zn  Zn163  1  0.06234035  0.31111166  0.06482934  1
  Zn  Zn164  1  0.05893935  0.31343544  0.56271808  1
  Zn  Zn165  1  0.06491549  0.81283084  0.05962439  1
  Zn  Zn166  1  0.06312689  0.81354499  0.56108133  1
  Zn  Zn167  1  0.56622971  0.30854814  0.06215606  1
  Zn  Zn168  1  0.56697970  0.31676356  0.56660096  1
  Zn  Zn169  1  0.56881732  0.81141224  0.06368549  1
  Zn  Zn170  1  0.55755011  0.81142038  0.55982577  1
  O  O171  1  0.11230484  0.12617306  0.11902797  1
  O  O172  1  0.11893029  0.12097199  0.61907057  1
  O  O173  1  0.12442319  0.62428421  0.11420583  1
  O  O174  1  0.13023518  0.61831118  0.61224140  1
  O  O175  1  0.62009719  0.10834070  0.13096704  1
  O  O176  1  0.61772756  0.11809183  0.62332470  1
  O  O177  1  0.62122037  0.61846877  0.12028433  1
  O  O178  1  0.62179501  0.61425179  0.62494587  1
  O  O179  1  0.36947967  0.38868869  0.38202243  1
  O  O180  1  0.37257730  0.38775827  0.87504527  1
  O  O181  1  0.37310674  0.88070303  0.38013269  1
  O  O182  1  0.38245229  0.89150079  0.86633016  1
  O  O183  1  0.86458510  0.37624511  0.38787146  1
  O  O184  1  0.88711944  0.37567995  0.87336773  1
  O  O185  1  0.88050565  0.88139616  0.37340207  1
  O  O186  1  0.89152061  0.87106310  0.87327452  1
  O  O187  1  0.25781311  0.00920353  0.36914718  1
  O  O188  1  0.26038855  0.00988036  0.87634365  1
  O  O189  1  0.25830837  0.51024492  0.36956375  1
  O  O190  1  0.26354120  0.49936128  0.87477230  1
  O  O191  1  0.75432778  0.01125546  0.37817999  1
  O  O192  1  0.75098078  -0.01170912  0.85807274  1
  O  O193  1  0.74384815  0.51384337  0.37529293  1
  O  O194  1  0.74777131  0.49660877  0.86355075  1
  O  O195  1  0.25246039  0.49077680  0.13083138  1
  O  O196  1  0.23480514  0.48910628  0.62658874  1
  O  O197  1  0.25703995  0.98760226  0.13199330  1
  O  O198  1  0.24050281  0.99370741  0.61931505  1
  O  O199  1  0.74242920  0.48802861  0.12703832  1
  O  O200  1  0.74424444  0.49328384  0.63342953  1
  O  O201  1  0.73702710  0.99330863  0.12148622  1
  O  O202  1  0.73604717  0.99504333  0.63689073  1
  O  O203  1  0.00972905  0.36686906  0.24238153  1
  O  O204  1  0.00301705  0.37143605  0.75478689  1
  O  O205  1  0.00528575  0.87568058  0.26200820  1
  O  O206  1  0.00157779  0.87024258  0.75909297  1
  O  O207  1  0.51249388  0.36661506  0.24619698  1
  O  O208  1  0.50216866  0.36419875  0.74737254  1
  O  O209  1  0.50940152  0.86794894  0.25284314  1
  O  O210  1  0.50525807  0.86766139  0.75280753  1
  O  O211  1  0.49404750  0.13164353  0.24271277  1
  O  O212  1  0.49089989  0.13833279  0.74363566  1
  O  O213  1  0.49685998  0.63147122  0.24482133  1
  O  O214  1  0.48948848  0.62944577  0.74425965  1
  O  O215  1  0.99301386  0.12840824  0.24230238  1
  O  O216  1  0.99323652  0.13036079  0.74360930  1
  O  O217  1  0.99381099  0.62752837  0.24803997  1
  O  O218  1  0.98746278  0.63387750  0.75398675  1
  O  O219  1  0.36512142  0.24976684  0.00678014  1
  O  O220  1  0.37607529  0.26601939  0.49192443  1
  O  O221  1  0.37837817  0.74114750  0.01373303  1
  O  O222  1  0.38013220  0.75641120  0.50742356  1
  O  O223  1  0.86234639  0.25424370  0.00148407  1
  O  O224  1  0.87473813  0.26559630  0.49950451  1
  O  O225  1  0.86877131  0.74328737  0.01349323  1
  O  O226  1  0.87115763  0.75239539  0.50777883  1
  O  O227  1  0.12629806  0.24061914  0.49801379  1
  O  O228  1  0.13027245  0.23878149  0.99962335  1
  O  O229  1  0.11962259  0.73928049  0.48927535  1
  O  O230  1  0.12592867  0.73546448  0.99921120  1
  O  O231  1  0.62649977  0.24671262  0.49318154  1
  O  O232  1  0.64017612  0.25150785  1.00092075  1
  O  O233  1  0.62960545  0.74837012  0.49111493  1
  O  O234  1  0.63390212  0.73874901  1.00075370  1
  O  O235  1  0.49828312  0.24295153  0.13546024  1
  O  O236  1  0.50158492  0.24121541  0.62590218  1
  O  O237  1  0.49653996  0.74678689  0.13049497  1
  O  O238  1  0.48941077  0.74372255  0.62947978  1
  O  O239  1  0.99695294  0.24007520  0.13334101  1
  O  O240  1  1.00558910  0.24077311  0.63449291  1
  O  O241  1  0.99203946  0.75232873  0.12705993  1
  O  O242  1  0.99003497  0.75971530  0.63439411  1
  O  O243  1  0.00185200  0.24376838  0.35868432  1
  O  O244  1  0.00230115  0.25909034  0.86935226  1
  O  O245  1  0.00869845  0.75826072  0.37303577  1
  O  O246  1  0.00501522  0.76145517  0.86803317  1
  O  O247  1  0.50943922  0.24367164  0.36191702  1
  O  O248  1  0.49683133  0.24846067  0.86677773  1
  O  O249  1  0.51025913  0.74989150  0.36958267  1
  O  O250  1  0.49946038  0.75756388  0.86691075  1
  O  O251  1  0.24481014  0.12870801  0.49186923  1
  O  O252  1  0.24182353  0.12732426  0.99487810  1
  O  O253  1  0.23981864  0.61635591  0.49051135  1
  O  O254  1  0.24034254  0.62573073  1.00358188  1
  O  O255  1  0.74340147  0.12713317  0.49599181  1
  O  O256  1  0.75021694  0.13916286  0.99890322  1
  O  O257  1  0.75026971  0.63011657  0.49318485  1
  O  O258  1  0.74095404  0.63200308  1.00713423  1
  O  O259  1  0.24856701  0.36758733  0.00735938  1
  O  O260  1  0.25750326  0.37518405  0.50702437  1
  O  O261  1  0.25003279  0.87678448  0.01156476  1
  O  O262  1  0.26253828  0.87762402  0.50788640  1
  O  O263  1  0.75131103  0.36727502  0.00818194  1
  O  O264  1  0.76281403  0.37673035  0.51319294  1
  O  O265  1  0.74355880  0.86451067  0.01475560  1
  O  O266  1  0.75026239  0.87045227  0.51394790  1
  O  O267  1  0.13135466  0.49392921  0.24689307  1
  O  O268  1  0.12134104  0.49583679  0.74376978  1
  O  O269  1  0.13853141  1.00090641  0.25496440  1
  O  O270  1  0.12130974  1.00205858  0.73745506  1
  O  O271  1  0.62541197  0.49119793  0.24720193  1
  O  O272  1  0.63058028  0.49798532  0.74447776  1
  O  O273  1  0.62400370  0.98864347  0.25367287  1
  O  O274  1  0.62340285  0.98123071  0.74195605  1
  O  O275  1  0.36745724  0.00336190  0.25665978  1
  O  O276  1  0.37906730  0.01622227  0.75678043  1
  O  O277  1  0.37413541  0.50376034  0.25792184  1
  O  O278  1  0.37396248  0.50623534  0.76105017  1
  O  O279  1  0.87875295  0.00915459  0.26335026  1
  O  O280  1  0.87067245  0.01348177  0.74812310  1
  O  O281  1  0.87436168  0.51252971  0.24566835  1
  O  O282  1  0.87011087  0.51616963  0.74826551  1
  O  O283  1  0.13478301  0.37414620  0.36155873  1
  O  O284  1  0.11843311  0.37594791  0.86380521  1
  O  O285  1  0.12136142  0.86834513  0.37759204  1
  O  O286  1  0.11414116  0.87455877  0.87104708  1
  O  O287  1  0.63224280  0.36274571  0.37030517  1
  O  O288  1  0.62260431  0.38315962  0.86111645  1
  O  O289  1  0.62729262  0.86589944  0.36940834  1
  O  O290  1  0.61620176  0.87117688  0.86511381  1
  O  O291  1  0.38193576  0.12831410  0.13006438  1
  O  O292  1  0.38376005  0.12083258  0.63037636  1
  O  O293  1  0.38264072  0.63044449  0.13184452  1
  O  O294  1  0.37671159  0.62978709  0.62859769  1
  O  O295  1  0.88261105  0.12328257  0.13345998  1
  O  O296  1  0.88904160  0.12047806  0.62134568  1
  O  O297  1  0.87757109  0.63260985  0.13363133  1
  O  O298  1  0.87192825  0.63667769  0.62995035  1
  O  O299  1  0.25436060  0.25431554  0.12053629  1
  O  O300  1  0.24422638  0.26573162  0.62368190  1
  O  O301  1  0.26048105  0.76173040  0.12286777  1
  O  O302  1  0.26119696  0.75700837  0.62322353  1
  O  O303  1  0.74925608  0.26019408  0.12585639  1
  O  O304  1  0.74004056  0.26835112  0.62874844  1
  O  O305  1  0.75650916  0.75719095  0.11791707  1
  O  O306  1  0.75643351  0.75620158  0.61912224  1
  O  O307  1  0.24919435  0.23730786  0.37400248  1
  O  O308  1  0.24855902  0.23809673  0.88261423  1
  O  O309  1  0.24652866  0.73831779  0.37273591  1
  O  O310  1  0.24747524  0.75502386  0.87653050  1
  O  O311  1  0.74204154  0.23745776  0.37949148  1
  O  O312  1  0.74717413  0.25218449  0.88129075  1
  O  O313  1  0.74466566  0.74456774  0.38046472  1
  O  O314  1  0.74906957  0.75779317  0.89070865  1
  O  O315  1  0.00303188  0.11571278  0.00553649  1
  O  O316  1  0.00721987  0.12619329  0.50498732  1
  O  O317  1  0.00637800  0.61575416  0.00049171  1
  O  O318  1  0.00693606  0.61144949  0.49556920  1
  O  O319  1  0.49925321  0.13081698  0.01401813  1
  O  O320  1  0.50501204  0.12285340  0.50731427  1
  O  O321  1  0.50937605  0.61483370  0.00644411  1
  O  O322  1  0.50265344  0.61267813  0.50749769  1
  O  O323  1  0.49374723  0.38718147  0.50753622  1
  O  O324  1  0.49790504  0.38683561  1.01014727  1
  O  O325  1  0.48650448  0.87864908  0.49696886  1
  O  O326  1  0.50494276  0.86872548  0.98701686  1
  O  O327  1  0.98662620  0.38284421  0.50165116  1
  O  O328  1  1.00097729  0.38390925  0.99362802  1
  O  O329  1  0.99800244  0.87760975  0.48750175  1
  O  O330  1  1.00305247  0.88707612  0.99311515  1
  O  O331  1  0.49204422  0.50562433  0.38517699  1
  O  O332  1  0.48824679  0.50108472  0.88443498  1
  O  O333  1  0.48650100  0.99958599  0.37434939  1
  O  O334  1  0.48882395  0.99410688  0.87212504  1
  O  O335  1  1.00435400  0.49737836  0.38781125  1
  O  O336  1  1.00493832  0.49283476  0.88971137  1
  O  O337  1  0.99195182  0.99415698  0.37791261  1
  O  O338  1  1.00073445  0.99034229  0.88713475  1
  O  O339  1  -0.00219294  0.00438254  0.11232936  1
  O  O340  1  0.00822563  0.00762723  0.62109251  1
  O  O341  1  0.00507407  0.50065957  0.11008028  1
  O  O342  1  0.01128982  0.49661134  0.61444780  1
  O  O343  1  0.51464596  0.00546549  0.12878262  1
  O  O344  1  0.50983209  0.00738074  0.62691756  1
  O  O345  1  0.50590562  0.50534768  0.11905502  1
  O  O346  1  0.50783017  0.50450101  0.62135832  1
  O  O347  1  0.24542340  0.38021096  0.24299740  1
  O  O348  1  0.24017388  0.37718485  0.74575058  1
  O  O349  1  0.24815586  0.88346574  0.24193430  1
  O  O350  1  0.24910147  0.87475403  0.73272026  1
  O  O351  1  0.73878248  0.37418367  0.24511304  1
  O  O352  1  0.74502559  0.38196151  0.74371340  1
  O  O353  1  0.73990934  0.86835373  0.23719901  1
  O  O354  1  0.73979684  0.86485573  0.73887485  1
  O  O355  1  0.25525326  0.11933740  0.25392222  1
  O  O356  1  0.25683717  0.13323060  0.75765763  1
  O  O357  1  0.25704354  0.61984768  0.25593961  1
  O  O358  1  0.26152525  0.62179693  0.74270259  1
  O  O359  1  0.76073669  0.12911182  0.25810772  1
  O  O360  1  0.77779866  0.12895657  0.73167065  1
  O  O361  1  0.75807819  0.62309941  0.25799548  1
  O  O362  1  0.76378596  0.61985186  0.75027256  1
  O  O363  1  0.36854232  0.11823029  0.37034307  1
  O  O364  1  0.36851137  0.11616612  0.86779565  1
  O  O365  1  0.36956341  0.61780484  0.37215191  1
  O  O366  1  0.37939502  0.61383129  0.86639778  1
  O  O367  1  0.86722595  0.11935858  0.37044449  1
  O  O368  1  0.88191300  0.12248372  0.86245008  1
  O  O369  1  0.86677395  0.63308543  0.36519699  1
  O  O370  1  0.87590617  0.63062227  0.86651763  1
  O  O371  1  0.13712312  0.37436859  0.13345271  1
  O  O372  1  0.12628199  0.38097817  0.63561102  1
  O  O373  1  0.14213580  0.86931455  0.12742425  1
  O  O374  1  0.13263147  0.88522025  0.62197102  1
  O  O375  1  0.62995881  0.38015370  0.13430291  1
  O  O376  1  0.63342666  0.38729084  0.63281025  1
  O  O377  1  0.62878457  0.88687350  0.13161855  1
  O  O378  1  0.62728337  0.87909028  0.62859493  1
  O  O379  1  0.11704280  0.25786342  0.25190223  1
  O  O380  1  0.11300206  0.25882562  0.75356038  1
  O  O381  1  0.12597744  0.75035971  0.26427927  1
  O  O382  1  0.11256972  0.75037517  0.74630571  1
  O  O383  1  0.61968326  0.25461381  0.25696390  1
  O  O384  1  0.60448826  0.26223251  0.74623058  1
  O  O385  1  0.62192911  0.75657424  0.25612699  1
  O  O386  1  0.61852524  0.75446541  0.74881669  1
  O  O387  1  0.38304609  0.24612655  0.24644073  1
  O  O388  1  0.38604642  0.24256649  0.75317189  1
  O  O389  1  0.38287868  0.74494734  0.24190179  1
  O  O390  1  0.37806946  0.74247324  0.74194138  1
  O  O391  1  0.88088140  0.24102329  0.24777411  1
  O  O392  1  0.88720545  0.24172470  0.75114787  1
  O  O393  1  0.87620844  0.74061349  0.23887939  1
  O  O394  1  0.88098102  0.74066187  0.74537086  1
  O  O395  1  0.38170796  0.49354770  0.49405709  1
  O  O396  1  0.38183658  0.49860806  0.98943323  1
  O  O397  1  0.37478885  0.99314043  0.48952383  1
  O  O398  1  0.37698221  1.00588072  0.98442260  1
  O  O399  1  0.88764549  0.49222875  0.50397803  1
  O  O400  1  0.88803377  0.49914604  1.00256222  1
  O  O401  1  0.87400554  0.99753541  0.48786600  1
  O  O402  1  0.88489071  1.00054996  1.00182791  1
  O  O403  1  0.11864796  0.01035004  -0.00182186  1
  O  O404  1  0.12427161  0.01408497  0.50630670  1
  O  O405  1  0.11920669  0.51133461  0.00174435  1
  O  O406  1  0.11431640  0.50361108  0.50452797  1
  O  O407  1  0.62506593  -0.00246383  0.00736108  1
  O  O408  1  0.62189079  0.00510958  0.50827063  1
  O  O409  1  0.61954008  0.50426270  0.00456068  1
  O  O410  1  0.61877371  0.49905284  0.50792418  1
  O  O411  1  0.36423758  0.36726407  0.12472921  1
  O  O412  1  0.36365302  0.38490770  0.61555480  1
  O  O413  1  0.36586031  0.86680834  0.12981229  1
  O  O414  1  0.37023306  0.86960384  0.61831017  1
  O  O415  1  0.86417771  0.37291965  0.12452785  1
  O  O416  1  0.86262087  0.37957127  0.62469039  1
  O  O417  1  0.86530210  0.86834556  0.13299098  1
  O  O418  1  0.86578334  0.86964865  0.62690300  1
  O  O419  1  0.13269250  0.12540927  0.38263290  1
  O  O420  1  0.13190816  0.12424375  0.88108385  1
  O  O421  1  0.13308598  0.63031815  0.38250415  1
  O  O422  1  0.12290398  0.62679930  0.88958022  1
  O  O423  1  0.63044079  0.13158262  0.38012729  1
  O  O424  1  0.65534481  0.11016339  0.80530325  1
  O  O425  1  0.63357320  0.63677130  0.37474972  1
  O  O426  1  0.61966302  0.62578484  0.88671210  1
