# generated using pymatgen
data_V85Zn86O256
_symmetry_space_group_name_H-M   'P 1'
_cell_length_a   16.93683022
_cell_length_b   16.93328153
_cell_length_c   16.94335929
_cell_angle_alpha   90.06358898
_cell_angle_beta   90.02996913
_cell_angle_gamma   90.03027584
_symmetry_Int_Tables_number   1
_chemical_formula_structural   V85Zn86O256
_chemical_formula_sum   'V85 Zn86 O256'
_cell_volume   4859.28526858
_cell_formula_units_Z   1
loop_
 _symmetry_equiv_pos_site_id
 _symmetry_equiv_pos_as_xyz
  1  'x, y, z'
loop_
 _atom_site_type_symbol
 _atom_site_label
 _atom_site_symmetry_multiplicity
 _atom_site_fract_x
 _atom_site_fract_y
 _atom_site_fract_z
 _atom_site_occupancy
  V  V0  1  0.37449219  0.87850831  -0.00462012  1
  V  V1  1  0.74903139  0.49878657  0.74936564  1
  V  V2  1  0.00248858  0.75195761  0.74720193  1
  V  V3  1  0.62292056  0.74842175  0.87465872  1
  V  V4  1  0.37277625  0.12516169  0.25121315  1
  V  V5  1  -0.00170897  0.49981483  0.00289546  1
  V  V6  1  0.12612880  0.12755990  -0.00874560  1
  V  V7  1  0.24278329  0.13861985  0.38223594  1
  V  V8  1  0.00572036  0.26004550  0.26041726  1
  V  V9  1  0.25035246  0.87408542  0.12510106  1
  V  V10  1  0.67662576  0.18854885  0.94454870  1
  V  V11  1  0.63490619  0.24867394  0.38018286  1
  V  V12  1  0.37454483  0.62626096  0.25288056  1
  V  V13  1  0.49922982  0.87478312  0.37520611  1
  V  V14  1  -0.00700609  0.63732267  0.13357798  1
  V  V15  1  0.26196753  0.11910595  0.87624881  1
  V  V16  1  -0.00213565  0.87595682  0.87711332  1
  V  V17  1  0.49250654  0.25438710  0.74167442  1
  V  V18  1  0.74893053  0.37256890  0.12113476  1
  V  V19  1  0.25576037  -0.00637585  0.74595771  1
  V  V20  1  -0.00878147  -0.00157067  -0.00105384  1
  V  V21  1  0.63304256  -0.00508356  0.62672391  1
  V  V22  1  0.49820101  0.12948057  0.62172603  1
  V  V23  1  0.12594896  -0.00022206  0.12158682  1
  V  V24  1  0.74987293  0.75461043  0.50502048  1
  V  V25  1  0.37661098  0.62019804  0.74050750  1
  V  V26  1  0.49905433  0.62927462  0.12564829  1
  V  V27  1  0.00082183  0.00448538  0.49366919  1
  V  V28  1  0.36906809  0.50012008  0.37898783  1
  V  V29  1  0.36708121  0.75324769  0.62447627  1
  V  V30  1  0.49596637  0.50691580  0.50375752  1
  V  V31  1  0.87157178  0.37266033  0.00134276  1
  V  V32  1  0.75466901  0.00080948  0.25704405  1
  V  V33  1  0.37683470  0.35611083  0.50238545  1
  V  V34  1  0.62568044  0.87586565  0.24872351  1
  V  V35  1  0.00150838  0.12687910  0.12493997  1
  V  V36  1  0.49960650  0.88456661  0.87021061  1
  V  V37  1  0.62733458  0.00211272  0.12155828  1
  V  V38  1  0.13001668  -0.00236890  0.62245764  1
  V  V39  1  0.49953802  0.74760642  0.74183301  1
  V  V40  1  0.00177020  0.49254238  0.50350078  1
  V  V41  1  0.87320300  0.64012773  0.25521847  1
  V  V42  1  0.50364731  -0.00048477  0.50101727  1
  V  V43  1  0.62978524  0.74635911  0.37418483  1
  V  V44  1  0.87233251  0.01255924  0.86378364  1
  V  V45  1  0.24683224  -0.00176814  0.25364708  1
  V  V46  1  0.87830469  0.12338443  0.25911989  1
  V  V47  1  0.49821413  0.50186370  -0.00118803  1
  V  V48  1  0.62261446  0.50630496  0.62419873  1
  V  V49  1  0.50113295  0.12329622  0.12556962  1
  V  V50  1  0.62775013  0.37641298  0.25144440  1
  V  V51  1  0.75015159  0.36991211  0.61871295  1
  V  V52  1  0.00132758  0.36678573  0.87403214  1
  V  V53  1  0.87330116  0.24802338  0.12276081  1
  V  V54  1  0.36854172  0.25705947  0.12533792  1
  V  V55  1  0.76482251  0.87475325  0.11704008  1
  V  V56  1  0.87040631  0.75978791  0.62898670  1
  V  V57  1  0.87436605  0.62404389  0.74791503  1
  V  V58  1  0.11861372  0.74637255  0.36754267  1
  V  V59  1  0.12425928  0.62462469  0.50168064  1
  V  V60  1  0.50205697  0.00058996  -0.00195190  1
  V  V61  1  0.25126095  0.75120888  -0.00103266  1
  V  V62  1  0.62679851  0.50266548  0.12771859  1
  V  V63  1  0.62659228  0.62807447  0.00025818  1
  V  V64  1  0.64158643  0.87298814  0.74776476  1
  V  V65  1  0.87387406  0.49594257  0.87340067  1
  V  V66  1  0.87413737  0.36463083  0.49512138  1
  V  V67  1  0.36861020  0.87568048  0.50358674  1
  V  V68  1  0.24935368  0.62265914  0.86785327  1
  V  V69  1  0.87233537  0.24129101  0.64033023  1
  V  V70  1  0.62393552  0.37157106  0.75089561  1
  V  V71  1  0.12830698  0.49690626  0.13253705  1
  V  V72  1  0.12357619  0.62471531  -0.00069295  1
  V  V73  1  0.87551903  0.87947679  0.49525504  1
  V  V74  1  0.37182770  0.37432402  0.00157715  1
  V  V75  1  0.87320006  0.50098513  0.37455110  1
  V  V76  1  0.13895009  0.37417072  0.76072139  1
  V  V77  1  0.50284652  0.24981844  0.24943967  1
  V  V78  1  0.38005943  0.11977708  0.75119915  1
  V  V79  1  0.62869513  0.62469537  0.49723634  1
  V  V80  1  0.24557463  0.36764516  0.60931116  1
  V  V81  1  0.50033313  0.37319153  0.87351570  1
  V  V82  1  0.24948276  0.25236981  -0.00368932  1
  V  V83  1  0.12685776  0.75185218  0.87194229  1
  V  V84  1  0.36859233  0.49862147  0.86958102  1
  Zn  Zn85  1  0.11876129  0.86511695  0.24580685  1
  Zn  Zn86  1  0.75801996  0.01916069  0.74795675  1
  Zn  Zn87  1  0.12626521  0.14179011  0.50431091  1
  Zn  Zn88  1  0.13164846  0.50040335  0.63366349  1
  Zn  Zn89  1  -0.00011720  0.12076666  0.63439963  1
  Zn  Zn90  1  0.24410950  0.75371237  0.50212928  1
  Zn  Zn91  1  0.76939437  0.74650494  0.01227509  1
  Zn  Zn92  1  0.13224024  0.87370772  0.74270551  1
  Zn  Zn93  1  -0.00517600  0.87329399  0.36734310  1
  Zn  Zn94  1  0.37247872  0.00078040  0.37742015  1
  Zn  Zn95  1  0.25978120  0.49009763  0.24072317  1
  Zn  Zn96  1  0.63226741  0.13129827  0.50451072  1
  Zn  Zn97  1  0.75167728  0.50733162  0.25550790  1
  Zn  Zn98  1  0.00105910  0.62361592  0.62600770  1
  Zn  Zn99  1  0.75137477  0.62392747  0.87870100  1
  Zn  Zn100  1  0.50249212  0.37591181  0.37719245  1
  Zn  Zn101  1  0.00555395  0.24287400  0.75922869  1
  Zn  Zn102  1  0.24936269  0.62624379  0.37674844  1
  Zn  Zn103  1  0.49892109  0.75191382  0.25135215  1
  Zn  Zn104  1  0.37393445  0.75049791  0.12718295  1
  Zn  Zn105  1  0.14686668  0.36029749  0.24776922  1
  Zn  Zn106  1  0.75785096  0.12500352  0.38127800  1
  Zn  Zn107  1  0.18812781  0.18477702  0.18488759  1
  Zn  Zn108  1  0.18599582  0.18886393  0.68887162  1
  Zn  Zn109  1  0.18768420  0.67997238  0.18625818  1
  Zn  Zn110  1  0.18858833  0.68478253  0.68519183  1
  Zn  Zn111  1  0.68945561  0.18608323  0.18565931  1
  Zn  Zn112  1  0.68665349  0.18845853  0.68754834  1
  Zn  Zn113  1  0.69191418  0.69162752  0.18880817  1
  Zn  Zn114  1  0.68939679  0.68695185  0.68731393  1
  Zn  Zn115  1  0.31489646  0.31735603  0.31164582  1
  Zn  Zn116  1  0.31345135  0.30459832  0.81385131  1
  Zn  Zn117  1  0.30805483  0.80903088  0.31650199  1
  Zn  Zn118  1  0.31667782  0.81161648  0.81305796  1
  Zn  Zn119  1  0.81651245  0.31511105  0.30864771  1
  Zn  Zn120  1  0.80242101  0.30589462  0.81908525  1
  Zn  Zn121  1  0.80878794  0.81508238  0.31407662  1
  Zn  Zn122  1  0.82327604  0.80346461  0.84211779  1
  Zn  Zn123  1  0.16630349  0.32463490  0.42884918  1
  Zn  Zn124  1  0.18636752  0.43706446  0.94052027  1
  Zn  Zn125  1  0.18301314  0.93747696  0.43460499  1
  Zn  Zn126  1  0.18599872  0.94082417  0.93256059  1
  Zn  Zn127  1  0.69234341  0.43879641  0.43648793  1
  Zn  Zn128  1  0.68624370  0.43562611  0.93746308  1
  Zn  Zn129  1  0.68900392  0.93553507  0.43973869  1
  Zn  Zn130  1  0.68911919  0.94034159  0.93620643  1
  Zn  Zn131  1  0.31580390  0.06172815  0.06319738  1
  Zn  Zn132  1  0.31533341  0.06409741  0.56356426  1
  Zn  Zn133  1  0.31248367  0.56518855  0.05876629  1
  Zn  Zn134  1  0.30464205  0.55551357  0.56568428  1
  Zn  Zn135  1  0.80936632  0.06604915  0.05941467  1
  Zn  Zn136  1  0.81172363  0.06263097  0.55860357  1
  Zn  Zn137  1  0.81218108  0.56178829  0.06703486  1
  Zn  Zn138  1  0.81229938  0.56348215  0.56181939  1
  Zn  Zn139  1  0.43946532  0.43835488  0.18901280  1
  Zn  Zn140  1  0.43136990  0.43796034  0.68087403  1
  Zn  Zn141  1  0.43530418  0.93688479  0.18728670  1
  Zn  Zn142  1  0.44211144  0.93796487  0.68604350  1
  Zn  Zn143  1  0.93921319  0.44162169  0.19005920  1
  Zn  Zn144  1  0.93929637  0.43184725  0.68693126  1
  Zn  Zn145  1  0.93963232  0.93767898  0.18995434  1
  Zn  Zn146  1  0.94098080  0.93968192  0.68630195  1
  Zn  Zn147  1  0.06444884  0.06411504  0.31240348  1
  Zn  Zn148  1  0.06754354  0.06366395  0.81008209  1
  Zn  Zn149  1  0.09591976  0.50670668  0.35027383  1
  Zn  Zn150  1  0.06110904  0.55761761  0.81162052  1
  Zn  Zn151  1  0.56523026  0.06189793  0.31212921  1
  Zn  Zn152  1  0.59961478  0.08429535  0.80115518  1
  Zn  Zn153  1  0.55925081  0.56232367  0.31583558  1
  Zn  Zn154  1  0.55813114  0.56117508  0.81098811  1
  Zn  Zn155  1  0.44572955  0.18370641  0.43009184  1
  Zn  Zn156  1  0.47186762  0.17118346  0.91959383  1
  Zn  Zn157  1  0.44153593  0.68778540  0.44080382  1
  Zn  Zn158  1  0.43699400  0.69062040  0.93404340  1
  Zn  Zn159  1  0.94312653  0.18990773  0.44176406  1
  Zn  Zn160  1  0.93430403  0.18633477  0.94046829  1
  Zn  Zn161  1  0.93911260  0.68399096  0.43870196  1
  Zn  Zn162  1  0.93824509  0.68495651  0.93634882  1
  Zn  Zn163  1  0.06317608  0.31246153  0.06461691  1
  Zn  Zn164  1  0.05725356  0.31202703  0.57326799  1
  Zn  Zn165  1  0.06263933  0.81388850  0.06047546  1
  Zn  Zn166  1  0.06151882  0.81569366  0.56113082  1
  Zn  Zn167  1  0.55782836  0.31358268  0.06397225  1
  Zn  Zn168  1  0.56138010  0.31653402  0.56164591  1
  Zn  Zn169  1  0.56527328  0.81450685  0.06205819  1
  Zn  Zn170  1  0.56017507  0.81256085  0.56482137  1
  O  O171  1  0.12268430  0.11707707  0.11433122  1
  O  O172  1  0.12865088  0.11424899  0.62098185  1
  O  O173  1  0.11220087  0.62015778  0.11747581  1
  O  O174  1  0.12286351  0.61858398  0.61988856  1
  O  O175  1  0.61838411  0.11015777  0.13308538  1
  O  O176  1  0.61283399  0.11692606  0.62250353  1
  O  O177  1  0.61975597  0.62393789  0.11978905  1
  O  O178  1  0.62841280  0.61180281  0.62027026  1
  O  O179  1  0.37770321  0.38176161  0.38863155  1
  O  O180  1  0.37886120  0.38279976  0.87917162  1
  O  O181  1  0.38628587  0.87483911  0.38005834  1
  O  O182  1  0.38667424  0.87009177  0.88375835  1
  O  O183  1  0.87018004  0.38164844  0.38604696  1
  O  O184  1  0.87800785  0.37745028  0.88195281  1
  O  O185  1  0.87516965  0.86935505  0.39091799  1
  O  O186  1  0.89512013  0.89124319  0.86630348  1
  O  O187  1  0.25181240  0.00669740  0.36618335  1
  O  O188  1  0.25118949  0.01222313  0.86711778  1
  O  O189  1  0.26739118  0.50666458  0.37206690  1
  O  O190  1  0.26113638  0.50799546  0.88217246  1
  O  O191  1  0.74462283  -0.00221647  0.35994568  1
  O  O192  1  0.77099191  -0.00831655  0.87467251  1
  O  O193  1  0.76616079  0.50183598  0.37575263  1
  O  O194  1  0.75546381  0.49992585  0.86769568  1
  O  O195  1  0.23160844  0.50991732  0.11862514  1
  O  O196  1  0.25039120  0.47602837  0.62700114  1
  O  O197  1  0.24649001  0.99417847  0.13104964  1
  O  O198  1  0.24629469  1.00487183  0.63445037  1
  O  O199  1  0.74212539  0.49230543  0.12927880  1
  O  O200  1  0.74344029  0.49216485  0.63057997  1
  O  O201  1  0.74358751  0.99329876  0.12973521  1
  O  O202  1  0.73676074  1.00381422  0.63003607  1
  O  O203  1  -0.00128416  0.36048594  0.24552310  1
  O  O204  1  0.00266571  0.36942453  0.76218466  1
  O  O205  1  0.00740025  0.88244320  0.25508185  1
  O  O206  1  0.00342577  0.86339191  0.75354265  1
  O  O207  1  0.51363826  0.37095437  0.25030092  1
  O  O208  1  0.50107357  0.37292702  0.75159230  1
  O  O209  1  0.50445960  0.87524647  0.25865605  1
  O  O210  1  0.50247043  0.86621663  0.75760528  1
  O  O211  1  0.49155937  0.12732804  0.24571228  1
  O  O212  1  0.49936536  0.13516600  0.74315680  1
  O  O213  1  0.49231580  0.62667896  0.24232765  1
  O  O214  1  0.48864701  0.63512923  0.75571468  1
  O  O215  1  0.99500563  0.12926130  0.24310489  1
  O  O216  1  1.00701768  0.13102256  0.74801094  1
  O  O217  1  0.98821048  0.62836094  0.23505073  1
  O  O218  1  0.99355543  0.63525074  0.75131568  1
  O  O219  1  0.36991131  0.25621536  0.00879807  1
  O  O220  1  0.38576087  0.25846216  0.49567453  1
  O  O221  1  0.36992400  0.75985291  0.00123920  1
  O  O222  1  0.37595382  0.75618747  0.50883001  1
  O  O223  1  0.87808081  0.25661316  0.01413997  1
  O  O224  1  0.87991492  0.26156618  0.50864117  1
  O  O225  1  0.85862972  0.75908850  -0.05237012  1
  O  O226  1  0.86779064  0.75241768  0.50888044  1
  O  O227  1  0.12041570  0.25566152  0.50167091  1
  O  O228  1  0.13759511  0.24126289  1.00953880  1
  O  O229  1  0.12444556  0.74078382  0.49597043  1
  O  O230  1  0.13096463  0.74367606  0.99128954  1
  O  O231  1  0.62058783  0.25376822  0.48310024  1
  O  O232  1  0.63181371  0.24440860  1.01653543  1
  O  O233  1  0.62967856  0.74486727  0.49760228  1
  O  O234  1  0.62264102  0.73972443  0.99226324  1
  O  O235  1  0.49070054  0.24288111  0.13040707  1
  O  O236  1  0.50385335  0.24330629  0.62950781  1
  O  O237  1  0.50051066  0.73890724  0.12564465  1
  O  O238  1  0.49084408  0.75065038  0.63648177  1
  O  O239  1  0.99233690  0.24345619  0.12888393  1
  O  O240  1  0.98071445  0.25100027  0.63361168  1
  O  O241  1  1.00006926  0.73547543  0.11396003  1
  O  O242  1  0.99262153  0.74834647  0.63319396  1
  O  O243  1  -0.00013454  0.24766419  0.35908175  1
  O  O244  1  -0.00286122  0.26384668  0.88318587  1
  O  O245  1  0.01543696  0.74943263  0.38135405  1
  O  O246  1  0.00901370  0.75730160  0.86740014  1
  O  O247  1  0.51116662  0.25441541  0.36465192  1
  O  O248  1  0.49393726  0.26834917  0.86333722  1
  O  O249  1  0.51093057  0.75898190  0.37662074  1
  O  O250  1  0.50722171  0.75687368  0.86598369  1
  O  O251  1  0.25481923  0.12292698  0.48386285  1
  O  O252  1  0.24843264  0.12732875  0.99414218  1
  O  O253  1  0.23487801  0.62255103  0.50237888  1
  O  O254  1  0.24667595  0.63196070  0.98792653  1
  O  O255  1  0.74278915  0.11681704  0.49175228  1
  O  O256  1  0.73729360  0.12121286  0.99158659  1
  O  O257  1  0.73776032  0.63623295  0.50524990  1
  O  O258  1  0.74120331  0.62807627  1.00057477  1
  O  O259  1  0.25690591  0.36395896  -0.00492878  1
  O  O260  1  0.26107321  0.36548843  0.50385369  1
  O  O261  1  0.25674359  0.87276585  0.00188737  1
  O  O262  1  0.26596833  0.87759043  0.49293178  1
  O  O263  1  0.75366717  0.38132947  0.01375249  1
  O  O264  1  0.75792973  0.37943217  0.51149359  1
  O  O265  1  0.74321341  0.87530015  0.01540452  1
  O  O266  1  0.75684109  0.86371451  0.50084124  1
  O  O267  1  0.12901803  0.51167195  0.23487448  1
  O  O268  1  0.11621224  0.48074026  0.74873542  1
  O  O269  1  0.13709953  1.00430655  0.24177799  1
  O  O270  1  0.13884256  0.99824324  0.74204286  1
  O  O271  1  0.62655324  0.49413590  0.24756131  1
  O  O272  1  0.62550209  0.49417817  0.74099279  1
  O  O273  1  0.63259995  0.99470066  0.24322695  1
  O  O274  1  0.61859903  0.98488937  0.74133648  1
  O  O275  1  0.36408238  0.00779336  0.24977952  1
  O  O276  1  0.37303643  0.01160079  0.74419037  1
  O  O277  1  0.38207011  0.50734602  0.26011246  1
  O  O278  1  0.38050785  0.50788732  0.75774108  1
  O  O279  1  0.86642581  0.01216995  0.24243802  1
  O  O280  1  0.87447685  0.00266832  0.75782147  1
  O  O281  1  0.87667864  0.50686656  0.26024740  1
  O  O282  1  0.87066951  0.50502329  0.75117776  1
  O  O283  1  0.13199492  0.39791601  0.35507432  1
  O  O284  1  0.11666854  0.37924033  0.86895644  1
  O  O285  1  0.12590576  0.85630197  0.37417858  1
  O  O286  1  0.11761162  0.87095815  0.86849796  1
  O  O287  1  0.62714474  0.36780637  0.36755473  1
  O  O288  1  0.61221137  0.38785559  0.86292967  1
  O  O289  1  0.61603820  0.87004054  0.37033316  1
  O  O290  1  0.61822381  0.86708836  0.86912957  1
  O  O291  1  0.37794199  0.13084641  0.13726418  1
  O  O292  1  0.39072075  0.12200486  0.63106939  1
  O  O293  1  0.38391760  0.62536774  0.13057027  1
  O  O294  1  0.36837618  0.62881167  0.63634468  1
  O  O295  1  0.87886318  0.13289082  0.12966929  1
  O  O296  1  0.86948685  0.13976555  0.62567784  1
  O  O297  1  0.88571564  0.62215077  0.13205090  1
  O  O298  1  0.87456397  0.63354659  0.63645819  1
  O  O299  1  0.26350290  0.24104526  0.11556186  1
  O  O300  1  0.25425563  0.27192698  0.64107512  1
  O  O301  1  0.24888962  0.75522672  0.11706734  1
  O  O302  1  0.26246435  0.75048620  0.62374214  1
  O  O303  1  0.76105537  0.26045710  0.13433118  1
  O  O304  1  0.75685854  0.25967867  0.62966047  1
  O  O305  1  0.74814173  0.76868028  0.12456875  1
  O  O306  1  0.75821758  0.74869944  0.61870024  1
  O  O307  1  0.25020804  0.24103110  0.37156132  1
  O  O308  1  0.25655927  0.23547306  0.88805075  1
  O  O309  1  0.23869594  0.74377378  0.38199318  1
  O  O310  1  0.24598656  0.74333242  0.87798291  1
  O  O311  1  0.73714360  0.25006361  0.36557791  1
  O  O312  1  0.72977251  0.25343960  0.88579145  1
  O  O313  1  0.73591632  0.75579570  0.38456138  1
  O  O314  1  0.72695234  0.74172374  0.86376697  1
  O  O315  1  0.00987253  0.12057174  0.00416702  1
  O  O316  1  0.00078294  0.11436743  0.50719765  1
  O  O317  1  0.00108050  0.61422763  0.00206733  1
  O  O318  1  0.00727018  0.61715198  0.50528019  1
  O  O319  1  0.48369547  0.10693694  0.01288100  1
  O  O320  1  0.50511353  0.11623238  0.50381580  1
  O  O321  1  0.50376027  0.62192811  0.00611872  1
  O  O322  1  0.51439257  0.61874733  0.50093883  1
  O  O323  1  0.48830823  0.38292973  0.49974690  1
  O  O324  1  0.49584761  0.38148013  0.99070747  1
  O  O325  1  0.49375971  0.88009420  0.49278645  1
  O  O326  1  0.49372839  0.87977047  0.99423839  1
  O  O327  1  0.98888020  0.38645950  0.50844981  1
  O  O328  1  0.99520243  0.38502232  0.99779131  1
  O  O329  1  0.99317596  0.88553885  0.49602409  1
  O  O330  1  1.00797854  0.88706558  0.99025820  1
  O  O331  1  0.49411294  0.49739128  0.38814866  1
  O  O332  1  0.48824987  0.49326069  0.87844494  1
  O  O333  1  0.49996244  0.99312320  0.38247268  1
  O  O334  1  0.50714797  0.98755442  0.88337431  1
  O  O335  1  0.98722244  0.50302013  0.39432319  1
  O  O336  1  0.99295511  0.49117816  0.88446834  1
  O  O337  1  1.00629284  1.00071694  0.39039333  1
  O  O338  1  0.99745810  0.99597459  0.88060780  1
  O  O339  1  0.00543817  0.00698797  0.11562481  1
  O  O340  1  0.01045700  0.00117151  0.61654941  1
  O  O341  1  0.00683112  0.50921147  0.11843185  1
  O  O342  1  -0.00382766  0.50278301  0.61505118  1
  O  O343  1  0.50695863  0.00165622  0.11954650  1
  O  O344  1  0.50806281  0.00621311  0.61716105  1
  O  O345  1  0.50642286  0.51166507  0.12010942  1
  O  O346  1  0.50791500  0.49524380  0.61244383  1
  O  O347  1  0.26020228  0.37643522  0.23564096  1
  O  O348  1  0.24030728  0.37722224  0.76216815  1
  O  O349  1  0.24779294  0.88248635  0.24421479  1
  O  O350  1  0.25589698  0.89011290  0.75658219  1
  O  O351  1  0.74089370  0.37874505  0.24107225  1
  O  O352  1  0.74004137  0.37969900  0.74418696  1
  O  O353  1  0.74673633  0.88287920  0.24026689  1
  O  O354  1  0.74054177  0.87144724  0.75976800  1
  O  O355  1  0.25592392  0.12039487  0.25800746  1
  O  O356  1  0.26195908  0.12082407  0.75738022  1
  O  O357  1  0.26625818  0.61871349  0.24792681  1
  O  O358  1  0.25763491  0.62805165  0.76170683  1
  O  O359  1  0.75975683  0.11758974  0.25171086  1
  O  O360  1  0.70681350  0.11781645  0.76986515  1
  O  O361  1  0.76821793  0.62389795  0.24054096  1
  O  O362  1  0.75723368  0.61661554  0.75149055  1
  O  O363  1  0.36889072  0.12434095  0.36379808  1
  O  O364  1  0.37514720  0.12649655  0.86443670  1
  O  O365  1  0.37883199  0.62011081  0.36858750  1
  O  O366  1  0.36871584  0.61890012  0.86731119  1
  O  O367  1  0.87728001  0.13192161  0.36248532  1
  O  O368  1  0.87966483  0.11159694  0.87536871  1
  O  O369  1  0.87994073  0.62053426  0.36138773  1
  O  O370  1  0.87520831  0.61350663  0.86080233  1
  O  O371  1  0.11763892  0.39344786  0.12846522  1
  O  O372  1  0.13628207  0.37724816  0.63386367  1
  O  O373  1  0.13422983  0.88112256  0.12392794  1
  O  O374  1  0.12540938  0.88978469  0.62471563  1
  O  O375  1  0.62959385  0.38114716  0.13164834  1
  O  O376  1  0.63167393  0.38483436  0.62816431  1
  O  O377  1  0.62550505  0.88540680  0.13272318  1
  O  O378  1  0.62054832  0.88146673  0.63525417  1
  O  O379  1  0.11057936  0.24826194  0.23980113  1
  O  O380  1  0.12362182  0.26876320  0.74900403  1
  O  O381  1  0.13013789  0.74334218  0.26405401  1
  O  O382  1  0.11906131  0.75093674  0.75266539  1
  O  O383  1  0.62171718  0.25809747  0.25349602  1
  O  O384  1  0.61113180  0.26753157  0.74251286  1
  O  O385  1  0.62364518  0.75574551  0.25872042  1
  O  O386  1  0.61540625  0.75339174  0.75163629  1
  O  O387  1  0.38251450  0.24387182  0.24434975  1
  O  O388  1  0.38642789  0.24030279  0.75016192  1
  O  O389  1  0.37806124  0.74174406  0.24928345  1
  O  O390  1  0.38034355  0.74332166  0.74318818  1
  O  O391  1  0.88530977  0.24454506  0.24130255  1
  O  O392  1  0.87057019  0.25406948  0.74232831  1
  O  O393  1  0.87334091  0.73941381  0.25661049  1
  O  O394  1  0.88071663  0.74366120  0.74765962  1
  O  O395  1  0.38245775  0.50151530  0.49560909  1
  O  O396  1  0.38039019  0.49546685  0.99306866  1
  O  O397  1  0.38764419  0.99349528  0.49989616  1
  O  O398  1  0.38288169  0.98553093  1.00516788  1
  O  O399  1  0.88102846  0.49593111  0.49701785  1
  O  O400  1  0.88101384  0.49437892  0.99675740  1
  O  O401  1  0.88895155  0.99121387  0.50965450  1
  O  O402  1  0.88812710  1.00670288  0.99284344  1
  O  O403  1  0.11920410  0.00798906  0.00352555  1
  O  O404  1  0.11608162  0.00177670  0.50500391  1
  O  O405  1  0.11612462  0.50566026  0.00698798  1
  O  O406  1  0.10737942  0.50448731  0.50218312  1
  O  O407  1  0.61358733  -0.00722776  0.00855409  1
  O  O408  1  0.61453883  -0.00676241  0.50781147  1
  O  O409  1  0.61869422  0.51106241  0.00474779  1
  O  O410  1  0.62130279  0.50643772  0.50386512  1
  O  O411  1  0.38683803  0.36600051  0.11576989  1
  O  O412  1  0.36702519  0.37533916  0.60782368  1
  O  O413  1  0.36704548  0.87185497  0.11781643  1
  O  O414  1  0.38280321  0.86560091  0.61569178  1
  O  O415  1  0.86743853  0.37096380  0.12250207  1
  O  O416  1  0.86516828  0.36708312  0.62018140  1
  O  O417  1  0.86334668  0.88219764  0.12123241  1
  O  O418  1  0.88020849  0.86392242  0.61739187  1
  O  O419  1  0.14037528  0.12445061  0.37859069  1
  O  O420  1  0.13757598  0.12118229  0.88760686  1
  O  O421  1  0.12612139  0.62548906  0.38435952  1
  O  O422  1  0.13202557  0.62707293  0.87831822  1
  O  O423  1  0.62479023  0.14125376  0.37179888  1
  O  O424  1  0.59147724  0.14219374  0.89873083  1
  O  O425  1  0.62185888  0.63422117  0.38328345  1
  O  O426  1  0.62043175  0.62857081  0.88456642  1
