# generated using pymatgen
data_V85Zn86O256
_symmetry_space_group_name_H-M   'P 1'
_cell_length_a   16.93866911
_cell_length_b   16.95647447
_cell_length_c   16.96253639
_cell_angle_alpha   90.02433993
_cell_angle_beta   89.92250043
_cell_angle_gamma   90.05700039
_symmetry_Int_Tables_number   1
_chemical_formula_structural   V85Zn86O256
_chemical_formula_sum   'V85 Zn86 O256'
_cell_volume   4871.97427045
_cell_formula_units_Z   1
loop_
 _symmetry_equiv_pos_site_id
 _symmetry_equiv_pos_as_xyz
  1  'x, y, z'
loop_
 _atom_site_type_symbol
 _atom_site_label
 _atom_site_symmetry_multiplicity
 _atom_site_fract_x
 _atom_site_fract_y
 _atom_site_fract_z
 _atom_site_occupancy
  V  V0  1  0.49922611  0.25959860  0.75973024  1
  V  V1  1  0.12272611  0.25269671  0.37725014  1
  V  V2  1  0.74684299  0.12250217  0.37280108  1
  V  V3  1  0.51052649  0.01414322  0.50038895  1
  V  V4  1  0.12558774  0.87397034  0.74919878  1
  V  V5  1  0.87480752  0.24983697  0.12643978  1
  V  V6  1  0.50051169  0.87106571  0.86107759  1
  V  V7  1  0.12616007  0.74365492  0.37326580  1
  V  V8  1  0.61791932  0.62675538  0.49090306  1
  V  V9  1  -0.00282670  -0.00970666  0.49864589  1
  V  V10  1  0.24904833  0.75449762  0.00632763  1
  V  V11  1  0.25873475  0.74838839  0.49613619  1
  V  V12  1  0.75421850  0.62672115  0.37592482  1
  V  V13  1  0.37376012  0.12635384  0.24973984  1
  V  V14  1  0.00113062  0.12043259  0.62277333  1
  V  V15  1  -0.00644272  0.74300290  0.74899087  1
  V  V16  1  0.87255265  0.87810758  0.00407571  1
  V  V17  1  0.63125287  0.25090719  0.37336278  1
  V  V18  1  0.49947130  -0.00307081  0.00244521  1
  V  V19  1  0.75711691  0.50698263  0.24946531  1
  V  V20  1  0.75678976  0.11902716  0.87980914  1
  V  V21  1  0.12411853  0.37471869  0.74514294  1
  V  V22  1  0.25756681  0.50434750  0.74970672  1
  V  V23  1  0.24883060  0.12116991  0.37528881  1
  V  V24  1  0.87589897  0.11887965  0.25270348  1
  V  V25  1  0.87520781  0.24851309  0.61937501  1
  V  V26  1  0.24869114  0.50309912  0.25792866  1
  V  V27  1  0.13046049  0.24885205  0.88205350  1
  V  V28  1  0.36293262  0.26084771  0.11474499  1
  V  V29  1  0.37714750  -0.00503138  0.38385331  1
  V  V30  1  0.75346573  0.75959199  0.49220247  1
  V  V31  1  0.50193175  0.86140487  0.37963530  1
  V  V32  1  0.62559499  0.12443237  0.00105610  1
  V  V33  1  0.87332050  0.37603116  -0.00252737  1
  V  V34  1  -0.00413446  0.37616517  0.87289546  1
  V  V35  1  0.62644463  0.37796562  0.25093495  1
  V  V36  1  0.37359250  -0.00062018  0.87574283  1
  V  V37  1  0.87534413  0.50711979  0.86468369  1
  V  V38  1  0.63173350  -0.00495381  0.12985905  1
  V  V39  1  0.25075682  0.25033232  0.49989403  1
  V  V40  1  0.38104019  0.38072949  0.49751481  1
  V  V41  1  0.37191941  0.87597633  0.00593520  1
  V  V42  1  0.62559432  0.50260788  0.12338216  1
  V  V43  1  0.12710795  0.38126878  0.25843009  1
  V  V44  1  0.62144277  0.85825535  0.24968701  1
  V  V45  1  0.37510310  0.75645508  0.13357486  1
  V  V46  1  -0.00460789  0.50467853  0.00266708  1
  V  V47  1  0.00332197  0.12275900  0.12669447  1
  V  V48  1  -0.00185650  0.24860668  0.74938545  1
  V  V49  1  0.75066391  0.25098472  -0.00057302  1
  V  V50  1  0.12385974  0.62803895  0.51044903  1
  V  V51  1  0.25973924  0.62946940  0.87791304  1
  V  V52  1  0.17954007  0.44349076  0.08076003  1
  V  V53  1  0.24863747  0.00274759  0.74893969  1
  V  V54  1  0.69742251  0.19512865  0.54605164  1
  V  V55  1  0.37431532  0.62785320  0.25429065  1
  V  V56  1  0.49966440  0.25224514  0.25048944  1
  V  V57  1  0.74764332  0.87276580  0.64015018  1
  V  V58  1  0.74766024  0.37937226  0.62092133  1
  V  V59  1  -0.00348521  0.87916794  0.87320139  1
  V  V60  1  0.75138874  0.37765298  0.12534181  1
  V  V61  1  0.38271514  0.50327645  0.37642177  1
  V  V62  1  -0.00066591  0.25656007  0.25602694  1
  V  V63  1  0.49921690  0.12533857  0.12569403  1
  V  V64  1  -0.00160515  0.00189137  -0.00351553  1
  V  V65  1  0.62060710  0.75440994  0.86027929  1
  V  V66  1  0.13174929  -0.00888744  0.12805454  1
  V  V67  1  0.38367880  0.12293540  0.74574995  1
  V  V68  1  0.49649326  0.63200212  0.63623963  1
  V  V69  1  0.87339117  0.74799818  0.12930216  1
  V  V70  1  -0.00627536  0.86899587  0.37414785  1
  V  V71  1  0.75190199  0.62884627  0.86578826  1
  V  V72  1  0.00118695  0.62354142  0.13253686  1
  V  V73  1  0.49964995  0.63131550  0.12749770  1
  V  V74  1  0.25609498  0.87628790  0.61553093  1
  V  V75  1  0.38147965  0.48717491  0.87709262  1
  V  V76  1  0.25254679  0.37622964  0.62390262  1
  V  V77  1  0.49824462  0.48974106  -0.00162594  1
  V  V78  1  0.87907243  0.37372799  0.49465816  1
  V  V79  1  0.61804410  0.50194066  0.62099746  1
  V  V80  1  0.62277292  0.62831256  -0.00304820  1
  V  V81  1  0.38229020  0.24642793  0.62239028  1
  V  V82  1  0.87451821  0.11315830  0.75384754  1
  V  V83  1  0.88267845  0.49898610  0.37405456  1
  V  V84  1  0.74761966  0.75475332  0.00208259  1
  Zn  Zn85  1  0.13307954  0.12887537  0.00571927  1
  Zn  Zn86  1  0.38393119  0.75386068  0.63910661  1
  Zn  Zn87  1  -0.00304200  0.74688140  0.25155935  1
  Zn  Zn88  1  0.87266253  0.74623336  0.62145547  1
  Zn  Zn89  1  0.13108324  0.86585226  0.24870782  1
  Zn  Zn90  1  0.00407244  0.49776743  0.50016249  1
  Zn  Zn91  1  0.62549354  0.38147689  0.75597452  1
  Zn  Zn92  1  0.12694770  0.62740916  0.00289801  1
  Zn  Zn93  1  0.25511537  0.13209382  0.87755036  1
  Zn  Zn94  1  0.12430800  0.12257833  0.49974960  1
  Zn  Zn95  1  0.74063885  -0.00626589  0.75894305  1
  Zn  Zn96  1  0.75230783  0.50627400  0.74385124  1
  Zn  Zn97  1  0.61957509  -0.00834797  0.62580793  1
  Zn  Zn98  1  0.61874403  0.25716842  0.88261125  1
  Zn  Zn99  1  -0.01192194  0.61660327  0.63053504  1
  Zn  Zn100  1  0.86961349  -0.01023029  0.37966669  1
  Zn  Zn101  1  0.12590495  0.74938547  0.87830458  1
  Zn  Zn102  1  0.12469503  -0.00076165  0.62160533  1
  Zn  Zn103  1  0.50594196  0.37946259  0.37913569  1
  Zn  Zn104  1  0.25563077  -0.00802925  0.24683707  1
  Zn  Zn105  1  0.75015521  -0.00945541  0.24943770  1
  Zn  Zn106  1  0.12593747  0.50304705  0.62594583  1
  Zn  Zn107  1  0.18797010  0.18732096  0.19056646  1
  Zn  Zn108  1  0.19001279  0.18791615  0.68884540  1
  Zn  Zn109  1  0.18855754  0.68366640  0.18611240  1
  Zn  Zn110  1  0.21931240  0.70429503  0.70281602  1
  Zn  Zn111  1  0.68814084  0.18543602  0.18800787  1
  Zn  Zn112  1  0.65793287  0.14858065  0.71748953  1
  Zn  Zn113  1  0.69091508  0.68704164  0.18599948  1
  Zn  Zn114  1  0.68630556  0.68824254  0.68015875  1
  Zn  Zn115  1  0.30982068  0.31548844  0.30944621  1
  Zn  Zn116  1  0.31358310  0.31467343  0.81049267  1
  Zn  Zn117  1  0.31124291  0.81634982  0.31428256  1
  Zn  Zn118  1  0.31564792  0.81438933  0.81318972  1
  Zn  Zn119  1  0.81169146  0.31337662  0.31336908  1
  Zn  Zn120  1  0.80712608  0.30904985  0.80854561  1
  Zn  Zn121  1  0.80688418  0.81183999  0.31049717  1
  Zn  Zn122  1  0.81472575  0.81415117  0.81780525  1
  Zn  Zn123  1  0.19206757  0.44115034  0.43709701  1
  Zn  Zn124  1  0.18931335  0.43583793  0.92023495  1
  Zn  Zn125  1  0.18157073  0.93363019  0.43451986  1
  Zn  Zn126  1  0.18612941  0.94034847  0.93838775  1
  Zn  Zn127  1  0.69238561  0.43999488  0.44040268  1
  Zn  Zn128  1  0.68602990  0.44001236  0.93397918  1
  Zn  Zn129  1  0.68016948  0.93741787  0.43239762  1
  Zn  Zn130  1  0.68480041  0.93557644  0.93828726  1
  Zn  Zn131  1  0.31064365  0.07028130  0.06011016  1
  Zn  Zn132  1  0.31483871  0.06288293  0.56094804  1
  Zn  Zn133  1  0.31926300  0.56665751  0.05998412  1
  Zn  Zn134  1  0.31200943  0.56597596  0.56000599  1
  Zn  Zn135  1  0.81445052  0.06042800  0.06485652  1
  Zn  Zn136  1  0.81705260  0.05014885  0.56640493  1
  Zn  Zn137  1  0.81308498  0.56817054  0.05702272  1
  Zn  Zn138  1  0.81368303  0.56607896  0.56037023  1
  Zn  Zn139  1  0.43829320  0.43915096  0.18734602  1
  Zn  Zn140  1  0.43806111  0.44187623  0.68581127  1
  Zn  Zn141  1  0.44217025  0.93790368  0.19378226  1
  Zn  Zn142  1  0.43674264  0.93979980  0.68066051  1
  Zn  Zn143  1  0.93938283  0.43750330  0.18881309  1
  Zn  Zn144  1  0.93837231  0.43789747  0.68202180  1
  Zn  Zn145  1  0.94268611  0.93285277  0.18905406  1
  Zn  Zn146  1  0.93204068  0.93103154  0.68260148  1
  Zn  Zn147  1  0.06148839  0.05942251  0.31365761  1
  Zn  Zn148  1  0.06231392  0.06211000  0.81175306  1
  Zn  Zn149  1  0.06392008  0.56766941  0.31606596  1
  Zn  Zn150  1  0.07110547  0.56510947  0.81679267  1
  Zn  Zn151  1  0.56202951  0.06081599  0.31386125  1
  Zn  Zn152  1  0.55920988  0.06113859  0.81876246  1
  Zn  Zn153  1  0.56223213  0.56583957  0.31023533  1
  Zn  Zn154  1  0.56384889  0.56227642  0.80997947  1
  Zn  Zn155  1  0.43910477  0.18964664  0.43490379  1
  Zn  Zn156  1  0.43345431  0.18643774  0.93904378  1
  Zn  Zn157  1  0.43575812  0.68440959  0.44040147  1
  Zn  Zn158  1  0.43778501  0.68734349  0.93768682  1
  Zn  Zn159  1  0.93626355  0.18281631  0.43897052  1
  Zn  Zn160  1  0.94005708  0.18661933  0.93698803  1
  Zn  Zn161  1  0.93647435  0.68465608  0.44020416  1
  Zn  Zn162  1  0.93744719  0.69051423  0.93637302  1
  Zn  Zn163  1  0.05447005  0.31126406  0.06238931  1
  Zn  Zn164  1  0.06045291  0.31286026  0.56061354  1
  Zn  Zn165  1  0.05933523  0.81202614  0.06227096  1
  Zn  Zn166  1  0.06589668  0.81270059  0.56429292  1
  Zn  Zn167  1  0.56135934  0.31087620  0.06650645  1
  Zn  Zn168  1  0.55753986  0.31550588  0.56756862  1
  Zn  Zn169  1  0.56027310  0.81366888  0.06158019  1
  Zn  Zn170  1  0.56631809  0.81061464  0.55781887  1
  O  O171  1  0.11376978  0.12186137  0.12684272  1
  O  O172  1  0.11153043  0.12491926  0.62772762  1
  O  O173  1  0.10704979  0.62825565  0.12021399  1
  O  O174  1  0.12620860  0.62729193  0.61366377  1
  O  O175  1  0.61950323  0.11876855  0.11974471  1
  O  O176  1  0.63963869  0.13852754  0.60366155  1
  O  O177  1  0.61781762  0.62140858  0.11972448  1
  O  O178  1  0.61697707  0.62026875  0.61509362  1
  O  O179  1  0.37656058  0.38107954  0.38117836  1
  O  O180  1  0.37058169  0.38820365  0.87828775  1
  O  O181  1  0.39018601  0.88545525  0.36823994  1
  O  O182  1  0.38040346  0.88001064  0.88299876  1
  O  O183  1  0.86795183  0.38274693  0.38403818  1
  O  O184  1  0.87832724  0.38061341  0.87811775  1
  O  O185  1  0.88825728  0.87259165  0.36622712  1
  O  O186  1  0.88838873  0.87333607  0.88634389  1
  O  O187  1  0.25743937  0.00677125  0.37800695  1
  O  O188  1  0.25572201  -0.00272718  0.86167873  1
  O  O189  1  0.26278782  0.49793079  0.36321290  1
  O  O190  1  0.26289577  0.50570331  0.87085506  1
  O  O191  1  0.75186879  0.00806433  0.37177989  1
  O  O192  1  0.74504182  0.01400793  0.87765057  1
  O  O193  1  0.75752831  0.50596825  0.36645125  1
  O  O194  1  0.75908153  0.51165790  0.87304218  1
  O  O195  1  0.24534270  0.50534365  0.13206213  1
  O  O196  1  0.25013367  0.49569767  0.63365031  1
  O  O197  1  0.23373808  1.00713419  0.12480847  1
  O  O198  1  0.24888989  0.99684095  0.63274815  1
  O  O199  1  0.74814633  0.50015085  0.13056517  1
  O  O200  1  0.74204388  0.49392976  0.62480526  1
  O  O201  1  0.73578967  1.00331847  0.12658685  1
  O  O202  1  0.74719234  0.98324437  0.62603503  1
  O  O203  1  0.00571825  0.36299270  0.24983619  1
  O  O204  1  0.00693355  0.36979037  0.75237212  1
  O  O205  1  0.00850676  0.86861224  0.25808608  1
  O  O206  1  0.00565558  0.87253999  0.75606898  1
  O  O207  1  0.51052772  0.37015270  0.25119458  1
  O  O208  1  0.50028119  0.36189890  0.74599204  1
  O  O209  1  0.51114463  0.87877077  0.26350946  1
  O  O210  1  0.49161222  0.87969487  0.76176078  1
  O  O211  1  0.49313611  0.13158508  0.24733412  1
  O  O212  1  0.48729732  0.13433025  0.75293494  1
  O  O213  1  0.48870325  0.61984894  0.23888249  1
  O  O214  1  0.50304759  0.62655712  0.73499208  1
  O  O215  1  0.99362025  0.13249381  0.24619110  1
  O  O216  1  0.99252446  0.12797473  0.74392515  1
  O  O217  1  0.99785479  0.62251510  0.23544765  1
  O  O218  1  1.01164761  0.64087830  0.75185261  1
  O  O219  1  0.37770438  0.24788777  0.01563407  1
  O  O220  1  0.37065915  0.25492107  0.50575002  1
  O  O221  1  0.37068487  0.75832725  0.00980762  1
  O  O222  1  0.36022531  0.74538104  0.50419084  1
  O  O223  1  0.87245282  0.25572587  0.00664948  1
  O  O224  1  0.88080018  0.25421088  0.51161306  1
  O  O225  1  0.86806737  0.75864505  0.00411604  1
  O  O226  1  0.85707125  0.74622585  0.49889447  1
  O  O227  1  0.13034599  0.24837018  0.49241073  1
  O  O228  1  0.11555634  0.25152198  0.98494289  1
  O  O229  1  0.12896612  0.74093740  0.49514068  1
  O  O230  1  0.13571506  0.75395345  0.99964130  1
  O  O231  1  0.62898189  0.25442747  0.49355011  1
  O  O232  1  0.63240372  0.24203225  1.00464599  1
  O  O233  1  0.63734402  0.73358587  0.50072911  1
  O  O234  1  0.63213404  0.74718645  0.99619004  1
  O  O235  1  0.49482667  0.24245941  0.13368835  1
  O  O236  1  0.48692980  0.25146947  0.63415219  1
  O  O237  1  0.49046877  0.73880410  0.11873073  1
  O  O238  1  0.49960392  0.73825073  0.62079862  1
  O  O239  1  0.99496628  0.24204605  0.13446641  1
  O  O240  1  0.99325065  0.24176704  0.62948669  1
  O  O241  1  0.99240926  0.73953535  0.12486467  1
  O  O242  1  1.00010167  0.75435278  0.64162724  1
  O  O243  1  0.01306130  0.24064638  0.36897702  1
  O  O244  1  0.00542909  0.25682308  0.86745202  1
  O  O245  1  0.00453383  0.75183327  0.37305275  1
  O  O246  1  0.00460098  0.75846072  0.86601187  1
  O  O247  1  0.51413657  0.25138215  0.36881550  1
  O  O248  1  0.49579965  0.24944263  0.86283838  1
  O  O249  1  0.49421176  0.76273895  0.37942668  1
  O  O250  1  0.50771672  0.75857217  0.87982305  1
  O  O251  1  0.24770394  0.13186032  0.49229481  1
  O  O252  1  0.24407250  0.12155782  0.98891121  1
  O  O253  1  0.24026311  0.63931162  0.50328486  1
  O  O254  1  0.25046728  0.63470579  0.99608480  1
  O  O255  1  0.75744546  0.12802505  0.49310602  1
  O  O256  1  0.74778844  0.13027274  0.99856020  1
  O  O257  1  0.74180949  0.63081411  0.49056006  1
  O  O258  1  0.74241205  0.63365736  0.98898963  1
  O  O259  1  0.23260578  0.38825575  0.01858218  1
  O  O260  1  0.25910910  0.36893531  0.50377638  1
  O  O261  1  0.26341335  0.87101468  -0.00350159  1
  O  O262  1  0.24437750  0.86612729  0.50527466  1
  O  O263  1  0.75600628  0.37165748  0.00674196  1
  O  O264  1  0.76151158  0.37667587  0.51183603  1
  O  O265  1  0.76029034  0.86824232  -0.00520911  1
  O  O266  1  0.74371546  0.86089509  0.49300664  1
  O  O267  1  0.13288574  0.49342983  0.26046220  1
  O  O268  1  0.13154768  0.48576743  0.75366902  1
  O  O269  1  0.12310486  1.00191432  0.23447643  1
  O  O270  1  0.13202585  0.99320121  0.74856161  1
  O  O271  1  0.63440868  0.49636727  0.24341704  1
  O  O272  1  0.63015171  0.50017566  0.73832103  1
  O  O273  1  0.62505046  0.99743299  0.24129507  1
  O  O274  1  0.63106808  1.03308548  0.73584571  1
  O  O275  1  0.37789017  0.01305401  0.26009709  1
  O  O276  1  0.36911739  0.00775320  0.75129817  1
  O  O277  1  0.36829347  0.50596306  0.25452312  1
  O  O278  1  0.36958100  0.49574001  0.76262666  1
  O  O279  1  0.87483378  0.00934973  0.24908305  1
  O  O280  1  0.86990578  0.01120166  0.74510094  1
  O  O281  1  0.86364908  0.49234039  0.25633257  1
  O  O282  1  0.87454830  0.49457858  0.76179716  1
  O  O283  1  0.12879988  0.36595533  0.36942926  1
  O  O284  1  0.11658128  0.36583078  0.86646881  1
  O  O285  1  0.11368132  0.85958328  0.37538298  1
  O  O286  1  0.11419326  0.87680130  0.86857715  1
  O  O287  1  0.62844487  0.36956480  0.37021769  1
  O  O288  1  0.63635220  0.36761911  0.86792423  1
  O  O289  1  0.61239544  0.87491376  0.36214085  1
  O  O290  1  0.61298231  0.86741490  0.87890122  1
  O  O291  1  0.38081336  0.12957994  0.13451642  1
  O  O292  1  0.36863384  0.13515605  0.63339988  1
  O  O293  1  0.38268157  0.63307841  0.13137821  1
  O  O294  1  0.39544155  0.62137285  0.61653995  1
  O  O295  1  0.88518506  0.12870776  0.13282161  1
  O  O296  1  0.88321103  0.12920714  0.63015872  1
  O  O297  1  0.88767945  0.63569482  0.11389006  1
  O  O298  1  0.87581995  0.63158776  0.62516377  1
  O  O299  1  0.26380564  0.24640019  0.13055233  1
  O  O300  1  0.25980432  0.25623839  0.62145266  1
  O  O301  1  0.25999421  0.74524329  0.11426908  1
  O  O302  1  0.23984589  0.76243989  0.60589025  1
  O  O303  1  0.75674399  0.25425680  0.11951510  1
  O  O304  1  0.75439718  0.25207852  0.61402995  1
  O  O305  1  0.75732479  0.74305296  0.10973824  1
  O  O306  1  0.74821489  0.75975054  0.61372720  1
  O  O307  1  0.24100885  0.24288963  0.37733029  1
  O  O308  1  0.23349457  0.25440554  0.86887580  1
  O  O309  1  0.24252534  0.75547913  0.38942295  1
  O  O310  1  0.25176574  0.74498445  0.88969680  1
  O  O311  1  0.73911364  0.24346468  0.37158228  1
  O  O312  1  0.75360413  0.23960552  0.88695473  1
  O  O313  1  0.75133121  0.74078519  0.38260037  1
  O  O314  1  0.74397870  0.74694976  0.88359799  1
  O  O315  1  0.00253372  0.11887734  0.00935165  1
  O  O316  1  0.00242328  0.11804960  0.50890395  1
  O  O317  1  0.00341975  0.61723665  0.00253311  1
  O  O318  1  0.01301215  0.62425624  0.50454217  1
  O  O319  1  0.50603251  0.11814605  0.00467387  1
  O  O320  1  0.49961427  0.11323367  0.49468808  1
  O  O321  1  0.50564432  0.61883380  0.00732147  1
  O  O322  1  0.51560509  0.62689241  0.50075729  1
  O  O323  1  0.48544501  0.37131607  0.49794235  1
  O  O324  1  0.50833417  0.39076225  1.00559189  1
  O  O325  1  0.50896076  0.88242208  0.48365422  1
  O  O326  1  0.48858019  0.88032899  0.99489550  1
  O  O327  1  0.98526679  0.37702737  0.50349656  1
  O  O328  1  0.99281509  0.38483627  0.99467519  1
  O  O329  1  1.00428654  0.87967233  0.49193729  1
  O  O330  1  0.99533636  0.88233913  0.99252087  1
  O  O331  1  0.48773379  0.49690321  0.36822627  1
  O  O332  1  0.48855969  0.50579325  0.88104588  1
  O  O333  1  0.49454481  0.99783131  0.38464163  1
  O  O334  1  0.49365348  0.99236277  0.88280662  1
  O  O335  1  0.98606677  0.50499675  0.37489261  1
  O  O336  1  0.99523034  0.49795142  0.88271351  1
  O  O337  1  0.99972000  0.98908917  0.38091752  1
  O  O338  1  1.00436011  0.99470754  0.88586675  1
  O  O339  1  0.00723307  0.00754074  0.12018133  1
  O  O340  1  -0.00090428  0.00437172  0.61891125  1
  O  O341  1  -0.01100386  0.51066129  0.11320699  1
  O  O342  1  0.00846929  0.50130646  0.62120223  1
  O  O343  1  0.50674693  0.00734849  0.12117505  1
  O  O344  1  0.50084658  -0.00490585  0.60544112  1
  O  O345  1  0.50398993  0.50980718  0.11808218  1
  O  O346  1  0.51151214  0.50840707  0.62588374  1
  O  O347  1  0.23695247  0.38483580  0.24884985  1
  O  O348  1  0.24400614  0.38370575  0.74535000  1
  O  O349  1  0.24386991  0.88069231  0.25419877  1
  O  O350  1  0.24156468  0.88575668  0.74428683  1
  O  O351  1  0.74502617  0.38251542  0.24326587  1
  O  O352  1  0.74995552  0.37237759  0.73153263  1
  O  O353  1  0.72882769  0.87510578  0.25496133  1
  O  O354  1  0.74869685  0.87571821  0.74541119  1
  O  O355  1  0.25756919  0.11971383  0.25831226  1
  O  O356  1  0.25806468  0.11838055  0.75379706  1
  O  O357  1  0.26300537  0.61599665  0.24461781  1
  O  O358  1  0.23744713  0.60713507  0.76153477  1
  O  O359  1  0.76070337  0.12358945  0.25561456  1
  O  O360  1  0.76147240  0.13102199  0.76471444  1
  O  O361  1  0.74449505  0.61594562  0.25873586  1
  O  O362  1  0.74625196  0.62871590  0.76238528  1
  O  O363  1  0.36516676  0.12228036  0.36979057  1
  O  O364  1  0.37485075  0.11630057  0.86619817  1
  O  O365  1  0.37934919  0.61829716  0.36508285  1
  O  O366  1  0.36424679  0.61701828  0.88001289  1
  O  O367  1  0.86516365  0.12562498  0.36647709  1
  O  O368  1  0.86999376  0.12806089  0.86680915  1
  O  O369  1  0.86293268  0.61488707  0.37942312  1
  O  O370  1  0.86611305  0.61818917  0.88014790  1
  O  O371  1  0.11598319  0.38084382  0.13496321  1
  O  O372  1  0.13259392  0.37396959  0.63120866  1
  O  O373  1  0.11928062  0.88890181  0.12527252  1
  O  O374  1  0.13385419  0.87948083  0.63378757  1
  O  O375  1  0.63268799  0.38261662  0.13040723  1
  O  O376  1  0.63074116  0.38430249  0.62303286  1
  O  O377  1  0.61344551  0.88326134  0.13834272  1
  O  O378  1  0.64165935  0.87381949  0.62014166  1
  O  O379  1  0.11926229  0.25834216  0.25715119  1
  O  O380  1  0.12011230  0.25988300  0.75496296  1
  O  O381  1  0.12354839  0.74377367  0.25927741  1
  O  O382  1  0.12376273  0.76418542  0.75440885  1
  O  O383  1  0.62233720  0.25694799  0.25555774  1
  O  O384  1  0.60497578  0.24529370  0.74982281  1
  O  O385  1  0.62096235  0.75958310  0.24113041  1
  O  O386  1  0.62893857  0.74776796  0.76197408  1
  O  O387  1  0.37946450  0.24001246  0.25045729  1
  O  O388  1  0.38163410  0.24569233  0.74442097  1
  O  O389  1  0.36930113  0.74313715  0.24057912  1
  O  O390  1  0.32862241  0.73674398  0.73647974  1
  O  O391  1  0.88248691  0.24300020  0.24792742  1
  O  O392  1  0.87986282  0.24370151  0.73687326  1
  O  O393  1  0.87163442  0.75402443  0.23230562  1
  O  O394  1  0.89199222  0.75395172  0.75453903  1
  O  O395  1  0.36695956  0.49229793  0.48881118  1
  O  O396  1  0.38406353  0.50205171  0.98889762  1
  O  O397  1  0.38351854  1.00435274  0.48825235  1
  O  O398  1  0.37908039  0.99345768  0.99823704  1
  O  O399  1  0.87504430  0.49104290  0.49034027  1
  O  O400  1  0.88045013  0.49617574  0.98909948  1
  O  O401  1  0.89102254  1.00276138  0.49500248  1
  O  O402  1  0.88811583  0.99307755  1.00798933  1
  O  O403  1  0.11500718  0.00160116  0.01117263  1
  O  O404  1  0.11327992  0.00333466  0.50116453  1
  O  O405  1  0.11975115  0.49486612  0.00759607  1
  O  O406  1  0.12889696  0.51550466  0.49805321  1
  O  O407  1  0.61895621  0.00394690  0.00857980  1
  O  O408  1  0.61439469  0.00486371  0.49979603  1
  O  O409  1  0.62151554  0.50925474  0.00508210  1
  O  O410  1  0.63183973  0.51427371  0.50759919  1
  O  O411  1  0.37829683  0.35917079  0.13242411  1
  O  O412  1  0.37080791  0.37093118  0.61725079  1
  O  O413  1  0.38338866  0.86723897  0.12001155  1
  O  O414  1  0.36007637  0.87221761  0.62823083  1
  O  O415  1  0.87087818  0.36938349  0.11981998  1
  O  O416  1  0.86838773  0.36561013  0.61965091  1
  O  O417  1  0.88393373  0.86567895  0.11161775  1
  O  O418  1  0.85538785  0.86685420  0.62577986  1
  O  O419  1  0.13614351  0.13011503  0.37263610  1
  O  O420  1  0.12167862  0.14293249  0.87097456  1
  O  O421  1  0.12183747  0.63736708  0.38704263  1
  O  O422  1  0.14135645  0.62612603  0.88407235  1
  O  O423  1  0.63902137  0.13282747  0.36842140  1
  O  O424  1  0.63191090  0.13132458  0.88723073  1
  O  O425  1  0.63353215  0.61717461  0.38489608  1
  O  O426  1  0.62979696  0.63268878  0.87991031  1
