# generated using pymatgen
data_V85Zn86O256
_symmetry_space_group_name_H-M   'P 1'
_cell_length_a   16.97975353
_cell_length_b   16.96347910
_cell_length_c   16.97653302
_cell_angle_alpha   89.90556954
_cell_angle_beta   89.98764047
_cell_angle_gamma   89.96527942
_symmetry_Int_Tables_number   1
_chemical_formula_structural   V85Zn86O256
_chemical_formula_sum   'V85 Zn86 O256'
_cell_volume   4889.83982096
_cell_formula_units_Z   1
loop_
 _symmetry_equiv_pos_site_id
 _symmetry_equiv_pos_as_xyz
  1  'x, y, z'
loop_
 _atom_site_type_symbol
 _atom_site_label
 _atom_site_symmetry_multiplicity
 _atom_site_fract_x
 _atom_site_fract_y
 _atom_site_fract_z
 _atom_site_occupancy
  V  V0  1  0.37537097  0.24612182  0.62643936  1
  V  V1  1  0.37655011  0.87013852  0.49702000  1
  V  V2  1  0.37332574  0.13659166  0.24713566  1
  V  V3  1  -0.00558891  0.00478384  0.00533300  1
  V  V4  1  0.37689915  0.49450211  0.37088029  1
  V  V5  1  0.49557667  0.50208303  -0.00013363  1
  V  V6  1  0.62419837  0.87019743  0.76759717  1
  V  V7  1  -0.00330598  0.74985137  0.24993553  1
  V  V8  1  0.87757090  0.12557916  0.24355449  1
  V  V9  1  0.76288337  0.77003801  0.51147361  1
  V  V10  1  0.87820870  0.37317330  0.49869125  1
  V  V11  1  0.00907183  0.25646561  0.74848701  1
  V  V12  1  0.12377348  0.37266472  0.24708754  1
  V  V13  1  0.25401427  0.87562907  0.61877634  1
  V  V14  1  0.38383699  0.75313154  0.13027251  1
  V  V15  1  0.37341187  0.12287646  0.76704892  1
  V  V16  1  0.74605552  -0.00511640  0.24155473  1
  V  V17  1  0.24668248  0.38671161  0.62578698  1
  V  V18  1  0.87531552  0.37825209  -0.00629165  1
  V  V19  1  0.51755718  0.36861146  0.37069061  1
  V  V20  1  0.52098731  0.25239571  0.24801349  1
  V  V21  1  0.12670498  0.87073944  0.75079639  1
  V  V22  1  0.20313615  0.69754712  0.54608348  1
  V  V23  1  0.25762252  0.61877936  0.88142698  1
  V  V24  1  0.24992593  0.00050905  0.25010368  1
  V  V25  1  0.74738862  0.76382227  -0.00323828  1
  V  V26  1  0.37686404  0.61851308  0.75646783  1
  V  V27  1  0.00484155  0.38043393  0.86501524  1
  V  V28  1  0.75950439  0.50000073  0.75552456  1
  V  V29  1  0.01570043  0.51017798  0.50426185  1
  V  V30  1  0.12237497  0.49893223  0.12589460  1
  V  V31  1  0.87687278  0.50079110  0.37405038  1
  V  V32  1  0.88163850  0.24902905  0.12096327  1
  V  V33  1  0.12920853  0.12621914  -0.01027134  1
  V  V34  1  0.74718883  0.62361307  0.39016963  1
  V  V35  1  0.12182717  0.11939631  0.50076977  1
  V  V36  1  0.75001183  0.24637368  0.49804880  1
  V  V37  1  0.74385190  0.12849745  0.37063426  1
  V  V38  1  0.62406038  0.74598209  0.38566681  1
  V  V39  1  0.50081237  0.86994080  0.36306148  1
  V  V40  1  0.62464131  0.12701739  0.49705296  1
  V  V41  1  0.86719541  0.76463936  0.12173508  1
  V  V42  1  0.62392033  0.12451234  -0.00023695  1
  V  V43  1  -0.00433483  0.87627972  0.37543032  1
  V  V44  1  0.62695984  0.62480067  -0.00532529  1
  V  V45  1  0.62901835  0.86310482  0.24384557  1
  V  V46  1  0.25032036  0.63005395  0.37150187  1
  V  V47  1  0.87459724  -0.00245385  0.36867004  1
  V  V48  1  0.37441560  0.37184931  -0.00186061  1
  V  V49  1  0.38030570  0.36824949  0.49379795  1
  V  V50  1  0.25450497  0.00178553  0.76425221  1
  V  V51  1  0.49476721  0.38259769  0.87217680  1
  V  V52  1  0.12055617  0.00768227  0.12650304  1
  V  V53  1  0.00213903  0.12664646  0.62687520  1
  V  V54  1  0.25004330  0.75362133  0.00661367  1
  V  V55  1  0.74854799  -0.00228637  0.74614908  1
  V  V56  1  0.24908073  0.49862202  0.24790435  1
  V  V57  1  0.24644964  0.24616447  0.50155400  1
  V  V58  1  0.74118838  0.49828227  0.25333409  1
  V  V59  1  0.50297548  0.75261301  0.77128999  1
  V  V60  1  -0.00450160  0.87491810  0.88202103  1
  V  V61  1  0.62287019  -0.01098020  0.62366675  1
  V  V62  1  0.13171992  0.00014753  0.62334732  1
  V  V63  1  0.74800787  0.37619866  0.62524641  1
  V  V64  1  0.50060516  0.12206886  0.62511175  1
  V  V65  1  0.75035571  0.25116792  -0.00476789  1
  V  V66  1  -0.00600264  0.50133458  -0.00484529  1
  V  V67  1  -0.00004679  0.37295961  0.37383360  1
  V  V68  1  0.25443463  0.36433873  0.12224855  1
  V  V69  1  0.62287140  0.37654166  0.74992315  1
  V  V70  1  0.87679124  0.25028461  0.62658734  1
  V  V71  1  0.12426248  0.62773973  0.00162555  1
  V  V72  1  0.49639678  0.12569669  0.12299099  1
  V  V73  1  0.87088947  -0.00095333  0.87969346  1
  V  V74  1  0.38611234  0.75193651  0.62544475  1
  V  V75  1  0.37563424  0.00064979  0.37014906  1
  V  V76  1  0.12252681  0.24664258  0.37467012  1
  V  V77  1  -0.00693745  0.62590439  0.12592224  1
  V  V78  1  -0.00032943  0.24576863  0.24730566  1
  V  V79  1  0.38584795  0.62378393  0.24828595  1
  V  V80  1  0.75922023  0.62319437  0.87737097  1
  V  V81  1  -0.00934401  0.75090956  0.73663534  1
  V  V82  1  -0.03483249  -0.01827346  0.52788058  1
  V  V83  1  0.74439908  0.37614220  0.12826277  1
  V  V84  1  0.12534835  0.74726304  0.37225110  1
  Zn  Zn85  1  0.50720955  0.62417283  0.12816692  1
  Zn  Zn86  1  0.62447966  0.25327813  0.87411541  1
  Zn  Zn87  1  0.50004007  0.25190930  0.75087303  1
  Zn  Zn88  1  0.24853304  0.87835393  0.12362277  1
  Zn  Zn89  1  0.62251047  0.49866544  0.12784308  1
  Zn  Zn90  1  0.12047660  0.75181567  0.88024352  1
  Zn  Zn91  1  0.49660294  -0.00438379  -0.02641030  1
  Zn  Zn92  1  0.50898956  0.50528363  0.49713009  1
  Zn  Zn93  1  0.26190133  0.23938570  -0.00883116  1
  Zn  Zn94  1  0.74994090  0.12673513  0.87281925  1
  Zn  Zn95  1  0.87379465  0.63726032  0.74165477  1
  Zn  Zn96  1  0.12404324  0.87703355  0.24766629  1
  Zn  Zn97  1  0.24952051  0.12386418  0.37558029  1
  Zn  Zn98  1  0.37671878  0.88100179  -0.02653085  1
  Zn  Zn99  1  0.13311626  0.25414240  0.86804186  1
  Zn  Zn100  1  0.87328196  0.12545493  0.75151580  1
  Zn  Zn101  1  0.23984718  0.49241998  0.75799566  1
  Zn  Zn102  1  0.87011452  0.62643992  0.25069492  1
  Zn  Zn103  1  0.50101989  -0.00018626  0.49492200  1
  Zn  Zn104  1  0.62566331  -0.00775511  0.11987929  1
  Zn  Zn105  1  0.50742002  0.62369774  0.61900063  1
  Zn  Zn106  1  0.62432987  0.50705529  0.61626310  1
  Zn  Zn107  1  0.18593799  0.18362473  0.18212601  1
  Zn  Zn108  1  0.19258781  0.18712851  0.68946533  1
  Zn  Zn109  1  0.18651248  0.68698423  0.18882042  1
  Zn  Zn110  1  0.16376544  0.65216463  0.71642389  1
  Zn  Zn111  1  0.69223738  0.18546358  0.17966535  1
  Zn  Zn112  1  0.68656405  0.18725860  0.68731837  1
  Zn  Zn113  1  0.68936167  0.68271819  0.18774021  1
  Zn  Zn114  1  0.68901942  0.68996957  0.68378753  1
  Zn  Zn115  1  0.30916434  0.31099641  0.31335471  1
  Zn  Zn116  1  0.31283591  0.31393039  0.81258282  1
  Zn  Zn117  1  0.31323845  0.81325906  0.30598885  1
  Zn  Zn118  1  0.30382128  0.79680869  0.80895148  1
  Zn  Zn119  1  0.80993987  0.31153179  0.31107141  1
  Zn  Zn120  1  0.81790102  0.31744028  0.81013174  1
  Zn  Zn121  1  0.81012116  0.80875281  0.31592871  1
  Zn  Zn122  1  0.80988412  0.81606322  0.81515343  1
  Zn  Zn123  1  0.19212738  0.43432838  0.43618103  1
  Zn  Zn124  1  0.18550257  0.43641094  0.93891147  1
  Zn  Zn125  1  0.18626066  0.93443298  0.43560328  1
  Zn  Zn126  1  0.18453675  0.93523279  0.94108365  1
  Zn  Zn127  1  0.68861412  0.43631836  0.44072664  1
  Zn  Zn128  1  0.68316986  0.44048859  0.93672239  1
  Zn  Zn129  1  0.68736402  0.93903161  0.43319186  1
  Zn  Zn130  1  0.68473823  0.94284550  0.93740582  1
  Zn  Zn131  1  0.31149840  0.06332659  0.06318023  1
  Zn  Zn132  1  0.31544610  0.05955199  0.56246232  1
  Zn  Zn133  1  0.31452566  0.55901013  0.06528396  1
  Zn  Zn134  1  0.34594179  0.56615343  0.55582177  1
  Zn  Zn135  1  0.81136195  0.06326421  0.06174414  1
  Zn  Zn136  1  0.81172199  0.05389630  0.56698015  1
  Zn  Zn137  1  0.81050852  0.56328698  0.06347504  1
  Zn  Zn138  1  0.81899705  0.56245123  0.56547023  1
  Zn  Zn139  1  0.43932395  0.43343281  0.18502306  1
  Zn  Zn140  1  0.43397835  0.43948680  0.68412198  1
  Zn  Zn141  1  0.44017961  0.93805694  0.11598719  1
  Zn  Zn142  1  0.43455383  0.93546073  0.80275837  1
  Zn  Zn143  1  0.93234124  0.43634173  0.18660215  1
  Zn  Zn144  1  0.92892314  0.46745149  0.67552795  1
  Zn  Zn145  1  0.93993375  0.93749195  0.18775944  1
  Zn  Zn146  1  0.93722238  0.93778757  0.69677734  1
  Zn  Zn147  1  0.05993205  0.06255666  0.31290428  1
  Zn  Zn148  1  0.06110846  0.06074905  0.81131204  1
  Zn  Zn149  1  0.06205486  0.56349416  0.31532427  1
  Zn  Zn150  1  0.05984939  0.56328038  0.81613630  1
  Zn  Zn151  1  0.56077796  0.05913545  0.30681536  1
  Zn  Zn152  1  0.56738801  0.06972117  0.80842470  1
  Zn  Zn153  1  0.56524986  0.55944008  0.32013317  1
  Zn  Zn154  1  0.56994040  0.56460780  0.80885515  1
  Zn  Zn155  1  0.44079414  0.18788918  0.43207741  1
  Zn  Zn156  1  0.44312586  0.19503008  0.93832054  1
  Zn  Zn157  1  0.43678243  0.68854244  0.43560761  1
  Zn  Zn158  1  0.43550131  0.68886769  0.94487399  1
  Zn  Zn159  1  0.93667720  0.17896047  0.43800479  1
  Zn  Zn160  1  0.94203756  0.18572061  0.93313183  1
  Zn  Zn161  1  0.93451919  0.68592766  0.44243978  1
  Zn  Zn162  1  0.93227210  0.69155126  0.93908478  1
  Zn  Zn163  1  0.06283685  0.31204347  0.05886593  1
  Zn  Zn164  1  0.06396751  0.32059884  0.56372486  1
  Zn  Zn165  1  0.06048040  0.81830638  0.06557342  1
  Zn  Zn166  1  0.06023240  0.81467381  0.56204691  1
  Zn  Zn167  1  0.56104694  0.31170661  0.06258054  1
  Zn  Zn168  1  0.56396852  0.31113438  0.56160789  1
  Zn  Zn169  1  0.56365432  0.80930901  0.05706881  1
  Zn  Zn170  1  0.56248047  0.81265322  0.55680741  1
  O  O171  1  0.12322661  0.11362691  0.11494438  1
  O  O172  1  0.12285406  0.11838620  0.62092652  1
  O  O173  1  0.11259809  0.62228107  0.11884264  1
  O  O174  1  0.14314867  0.64542785  0.60291047  1
  O  O175  1  0.62085423  0.12721147  0.11147427  1
  O  O176  1  0.61789145  0.11972721  0.61858746  1
  O  O177  1  0.62632230  0.62087414  0.11421573  1
  O  O178  1  0.61832664  0.61903197  0.63970573  1
  O  O179  1  0.38003244  0.37382021  0.37835238  1
  O  O180  1  0.38384294  0.37928524  0.88278227  1
  O  O181  1  0.38110120  0.87836276  0.37665807  1
  O  O182  1  0.36876718  0.86831356  0.86373906  1
  O  O183  1  0.87993056  0.37895521  0.37844589  1
  O  O184  1  0.88583872  0.36806438  0.88978864  1
  O  O185  1  0.88460781  0.88383419  0.36794680  1
  O  O186  1  0.88190848  0.88880194  0.87276984  1
  O  O187  1  0.25513383  0.00252945  0.36906485  1
  O  O188  1  0.24425994  -0.00579838  0.86249009  1
  O  O189  1  0.25573785  0.50769178  0.36788226  1
  O  O190  1  0.24527508  0.51489624  0.87816491  1
  O  O191  1  0.75609461  0.00826687  0.36232393  1
  O  O192  1  0.75533885  0.00176952  0.86763165  1
  O  O193  1  0.75737032  0.50352810  0.37108410  1
  O  O194  1  0.74386204  0.51123604  0.86865038  1
  O  O195  1  0.24043417  0.49408672  0.13080579  1
  O  O196  1  0.26501558  0.48490103  0.61166200  1
  O  O197  1  0.24068788  1.00036325  0.13532717  1
  O  O198  1  0.24508585  0.99327801  0.63166254  1
  O  O199  1  0.75243974  0.49239227  0.13552262  1
  O  O200  1  0.74948471  0.48441515  0.63168504  1
  O  O201  1  0.74689391  1.00402761  0.13771051  1
  O  O202  1  0.73638339  1.00550980  0.63872297  1
  O  O203  1  0.00303769  0.36739507  0.25434918  1
  O  O204  1  -0.00774231  0.37093158  0.75854075  1
  O  O205  1  0.00203340  0.86822541  0.25914855  1
  O  O206  1  0.00618026  0.86811481  0.75695415  1
  O  O207  1  0.49876456  0.35922563  0.25354598  1
  O  O208  1  0.50440721  0.37746625  0.75560007  1
  O  O209  1  0.51549677  0.87372632  0.26154655  1
  O  O210  1  0.51163089  0.86073430  0.74949482  1
  O  O211  1  0.49447003  0.13838844  0.24786372  1
  O  O212  1  0.49213129  0.13025662  0.73909338  1
  O  O213  1  0.48856999  0.61665666  0.25089556  1
  O  O214  1  0.49351151  0.63816592  0.75609948  1
  O  O215  1  0.98874129  0.13226093  0.25270820  1
  O  O216  1  0.99836272  0.13408380  0.74306895  1
  O  O217  1  0.99692408  0.63086452  0.24167505  1
  O  O218  1  0.99779801  0.65074099  0.76365531  1
  O  O219  1  0.37732733  0.26661917  0.00184963  1
  O  O220  1  0.36710922  0.25226380  0.50196829  1
  O  O221  1  0.36720445  0.75207885  0.01599827  1
  O  O222  1  0.37599052  0.76414905  0.50487250  1
  O  O223  1  0.87243600  0.25406578  0.00506329  1
  O  O224  1  0.87231959  0.25065783  0.50940221  1
  O  O225  1  0.86256350  0.74920545  0.01314053  1
  O  O226  1  0.86193363  0.75324661  0.49642107  1
  O  O227  1  0.12998530  0.24236102  0.49702358  1
  O  O228  1  0.11743721  0.23143312  0.99930466  1
  O  O229  1  0.13481244  0.75642853  0.49193488  1
  O  O230  1  0.13046686  0.74350118  1.00688405  1
  O  O231  1  0.63464811  0.23505875  0.50542650  1
  O  O232  1  0.63536728  0.24654091  0.99911968  1
  O  O233  1  0.63711941  0.75532707  0.48965402  1
  O  O234  1  0.64079204  0.74153268  1.00789158  1
  O  O235  1  0.50477795  0.24235765  0.13889977  1
  O  O236  1  0.49233016  0.24062826  0.62362102  1
  O  O237  1  0.48605642  0.74362473  0.12420727  1
  O  O238  1  0.49225987  0.74902516  0.62399038  1
  O  O239  1  0.98715171  0.25586846  0.12809171  1
  O  O240  1  0.99466125  0.24933346  0.62810908  1
  O  O241  1  0.98816914  0.74479845  0.12623432  1
  O  O242  1  0.99935789  0.75582447  0.63752550  1
  O  O243  1  0.00347267  0.25215776  0.37021795  1
  O  O244  1  0.00296860  0.25846519  0.86362427  1
  O  O245  1  0.00513095  0.75621785  0.37361278  1
  O  O246  1  -0.00181642  0.76620014  0.87985980  1
  O  O247  1  0.49921647  0.25525550  0.35785439  1
  O  O248  1  0.50351581  0.26743017  0.87197744  1
  O  O249  1  0.51054461  0.75643478  0.38047356  1
  O  O250  1  0.50016385  0.75054683  0.86935317  1
  O  O251  1  0.24546040  0.13419416  0.50144514  1
  O  O252  1  0.23457696  0.12491080  1.00393041  1
  O  O253  1  0.26022989  0.62909131  0.49038863  1
  O  O254  1  0.24242027  0.62886738  1.00140784  1
  O  O255  1  0.74463245  0.12655937  0.49165725  1
  O  O256  1  0.74283982  0.13458810  0.99901908  1
  O  O257  1  0.75693607  0.62420574  0.49164386  1
  O  O258  1  0.74554710  0.62815296  0.99417101  1
  O  O259  1  0.25929266  0.38200132  0.00830320  1
  O  O260  1  0.25775909  0.36081514  0.50156044  1
  O  O261  1  0.25210373  0.86635935  0.00444844  1
  O  O262  1  0.25722916  0.88190146  0.51110415  1
  O  O263  1  0.75816855  0.37144084  0.00327312  1
  O  O264  1  0.75749042  0.36569184  0.50591878  1
  O  O265  1  0.74287739  0.86252911  -0.00135775  1
  O  O266  1  0.75193206  0.86932633  0.49661609  1
  O  O267  1  0.12775118  0.49304359  0.24574111  1
  O  O268  1  0.14065333  0.54308994  0.74376564  1
  O  O269  1  0.13071353  1.00406567  0.24375888  1
  O  O270  1  0.13082538  0.98890766  0.74382095  1
  O  O271  1  0.63774867  0.49980598  0.25056380  1
  O  O272  1  0.63572785  0.48628551  0.74930325  1
  O  O273  1  0.63316819  0.98669621  0.25109462  1
  O  O274  1  0.62909519  0.98962094  0.74396457  1
  O  O275  1  0.36552771  0.00950722  0.26180014  1
  O  O276  1  0.36473888  0.01165806  0.74571486  1
  O  O277  1  0.36872815  0.50376007  0.25244903  1
  O  O278  1  0.36686550  0.51696484  0.74628853  1
  O  O279  1  0.86979155  0.00659745  0.25231391  1
  O  O280  1  0.86338301  0.00080946  0.75892501  1
  O  O281  1  0.86917774  0.49901217  0.26217007  1
  O  O282  1  0.85625553  0.47472895  0.76447246  1
  O  O283  1  0.12087581  0.36578652  0.36593772  1
  O  O284  1  0.10895969  0.37469634  0.88108662  1
  O  O285  1  0.11640726  0.86474755  0.37299756  1
  O  O286  1  0.11670154  0.87434399  0.86639095  1
  O  O287  1  0.61640211  0.37160144  0.37556988  1
  O  O288  1  0.61903979  0.37359742  0.86602262  1
  O  O289  1  0.61880356  0.86712235  0.36987408  1
  O  O290  1  0.62262567  0.87627426  0.86554080  1
  O  O291  1  0.38352613  0.12452960  0.13559901  1
  O  O292  1  0.38202367  0.13375464  0.62301541  1
  O  O293  1  0.37553686  0.63218155  0.13344432  1
  O  O294  1  0.36899408  0.64140772  0.64169427  1
  O  O295  1  0.86842164  0.13451801  0.13498974  1
  O  O296  1  0.88171792  0.13415412  0.62658241  1
  O  O297  1  0.88480440  0.62957736  0.12618502  1
  O  O298  1  0.88901444  0.57600176  0.64879190  1
  O  O299  1  0.24227581  0.26210999  0.11671115  1
  O  O300  1  0.25839320  0.25399878  0.61727589  1
  O  O301  1  0.25466394  0.74824335  0.11785736  1
  O  O302  1  0.25715501  0.75693397  0.61537048  1
  O  O303  1  0.76075653  0.25696641  0.11416011  1
  O  O304  1  0.75884034  0.25683451  0.62153724  1
  O  O305  1  0.76234740  0.74532996  0.11731980  1
  O  O306  1  0.75006398  0.75290142  0.61038675  1
  O  O307  1  0.24061929  0.24630057  0.38369907  1
  O  O308  1  0.24396140  0.26223754  0.88181770  1
  O  O309  1  0.24293530  0.73890895  0.36661989  1
  O  O310  1  0.24382749  0.74059737  0.89463142  1
  O  O311  1  0.75620183  0.23546460  0.37949669  1
  O  O312  1  0.75405976  0.25204834  0.88687061  1
  O  O313  1  0.74492124  0.74053614  0.38449920  1
  O  O314  1  0.75558742  0.74493494  0.89137093  1
  O  O315  1  0.00901186  0.11162257  -0.00479202  1
  O  O316  1  0.00035624  0.10698684  0.51056519  1
  O  O317  1  0.00336517  0.62071360  0.00549900  1
  O  O318  1  -0.00191557  0.60955393  0.49699524  1
  O  O319  1  0.50611797  0.12788956  0.00876232  1
  O  O320  1  0.50892716  0.12479055  0.50228884  1
  O  O321  1  0.50802433  0.61855928  0.00110453  1
  O  O322  1  0.45582695  0.60986682  0.51173474  1
  O  O323  1  0.49317915  0.36382349  0.48630142  1
  O  O324  1  0.49481490  0.38198469  0.99492356  1
  O  O325  1  0.49187746  0.87950459  0.48847665  1
  O  O326  1  0.49109391  0.88498306  1.02109223  1
  O  O327  1  0.99535617  0.37378515  0.48704382  1
  O  O328  1  0.99374445  0.38434644  0.99561943  1
  O  O329  1  1.00373418  0.88747395  0.49227501  1
  O  O330  1  1.00656894  0.89067321  0.99181822  1
  O  O331  1  0.49339725  0.48568475  0.37332073  1
  O  O332  1  0.50828589  0.49025062  0.88266928  1
  O  O333  1  0.49088371  0.99166159  0.37287163  1
  O  O334  1  0.49768330  1.00458641  0.86363548  1
  O  O335  1  0.99264941  0.49239441  0.37642811  1
  O  O336  1  0.99997091  0.49504059  0.88469856  1
  O  O337  1  0.99130432  0.98974062  0.37331504  1
  O  O338  1  0.99201564  0.99260754  0.87901783  1
  O  O339  1  0.00521061  -0.00206190  0.11648770  1
  O  O340  1  0.01881139  0.00527029  0.62997316  1
  O  O341  1  0.00209679  0.50772526  0.12048610  1
  O  O342  1  0.01272834  0.48043940  0.60078317  1
  O  O343  1  0.51124184  0.02193125  0.14350883  1
  O  O344  1  0.50783576  0.01588379  0.61757306  1
  O  O345  1  0.50370921  0.50081567  0.11678230  1
  O  O346  1  0.50017011  0.50075307  0.61838732  1
  O  O347  1  0.24405042  0.37773831  0.24147197  1
  O  O348  1  0.26030530  0.38093609  0.73167465  1
  O  O349  1  0.24501073  0.89017831  0.25275367  1
  O  O350  1  0.24197133  0.87593210  0.73772339  1
  O  O351  1  0.75753362  0.38304922  0.23958703  1
  O  O352  1  0.74181550  0.37451169  0.74264394  1
  O  O353  1  0.73792326  0.88131610  0.25827084  1
  O  O354  1  0.73417853  0.88084006  0.75353928  1
  O  O355  1  0.25606617  0.11788764  0.25008613  1
  O  O356  1  0.26083397  0.11424610  0.74597496  1
  O  O357  1  0.25411890  0.61703809  0.25617504  1
  O  O358  1  0.26641304  0.64921024  0.77115726  1
  O  O359  1  0.75416621  0.11937765  0.25439185  1
  O  O360  1  0.74925436  0.11529972  0.75331338  1
  O  O361  1  0.75246151  0.61425414  0.26003573  1
  O  O362  1  0.75378335  0.61814155  0.75872812  1
  O  O363  1  0.37364882  0.11660048  0.36870521  1
  O  O364  1  0.37844053  0.13408907  0.86544740  1
  O  O365  1  0.36677787  0.62037967  0.36389347  1
  O  O366  1  0.36836596  0.62960358  0.87300135  1
  O  O367  1  0.86790368  0.12184307  0.35861621  1
  O  O368  1  0.87415249  0.11333183  0.87228433  1
  O  O369  1  0.86783905  0.61576090  0.37278947  1
  O  O370  1  0.86285529  0.62818244  0.87267820  1
  O  O371  1  0.12897456  0.37958600  0.12882482  1
  O  O372  1  0.14804463  0.37423110  0.61691285  1
  O  O373  1  0.12660932  0.88977810  0.12785437  1
  O  O374  1  0.13189689  0.88118335  0.62994151  1
  O  O375  1  0.64157364  0.37574137  0.11813985  1
  O  O376  1  0.63390428  0.37263903  0.63084316  1
  O  O377  1  0.62231779  0.87126345  0.14152681  1
  O  O378  1  0.61535412  0.88793298  0.62767921  1
  O  O379  1  0.11867923  0.25154644  0.25224126  1
  O  O380  1  0.11281570  0.24809780  0.74615875  1
  O  O381  1  0.11601450  0.75179884  0.25610504  1
  O  O382  1  0.11553377  0.75942476  0.75359051  1
  O  O383  1  0.61913403  0.24588938  0.24812293  1
  O  O384  1  0.62307846  0.26257171  0.75001678  1
  O  O385  1  0.63580858  0.75940704  0.26087237  1
  O  O386  1  0.61596362  0.76220110  0.74976084  1
  O  O387  1  0.37353057  0.23784456  0.25325218  1
  O  O388  1  0.37534727  0.24209619  0.73930503  1
  O  O389  1  0.36789869  0.73610001  0.23941175  1
  O  O390  1  0.39192379  0.74882051  0.74296146  1
  O  O391  1  0.87826559  0.24378752  0.24068154  1
  O  O392  1  0.88357781  0.25049861  0.73816785  1
  O  O393  1  0.87734049  0.74810525  0.23896321  1
  O  O394  1  0.88574985  0.75788576  0.74881273  1
  O  O395  1  0.37205874  0.47605258  0.48726394  1
  O  O396  1  0.38918395  0.49382885  1.00412349  1
  O  O397  1  0.37408232  0.99106937  0.48691498  1
  O  O398  1  0.38437267  0.98972197  1.02246414  1
  O  O399  1  0.88175416  0.49091893  0.48625541  1
  O  O400  1  0.88590432  0.49256782  1.00692257  1
  O  O401  1  0.87316198  1.02097483  0.47209560  1
  O  O402  1  0.88178844  1.00470107  0.99396216  1
  O  O403  1  0.11936488  0.00937148  0.00601853  1
  O  O404  1  0.12956152  0.00448962  0.51053687  1
  O  O405  1  0.11347209  0.50769399  0.00750999  1
  O  O406  1  0.11334338  0.49971262  0.48179958  1
  O  O407  1  0.61983879  0.00978792  0.00276668  1
  O  O408  1  0.62679406  0.00944932  0.50679697  1
  O  O409  1  0.61495333  0.50659621  0.00351724  1
  O  O410  1  0.62198825  0.49904548  0.50055365  1
  O  O411  1  0.36308021  0.38065310  0.11648823  1
  O  O412  1  0.37296065  0.36069761  0.61389486  1
  O  O413  1  0.36673914  0.85607469  0.14543973  1
  O  O414  1  0.36736202  0.86655614  0.61547131  1
  O  O415  1  0.86820231  0.36795650  0.11393169  1
  O  O416  1  0.86844409  0.36842504  0.61764695  1
  O  O417  1  0.87567423  0.86277376  0.12742942  1
  O  O418  1  0.88864646  0.94992832  0.59507260  1
  O  O419  1  0.12394524  0.12909654  0.38356817  1
  O  O420  1  0.12217375  0.12372358  0.88699385  1
  O  O421  1  0.13194579  0.63861727  0.37126367  1
  O  O422  1  0.12808211  0.63036959  0.89343390  1
  O  O423  1  0.63382553  0.11615851  0.38220055  1
  O  O424  1  0.62737448  0.13302878  0.88648658  1
  O  O425  1  0.63345462  0.63499225  0.37261943  1
  O  O426  1  0.63511027  0.62437654  0.88827325  1
