# generated using pymatgen
data_V85Zn86O256
_symmetry_space_group_name_H-M   'P 1'
_cell_length_a   16.94986428
_cell_length_b   16.94234678
_cell_length_c   16.95315131
_cell_angle_alpha   89.97870116
_cell_angle_beta   89.95583424
_cell_angle_gamma   90.01674553
_symmetry_Int_Tables_number   1
_chemical_formula_structural   V85Zn86O256
_chemical_formula_sum   'V85 Zn86 O256'
_cell_volume   4868.44258225
_cell_formula_units_Z   1
loop_
 _symmetry_equiv_pos_site_id
 _symmetry_equiv_pos_as_xyz
  1  'x, y, z'
loop_
 _atom_site_type_symbol
 _atom_site_label
 _atom_site_symmetry_multiplicity
 _atom_site_fract_x
 _atom_site_fract_y
 _atom_site_fract_z
 _atom_site_occupancy
  V  V0  1  0.62893136  0.38319721  0.74985697  1
  V  V1  1  0.24461869  0.89102798  0.13003719  1
  V  V2  1  0.12655752  0.12051129  0.49129461  1
  V  V3  1  0.73139870  0.87937302  0.63292879  1
  V  V4  1  0.63584203  0.25131859  0.87984559  1
  V  V5  1  0.37580923  0.37502947  0.00329307  1
  V  V6  1  0.87527727  0.24829672  0.62446521  1
  V  V7  1  0.62554979  0.37710536  0.24827872  1
  V  V8  1  0.36852450  0.00332434  0.37659076  1
  V  V9  1  0.37664142  0.62222010  0.74837399  1
  V  V10  1  0.24658070  0.74659291  0.50025816  1
  V  V11  1  0.87388506  0.88836463  -0.00400434  1
  V  V12  1  0.76079840  0.50708531  0.74484211  1
  V  V13  1  0.12520249  0.74748787  0.37740196  1
  V  V14  1  0.12205497  0.26682040  0.37133266  1
  V  V15  1  0.00029862  0.88542204  0.86902673  1
  V  V16  1  0.50229106  0.00002618  0.00606887  1
  V  V17  1  0.49379465  0.75007746  0.24110941  1
  V  V18  1  -0.00347473  0.74856815  0.75345432  1
  V  V19  1  0.23267434  0.49703698  0.25016527  1
  V  V20  1  0.37403651  0.74749003  0.62478423  1
  V  V21  1  -0.00330863  0.38264469  0.88666341  1
  V  V22  1  0.63054471  0.23596522  0.37435433  1
  V  V23  1  0.50661329  0.12162634  0.12778855  1
  V  V24  1  0.86911271  0.87296697  0.50527158  1
  V  V25  1  0.12398027  0.37420848  0.74903965  1
  V  V26  1  -0.00485152  0.13087641  0.13089483  1
  V  V27  1  0.74887346  0.75526872  -0.00234481  1
  V  V28  1  0.75369417  0.23946916  0.49293737  1
  V  V29  1  0.50234671  0.37233142  0.37617264  1
  V  V30  1  0.37845928  0.37053981  0.49948260  1
  V  V31  1  0.86278136  0.63023262  0.24688217  1
  V  V32  1  0.50198471  0.87801272  0.87244852  1
  V  V33  1  0.74852005  0.00882412  0.74950334  1
  V  V34  1  0.88907397  0.39064690  0.49185704  1
  V  V35  1  -0.00594785  0.87032424  0.37748519  1
  V  V36  1  0.25143640  0.36957481  0.62706331  1
  V  V37  1  0.50209142  0.24713493  0.74989487  1
  V  V38  1  0.63080457  0.12277036  0.00017843  1
  V  V39  1  0.74938147  0.37674267  0.62119321  1
  V  V40  1  -0.00645502  0.25203416  0.75134168  1
  V  V41  1  0.87168030  0.13344719  0.25873348  1
  V  V42  1  0.12735416  0.12033039  0.00954530  1
  V  V43  1  0.74233176  0.88686826  0.12452291  1
  V  V44  1  0.87272900  0.75765767  0.12259921  1
  V  V45  1  0.00447102  -0.00152078  0.00998585  1
  V  V46  1  -0.00004918  0.75057907  0.24890786  1
  V  V47  1  0.00606498  0.62405766  0.62046091  1
  V  V48  1  0.50333850  0.50071697  -0.00083644  1
  V  V49  1  0.50236603  0.49436974  0.50433764  1
  V  V50  1  0.86999697  0.74362044  0.63202758  1
  V  V51  1  0.11995724  0.62224578  -0.00202054  1
  V  V52  1  0.62036383  0.50467240  0.13092339  1
  V  V53  1  0.12811433  0.75803577  0.87038770  1
  V  V54  1  0.12764888  -0.00582636  0.63484782  1
  V  V55  1  0.24801127  0.24975956  -0.00035706  1
  V  V56  1  0.50117598  0.24843674  0.24635584  1
  V  V57  1  0.25326072  0.74757907  0.01375769  1
  V  V58  1  0.12332030  0.24901183  0.87511307  1
  V  V59  1  0.50385011  0.75323535  0.74823344  1
  V  V60  1  0.36934349  0.12222422  0.25198131  1
  V  V61  1  0.37546674  0.49928181  0.87535956  1
  V  V62  1  0.74629638  0.61195432  0.37022390  1
  V  V63  1  0.79471442  0.44867835  0.19015651  1
  V  V64  1  0.25271155  0.24030167  0.49520061  1
  V  V65  1  0.62622250  0.75268500  0.87112491  1
  V  V66  1  -0.00078190  0.12399380  0.63239799  1
  V  V67  1  0.37404380  0.87676172  0.50408137  1
  V  V68  1  0.50309200  0.37559840  0.87622583  1
  V  V69  1  0.23357328  0.37421204  0.12699178  1
  V  V70  1  0.24878901  0.62673044  0.87586840  1
  V  V71  1  0.37295319  0.12152032  0.75356841  1
  V  V72  1  0.87921529  0.50819311  0.88604278  1
  V  V73  1  0.76680402  0.12267555  0.87819431  1
  V  V74  1  0.74447357  0.00534179  0.25597203  1
  V  V75  1  0.37627595  0.87093906  0.00773945  1
  V  V76  1  0.74849729  0.74907774  0.49650877  1
  V  V77  1  0.51190931  0.00598420  0.50580116  1
  V  V78  1  0.50021915  0.62015035  0.62294147  1
  V  V79  1  -0.00154032  0.62589271  0.12099068  1
  V  V80  1  0.24982729  0.49854012  0.75076914  1
  V  V81  1  0.37575759  0.50008194  0.36774900  1
  V  V82  1  0.50071913  0.87344673  0.37464386  1
  V  V83  1  -0.00348119  -0.00242815  0.50601983  1
  V  V84  1  0.62475765  0.61912278  0.50240594  1
  Zn  Zn85  1  0.11941066  0.49799097  0.12149427  1
  Zn  Zn86  1  0.24829627  0.12074935  0.87558299  1
  Zn  Zn87  1  -0.00371678  0.26280316  0.25657509  1
  Zn  Zn88  1  0.12367112  0.88433157  0.24569665  1
  Zn  Zn89  1  0.36829233  0.62967366  0.24153420  1
  Zn  Zn90  1  0.75665686  0.63400155  0.86552138  1
  Zn  Zn91  1  0.51332853  0.10902835  0.63411237  1
  Zn  Zn92  1  0.49251214  0.63171455  0.11836689  1
  Zn  Zn93  1  0.62369609  0.74924790  0.37035337  1
  Zn  Zn94  1  0.20837388  0.04892184  0.30201165  1
  Zn  Zn95  1  0.24744450  -0.01096358  0.75995682  1
  Zn  Zn96  1  0.62050394  0.88018808  0.24487786  1
  Zn  Zn97  1  0.86748179  0.00653921  0.38222066  1
  Zn  Zn98  1  0.37454122  0.24929173  0.12652957  1
  Zn  Zn99  1  0.82563328  0.30230112  0.04898448  1
  Zn  Zn100  1  0.37570856  0.24226136  0.62445805  1
  Zn  Zn101  1  0.37308704  -0.00025732  0.87694879  1
  Zn  Zn102  1  0.08969763  0.56822190  0.45870852  1
  Zn  Zn103  1  0.12189409  0.50101977  0.62200562  1
  Zn  Zn104  1  0.24345340  0.86853460  0.63449793  1
  Zn  Zn105  1  0.62612161  0.62629445  -0.00175119  1
  Zn  Zn106  1  0.25236588  0.62585720  0.37320516  1
  Zn  Zn107  1  0.18296300  0.19123506  0.18438637  1
  Zn  Zn108  1  0.18625906  0.18272192  0.68699636  1
  Zn  Zn109  1  0.18391328  0.68652805  0.19182221  1
  Zn  Zn110  1  0.18626229  0.69062125  0.69139417  1
  Zn  Zn111  1  0.69407097  0.18762664  0.18638857  1
  Zn  Zn112  1  0.69212668  0.18618612  0.69453903  1
  Zn  Zn113  1  0.67908965  0.69323193  0.18475166  1
  Zn  Zn114  1  0.68326167  0.68732731  0.68366761  1
  Zn  Zn115  1  0.31042014  0.31151865  0.31135639  1
  Zn  Zn116  1  0.31427765  0.30852509  0.81526985  1
  Zn  Zn117  1  0.31376377  0.81759211  0.31179114  1
  Zn  Zn118  1  0.31601784  0.81398888  0.81486004  1
  Zn  Zn119  1  0.81952983  0.31478320  0.32102545  1
  Zn  Zn120  1  0.81431330  0.31815502  0.82054010  1
  Zn  Zn121  1  0.80797898  0.81335064  0.31340438  1
  Zn  Zn122  1  0.81507293  0.82475241  0.81025954  1
  Zn  Zn123  1  0.19785915  0.43200480  0.44039167  1
  Zn  Zn124  1  0.18351638  0.43650714  0.93772128  1
  Zn  Zn125  1  0.18278151  0.92900523  0.44528673  1
  Zn  Zn126  1  0.18824459  0.93694491  0.94051076  1
  Zn  Zn127  1  0.68733575  0.43062721  0.44042264  1
  Zn  Zn128  1  0.69662699  0.44232571  0.93701013  1
  Zn  Zn129  1  0.68542427  0.93716160  0.43634832  1
  Zn  Zn130  1  0.68561392  0.94288655  0.93066740  1
  Zn  Zn131  1  0.31886500  0.06387865  0.06218651  1
  Zn  Zn132  1  0.31574478  0.06184007  0.56924254  1
  Zn  Zn133  1  0.31150303  0.56221710  0.06686531  1
  Zn  Zn134  1  0.30317982  0.55657332  0.55705518  1
  Zn  Zn135  1  0.81308215  0.07007440  0.06846210  1
  Zn  Zn136  1  0.81050066  0.06180327  0.56957129  1
  Zn  Zn137  1  0.81294684  0.57289794  0.05475771  1
  Zn  Zn138  1  0.81286863  0.56487828  0.56415031  1
  Zn  Zn139  1  0.43676449  0.43671446  0.18470176  1
  Zn  Zn140  1  0.43788125  0.43169474  0.68642948  1
  Zn  Zn141  1  0.43226323  0.93817464  0.18801797  1
  Zn  Zn142  1  0.43589647  0.93673855  0.68801050  1
  Zn  Zn143  1  0.95673981  0.43381737  0.17405275  1
  Zn  Zn144  1  0.93605399  0.43736585  0.68454002  1
  Zn  Zn145  1  0.93083198  0.94346213  0.18938681  1
  Zn  Zn146  1  0.93157582  0.93506324  0.69093589  1
  Zn  Zn147  1  0.04480185  0.05614188  0.31570777  1
  Zn  Zn148  1  0.05989164  0.06535113  0.81704545  1
  Zn  Zn149  1  0.02420850  0.44244054  0.33879310  1
  Zn  Zn150  1  0.06043821  0.56643560  0.80673420  1
  Zn  Zn151  1  0.55920635  0.05803579  0.31574403  1
  Zn  Zn152  1  0.56922232  0.06086153  0.81440199  1
  Zn  Zn153  1  0.55948174  0.56531752  0.31459981  1
  Zn  Zn154  1  0.56751201  0.56510902  0.81218502  1
  Zn  Zn155  1  0.44089835  0.18408048  0.43467389  1
  Zn  Zn156  1  0.44024375  0.18859828  0.93656618  1
  Zn  Zn157  1  0.43556653  0.68655450  0.43328770  1
  Zn  Zn158  1  0.43577437  0.68808935  0.93703713  1
  Zn  Zn159  1  0.93955739  0.18933603  0.44088388  1
  Zn  Zn160  1  0.94144587  0.19078324  0.94373015  1
  Zn  Zn161  1  0.95786723  0.63811106  0.40996797  1
  Zn  Zn162  1  0.93550450  0.69251029  0.93524500  1
  Zn  Zn163  1  0.03593682  0.30282270  0.05303062  1
  Zn  Zn164  1  0.06535796  0.31054932  0.56034047  1
  Zn  Zn165  1  0.06626172  0.81181427  0.05978145  1
  Zn  Zn166  1  0.05923628  0.80909724  0.56365297  1
  Zn  Zn167  1  0.66428082  0.31217817  0.05985332  1
  Zn  Zn168  1  0.58733302  0.26867614  0.58288924  1
  Zn  Zn169  1  0.56509785  0.81472514  0.06155223  1
  Zn  Zn170  1  0.55938531  0.80934478  0.55760300  1
  O  O171  1  0.12129716  0.12320574  0.11481937  1
  O  O172  1  0.11682121  0.11599786  0.61676692  1
  O  O173  1  0.11450951  0.63028528  0.11655968  1
  O  O174  1  0.10997978  0.62791293  0.63165593  1
  O  O175  1  0.61335420  0.12871966  0.11669263  1
  O  O176  1  0.61153787  0.16201683  0.62367298  1
  O  O177  1  0.61615108  0.61844839  0.12007376  1
  O  O178  1  0.61699629  0.62609039  0.61040801  1
  O  O179  1  0.38226418  0.37828053  0.37958053  1
  O  O180  1  0.37928760  0.37893141  0.88477887  1
  O  O181  1  0.38360101  0.88103970  0.38355017  1
  O  O182  1  0.38820239  0.87358669  0.88810006  1
  O  O183  1  0.88079459  0.37913419  0.39091213  1
  O  O184  1  0.88583345  0.39038789  0.87250772  1
  O  O185  1  0.88039671  0.86814518  0.38929762  1
  O  O186  1  0.88722133  0.87160158  0.88623696  1
  O  O187  1  0.26295477  -0.00868746  0.38487143  1
  O  O188  1  0.25365061  0.00302976  0.87685458  1
  O  O189  1  0.25879999  0.49694529  0.36462750  1
  O  O190  1  0.25485227  0.50397972  0.86853291  1
  O  O191  1  0.75249849  -0.00768216  0.36151966  1
  O  O192  1  0.75140342  0.01525114  0.86826263  1
  O  O193  1  0.74258644  0.51307375  0.37860070  1
  O  O194  1  0.76276101  0.50526519  0.86375455  1
  O  O195  1  0.24438403  0.49065981  0.13171630  1
  O  O196  1  0.25682619  0.48871027  0.63914436  1
  O  O197  1  0.25181119  0.98957985  0.12052629  1
  O  O198  1  0.23396547  0.99943263  0.62617601  1
  O  O199  1  0.73978030  0.50868359  0.12383556  1
  O  O200  1  0.75408255  0.49243586  0.63616302  1
  O  O201  1  0.75503262  0.99669576  0.13912747  1
  O  O202  1  0.74731709  0.98931131  0.63316325  1
  O  O203  1  -0.00209060  0.37620653  0.25581248  1
  O  O204  1  0.00763980  0.36965964  0.75123571  1
  O  O205  1  -0.00905656  0.86563139  0.25935930  1
  O  O206  1  -0.00316788  0.86726359  0.76044142  1
  O  O207  1  0.50651171  0.36625070  0.25341051  1
  O  O208  1  0.50985048  0.37393109  0.75787446  1
  O  O209  1  0.49782350  0.86977715  0.25647103  1
  O  O210  1  0.49341962  0.86507484  0.76007144  1
  O  O211  1  0.49469102  0.12740416  0.24474471  1
  O  O212  1  0.49692028  0.13242371  0.75404402  1
  O  O213  1  0.50057068  0.64241751  0.25089991  1
  O  O214  1  0.49706924  0.62827888  0.74261260  1
  O  O215  1  0.98508078  0.12476199  0.24729843  1
  O  O216  1  1.00345145  0.13455080  0.74051320  1
  O  O217  1  0.98476090  0.64256331  0.23852115  1
  O  O218  1  0.99977738  0.64170603  0.74162507  1
  O  O219  1  0.36737111  0.25751635  0.00024494  1
  O  O220  1  0.36932091  0.25069197  0.49965128  1
  O  O221  1  0.36561507  0.75817258  -0.00398150  1
  O  O222  1  0.37287162  0.76021241  0.50307725  1
  O  O223  1  0.92629880  0.27270358  0.01578432  1
  O  O224  1  0.86867236  0.25799815  0.50511165  1
  O  O225  1  0.86644586  0.76341965  0.00302249  1
  O  O226  1  0.85722791  0.75582504  0.50977226  1
  O  O227  1  0.13201753  0.24123879  0.49120446  1
  O  O228  1  0.13069363  0.24296370  0.99632961  1
  O  O229  1  0.13570760  0.75905000  0.49394442  1
  O  O230  1  0.13414899  0.74280832  0.99061618  1
  O  O231  1  0.64491578  0.26150333  0.48577108  1
  O  O232  1  0.61428031  0.23669100  0.98522256  1
  O  O233  1  0.63336556  0.74111528  0.49867722  1
  O  O234  1  0.63253919  0.75205338  0.99097289  1
  O  O235  1  0.49926247  0.24176676  0.14109576  1
  O  O236  1  0.49117071  0.26625318  0.64606726  1
  O  O237  1  0.50206578  0.75434977  0.13716663  1
  O  O238  1  0.49454753  0.74380978  0.63118002  1
  O  O239  1  1.01906301  0.23261448  0.14307057  1
  O  O240  1  0.99657197  0.24355294  0.63080709  1
  O  O241  1  0.99383544  0.75022750  0.13036955  1
  O  O242  1  0.99149553  0.74690291  0.63419586  1
  O  O243  1  0.01955184  0.24330413  0.37687324  1
  O  O244  1  0.00426161  0.26096005  0.86599141  1
  O  O245  1  0.00377602  0.74892652  0.36776629  1
  O  O246  1  0.00644849  0.75898528  0.86955242  1
  O  O247  1  0.50898636  0.25323236  0.36666665  1
  O  O248  1  0.50758640  0.25746747  0.86727123  1
  O  O249  1  0.50067796  0.75907210  0.36846046  1
  O  O250  1  0.50621763  0.75530251  0.86809015  1
  O  O251  1  0.24299367  0.13332372  0.50912582  1
  O  O252  1  0.24528709  0.13331324  1.00217055  1
  O  O253  1  0.26325191  0.64343748  0.49405117  1
  O  O254  1  0.24526546  0.63223280  0.99423898  1
  O  O255  1  0.75671087  0.14063261  0.50425447  1
  O  O256  1  0.74396510  0.11934816  0.98948514  1
  O  O257  1  0.74297164  0.63019003  0.49505232  1
  O  O258  1  0.74856730  0.64498860  0.99327228  1
  O  O259  1  0.25563883  0.36925148  0.00459011  1
  O  O260  1  0.25870616  0.36049336  0.50957155  1
  O  O261  1  0.25756913  0.86789703  0.00848910  1
  O  O262  1  0.25882503  0.86602373  0.50871333  1
  O  O263  1  0.74291087  0.35748801  -0.01041541  1
  O  O264  1  0.76004273  0.36932261  0.50801314  1
  O  O265  1  0.75521533  0.87567740  0.00207248  1
  O  O266  1  0.75120172  0.87024127  0.50841837  1
  O  O267  1  0.13280556  0.49752999  0.24698568  1
  O  O268  1  0.13334781  0.49320411  0.74736766  1
  O  O269  1  0.12132886  0.99630607  0.26035375  1
  O  O270  1  0.12397735  1.00812504  0.73725160  1
  O  O271  1  0.61577194  0.49535866  0.23993706  1
  O  O272  1  0.63645448  0.48836275  0.75690894  1
  O  O273  1  0.63865666  1.00047485  0.25386350  1
  O  O274  1  0.64545804  0.99767063  0.75750543  1
  O  O275  1  0.37829856  0.00867185  0.26233314  1
  O  O276  1  0.37592734  0.00857802  0.75469162  1
  O  O277  1  0.37410397  0.49622119  0.26070401  1
  O  O278  1  0.37155889  0.50220684  0.75704003  1
  O  O279  1  0.86435838  0.01008509  0.25691590  1
  O  O280  1  0.84913820  -0.01853671  0.75279455  1
  O  O281  1  0.86307684  0.50944975  0.23610453  1
  O  O282  1  0.86266677  0.49837439  0.75341086  1
  O  O283  1  0.11981618  0.36977650  0.38175794  1
  O  O284  1  0.12183477  0.36944619  0.86463367  1
  O  O285  1  0.10688584  0.86709694  0.37865793  1
  O  O286  1  0.11430379  0.86633406  0.88492978  1
  O  O287  1  0.62024846  0.37116490  0.36345987  1
  O  O288  1  0.62312901  0.36946068  0.86890235  1
  O  O289  1  0.61000238  0.87451945  0.37408312  1
  O  O290  1  0.61195599  0.86552748  0.88078237  1
  O  O291  1  0.38825021  0.12728268  0.13179335  1
  O  O292  1  0.38434765  0.12463377  0.63948736  1
  O  O293  1  0.38083073  0.62089624  0.12892107  1
  O  O294  1  0.37972604  0.62783104  0.62865651  1
  O  O295  1  0.88448930  0.12470010  0.13953152  1
  O  O296  1  0.88441207  0.13855190  0.62132052  1
  O  O297  1  0.87735960  0.63655035  0.12802129  1
  O  O298  1  0.88266932  0.63880164  0.62190997  1
  O  O299  1  0.25164445  0.25701922  0.11500797  1
  O  O300  1  0.25174905  0.25434998  0.61902770  1
  O  O301  1  0.24536836  0.75259519  0.11516905  1
  O  O302  1  0.25595697  0.74818310  0.61887384  1
  O  O303  1  0.74484039  0.25005071  0.11213199  1
  O  O304  1  0.76048086  0.25624799  0.61864114  1
  O  O305  1  0.75162217  0.76101578  0.11462284  1
  O  O306  1  0.75272554  0.75816842  0.62176264  1
  O  O307  1  0.23862111  0.25615870  0.38651693  1
  O  O308  1  0.24353927  0.24928927  0.88736225  1
  O  O309  1  0.24209795  0.75863656  0.38193952  1
  O  O310  1  0.24341047  0.74569124  0.88207964  1
  O  O311  1  0.74735710  0.25105684  0.38549984  1
  O  O312  1  0.74527141  0.23620494  0.86490665  1
  O  O313  1  0.74472295  0.74500500  0.38369396  1
  O  O314  1  0.74270189  0.75724422  0.87745746  1
  O  O315  1  0.00676265  0.11690020  0.01060940  1
  O  O316  1  0.00719094  0.11959185  0.51094252  1
  O  O317  1  0.00840489  0.64000157  0.00813821  1
  O  O318  1  0.00462675  0.63689545  0.51768024  1
  O  O319  1  0.50451787  0.11814068  0.00708786  1
  O  O320  1  0.49391314  0.10812513  0.50295193  1
  O  O321  1  0.50085412  0.61209222  -0.00444943  1
  O  O322  1  0.50526580  0.61692008  0.50205440  1
  O  O323  1  0.49466594  0.38016812  0.49459978  1
  O  O324  1  0.49066696  0.38781997  0.99307887  1
  O  O325  1  0.49255259  0.88072902  0.49351345  1
  O  O326  1  0.49472997  0.88119923  0.99776076  1
  O  O327  1  0.98830753  0.37610966  0.50988563  1
  O  O328  1  1.02391898  0.39406050  0.98168347  1
  O  O329  1  0.98750114  0.87481984  0.49746012  1
  O  O330  1  0.99354433  0.88234541  0.99774460  1
  O  O331  1  0.49364000  0.49425207  0.38302726  1
  O  O332  1  0.49722680  0.49574095  0.87935427  1
  O  O333  1  0.48997117  0.99296473  0.38575765  1
  O  O334  1  0.50120854  0.99221849  0.88511012  1
  O  O335  1  1.00671399  0.53462572  0.39189423  1
  O  O336  1  0.98612251  0.49762639  0.86362512  1
  O  O337  1  0.98903211  0.98595687  0.38885530  1
  O  O338  1  1.00348626  0.99093029  0.88540525  1
  O  O339  1  -0.00360994  0.00816025  0.11677768  1
  O  O340  1  0.00341040  0.00585596  0.62607032  1
  O  O341  1  0.00191214  0.52078755  0.12116634  1
  O  O342  1  0.00060678  0.51924162  0.63355056  1
  O  O343  1  0.49800038  0.00537085  0.11509770  1
  O  O344  1  0.50096573  -0.00570275  0.61089346  1
  O  O345  1  0.50736139  0.49863869  0.11512492  1
  O  O346  1  0.49210664  0.50141266  0.61079577  1
  O  O347  1  0.25525743  0.38147511  0.23637838  1
  O  O348  1  0.24631222  0.37596678  0.74507643  1
  O  O349  1  0.25082256  0.87336710  0.23318625  1
  O  O350  1  0.25529064  0.87558147  0.74637575  1
  O  O351  1  0.74589068  0.38359249  0.25633358  1
  O  O352  1  0.74701015  0.38403941  0.74522526  1
  O  O353  1  0.74949179  0.88645480  0.24146891  1
  O  O354  1  0.74244811  0.87354952  0.73540259  1
  O  O355  1  0.26400323  0.12979727  0.24333575  1
  O  O356  1  0.25992833  0.12327758  0.75313815  1
  O  O357  1  0.24967679  0.61345261  0.25186717  1
  O  O358  1  0.25537572  0.61875046  0.75576072  1
  O  O359  1  0.75917363  0.11543997  0.24928825  1
  O  O360  1  0.75606832  0.11701741  0.75902467  1
  O  O361  1  0.75104845  0.63383869  0.25548411  1
  O  O362  1  0.74272529  0.61045490  0.74674418  1
  O  O363  1  0.37772516  0.11529527  0.36614199  1
  O  O364  1  0.37497694  0.12448037  0.86583591  1
  O  O365  1  0.37348781  0.61370725  0.36850857  1
  O  O366  1  0.36892252  0.61922679  0.86837769  1
  O  O367  1  0.88014716  0.12430836  0.36418652  1
  O  O368  1  0.86567357  0.13156894  0.88336907  1
  O  O369  1  0.86041565  0.63085215  0.35483170  1
  O  O370  1  0.87491443  0.61515335  0.87444468  1
  O  O371  1  0.13223577  0.37501766  0.11448984  1
  O  O372  1  0.13708977  0.37419215  0.62991055  1
  O  O373  1  0.14040028  0.87378526  0.12311880  1
  O  O374  1  0.12047669  0.89126748  0.62176502  1
  O  O375  1  0.62569800  0.38627647  0.14066891  1
  O  O376  1  0.64177745  0.36486553  0.63543404  1
  O  O377  1  0.63866878  0.87823038  0.12291485  1
  O  O378  1  0.63453592  0.87050241  0.62041981  1
  O  O379  1  0.13141389  0.24671312  0.27146740  1
  O  O380  1  0.11584127  0.25374287  0.75333113  1
  O  O381  1  0.11462964  0.75842530  0.25687775  1
  O  O382  1  0.11766146  0.74959843  0.76391037  1
  O  O383  1  0.62203394  0.25749014  0.25605654  1
  O  O384  1  0.62079309  0.26065418  0.76350383  1
  O  O385  1  0.61127775  0.75937946  0.25163112  1
  O  O386  1  0.61203643  0.74642572  0.75486664  1
  O  O387  1  0.38436933  0.24188284  0.25226159  1
  O  O388  1  0.38421953  0.24132176  0.75359350  1
  O  O389  1  0.38976304  0.75111727  0.25572661  1
  O  O390  1  0.38668657  0.74060127  0.74747641  1
  O  O391  1  0.87445159  0.23795247  0.25545144  1
  O  O392  1  0.88718771  0.25907179  0.74184391  1
  O  O393  1  0.87511479  0.74773424  0.24143770  1
  O  O394  1  0.88123847  0.75637866  0.74256321  1
  O  O395  1  0.37802771  0.49191197  0.48796405  1
  O  O396  1  0.37911374  0.49310759  0.99375791  1
  O  O397  1  0.37859080  0.99053421  0.49817870  1
  O  O398  1  0.38571908  0.99234829  0.99804036  1
  O  O399  1  0.87385292  0.48893548  0.50686886  1
  O  O400  1  0.87184437  0.50327951  0.98538451  1
  O  O401  1  0.87656260  0.99057375  0.50407110  1
  O  O402  1  0.88153903  0.99271436  1.00432745  1
  O  O403  1  0.11559078  0.00796621  -0.00168766  1
  O  O404  1  0.11685380  0.00396584  0.51001108  1
  O  O405  1  0.13284364  0.51904781  -0.00024156  1
  O  O406  1  0.16301490  0.50916591  0.51485931  1
  O  O407  1  0.61737384  0.01365986  -0.00532978  1
  O  O408  1  0.61031406  0.00002443  0.49537792  1
  O  O409  1  0.61833617  0.50125447  0.00717380  1
  O  O410  1  0.61371269  0.50492448  0.49560199  1
  O  O411  1  0.36924131  0.37348155  0.11207299  1
  O  O412  1  0.36360756  0.37013293  0.62072522  1
  O  O413  1  0.36477521  0.87747865  0.11457338  1
  O  O414  1  0.37686594  0.86574486  0.61633652  1
  O  O415  1  0.85655874  0.39290998  0.13167109  1
  O  O416  1  0.86768211  0.36635558  0.61988956  1
  O  O417  1  0.86483894  0.87439629  0.11691600  1
  O  O418  1  0.86736254  0.86528159  0.61652894  1
  O  O419  1  0.12719218  0.11589312  0.38791844  1
  O  O420  1  0.12335475  0.13319622  0.88794620  1
  O  O421  1  0.13330143  0.64428967  0.37789438  1
  O  O422  1  0.12856589  0.63321756  0.87939994  1
  O  O423  1  0.62094275  0.13708298  0.37164619  1
  O  O424  1  0.63492481  0.13315634  0.88169795  1
  O  O425  1  0.62813278  0.62758316  0.38563218  1
  O  O426  1  0.62909577  0.64029017  0.87638108  1
