# generated using pymatgen
data_V85Zn86O256
_symmetry_space_group_name_H-M   'P 1'
_cell_length_a   16.93745119
_cell_length_b   16.93709453
_cell_length_c   16.94207842
_cell_angle_alpha   89.99178202
_cell_angle_beta   90.01799947
_cell_angle_gamma   90.06355021
_symmetry_Int_Tables_number   1
_chemical_formula_structural   V85Zn86O256
_chemical_formula_sum   'V85 Zn86 O256'
_cell_volume   4860.19128848
_cell_formula_units_Z   1
loop_
 _symmetry_equiv_pos_site_id
 _symmetry_equiv_pos_as_xyz
  1  'x, y, z'
loop_
 _atom_site_type_symbol
 _atom_site_label
 _atom_site_symmetry_multiplicity
 _atom_site_fract_x
 _atom_site_fract_y
 _atom_site_fract_z
 _atom_site_occupancy
  V  V0  1  0.61881041  0.75190032  0.87765447  1
  V  V1  1  0.24981313  0.37409782  0.12657332  1
  V  V2  1  0.74832636  0.51062579  0.25197614  1
  V  V3  1  0.74987750  0.12409222  0.36866242  1
  V  V4  1  0.49951863  0.24896247  0.25259774  1
  V  V5  1  0.87684226  0.87488713  0.49869581  1
  V  V6  1  0.00559489  0.74426999  0.25465104  1
  V  V7  1  0.00214987  0.24501636  0.24947419  1
  V  V8  1  -0.00200302  0.13100310  0.62229601  1
  V  V9  1  0.49676394  0.49584204  0.51032147  1
  V  V10  1  0.49648481  0.12396872  0.12785045  1
  V  V11  1  0.24962901  0.25021572  0.00033625  1
  V  V12  1  0.37640934  0.61367722  0.74134746  1
  V  V13  1  0.75170696  0.87999383  0.63068736  1
  V  V14  1  0.87550034  0.11864042  0.24299742  1
  V  V15  1  0.87205069  0.49902515  0.86685832  1
  V  V16  1  0.75253802  0.74140102  0.49721575  1
  V  V17  1  0.37527416  0.24732567  0.12917712  1
  V  V18  1  0.87064908  0.50404647  0.37660497  1
  V  V19  1  0.75850143  0.24969015  0.50400192  1
  V  V20  1  0.75871991  0.37777488  0.62892773  1
  V  V21  1  0.74592434  0.62052196  0.86972568  1
  V  V22  1  0.87939783  0.24827218  0.12438180  1
  V  V23  1  0.37778809  0.62495144  0.25463622  1
  V  V24  1  0.12613707  0.48489139  0.62834393  1
  V  V25  1  0.74717095  0.11875074  0.86597609  1
  V  V26  1  0.36664581  0.75528862  0.12737535  1
  V  V27  1  0.62724829  0.37668087  0.25154874  1
  V  V28  1  0.00329890  0.62240122  0.62906139  1
  V  V29  1  0.26689225  0.36846086  0.62573149  1
  V  V30  1  0.36162881  0.87435624  0.00646052  1
  V  V31  1  0.12242877  -0.00629052  0.63046451  1
  V  V32  1  0.87293834  0.12938841  0.74411506  1
  V  V33  1  0.50295552  0.75317349  0.25263487  1
  V  V34  1  -0.00698418  0.00594359  0.01117050  1
  V  V35  1  0.05567717  0.67598569  0.07347934  1
  V  V36  1  0.24787672  0.49418695  0.75784654  1
  V  V37  1  0.62674858  0.12618700  0.49937376  1
  V  V38  1  0.74374139  0.74479851  -0.00003574  1
  V  V39  1  0.12469442  0.37130865  0.25470473  1
  V  V40  1  0.37223559  0.00234889  0.36084748  1
  V  V41  1  0.49041706  0.75250922  0.72984611  1
  V  V42  1  0.24945003  0.12476023  0.36400312  1
  V  V43  1  0.62428855  0.12509469  -0.00084338  1
  V  V44  1  0.55987319  0.56866812  -0.04523501  1
  V  V45  1  0.49760554  0.12967293  0.62479822  1
  V  V46  1  0.62198673  0.25226021  0.87378410  1
  V  V47  1  0.49619533  0.25339702  0.74608915  1
  V  V48  1  0.75071090  0.24913789  -0.00010767  1
  V  V49  1  0.26361067  0.25058627  0.49918631  1
  V  V50  1  0.14126577  0.00422757  0.13105092  1
  V  V51  1  0.87335917  0.74130001  0.12458972  1
  V  V52  1  0.01172737  0.75693205  0.74998728  1
  V  V53  1  0.12350159  0.25184464  0.86410452  1
  V  V54  1  0.50076656  -0.00109862  -0.00033862  1
  V  V55  1  0.24819415  0.12653661  0.87490752  1
  V  V56  1  0.24833764  0.62868194  0.37899591  1
  V  V57  1  0.37187612  0.12797156  0.74504579  1
  V  V58  1  0.11640312  0.12835920  0.00407335  1
  V  V59  1  0.00183487  0.49775897  0.49876023  1
  V  V60  1  0.00019418  0.36963634  0.37466379  1
  V  V61  1  0.87804560  0.37774663  -0.00011902  1
  V  V62  1  0.62863797  0.00311193  0.63161409  1
  V  V63  1  0.63118031  -0.00292675  0.13272729  1
  V  V64  1  0.13528544  0.87770997  0.24811075  1
  V  V65  1  0.87187269  0.87346517  -0.00109281  1
  V  V66  1  0.38287975  0.38257466  -0.00418100  1
  V  V67  1  0.25479804  0.87122629  0.63349261  1
  V  V68  1  0.37687319  0.49086606  0.38047962  1
  V  V69  1  0.86993649  -0.00410040  0.36934254  1
  V  V70  1  0.49574587  0.86944600  0.87563430  1
  V  V71  1  0.87261725  -0.00174154  0.86845421  1
  V  V72  1  0.37462036  0.00086410  0.87484236  1
  V  V73  1  0.87519820  0.74914847  0.62764710  1
  V  V74  1  0.62793657  0.38229280  0.74784183  1
  V  V75  1  0.00638963  0.87306108  0.37293344  1
  V  V76  1  0.50358075  0.61984723  0.12705067  1
  V  V77  1  0.49493744  0.00161996  0.50108780  1
  V  V78  1  0.24963473  0.49750316  0.25518269  1
  V  V79  1  0.12659981  0.62937256  0.50023875  1
  V  V80  1  0.00457788  0.37729687  0.86750555  1
  V  V81  1  0.63052272  0.74605658  0.37495023  1
  V  V82  1  0.62042935  0.62419132  0.50664456  1
  V  V83  1  0.25797939  0.75071603  0.50367670  1
  V  V84  1  0.12762328  0.12894639  0.49782139  1
  Zn  Zn85  1  0.87884349  0.36979859  0.50303171  1
  Zn  Zn86  1  0.63073367  0.50411847  0.62648211  1
  Zn  Zn87  1  0.62649207  0.87828031  0.75177942  1
  Zn  Zn88  1  0.24303339  0.62665165  0.88262274  1
  Zn  Zn89  1  0.86663343  0.62107801  0.74533747  1
  Zn  Zn90  1  0.24442522  -0.00209787  0.75319268  1
  Zn  Zn91  1  0.49911749  0.39333675  0.87653632  1
  Zn  Zn92  1  0.11543032  0.50139789  0.12568258  1
  Zn  Zn93  1  0.00197689  0.00051215  0.49702863  1
  Zn  Zn94  1  0.75035160  0.37796992  0.12678953  1
  Zn  Zn95  1  0.62600537  0.25125904  0.37594102  1
  Zn  Zn96  1  0.49855395  0.37184558  0.38078195  1
  Zn  Zn97  1  0.63397693  0.88119620  0.26156712  1
  Zn  Zn98  1  0.49984364  0.87540336  0.37745798  1
  Zn  Zn99  1  0.75213394  0.87614163  0.13258252  1
  Zn  Zn100  1  0.62480181  0.50269810  0.12227332  1
  Zn  Zn101  1  0.37593989  0.87336221  0.50176600  1
  Zn  Zn102  1  0.00541639  0.50627581  0.00287344  1
  Zn  Zn103  1  0.13543066  0.74832039  0.88875938  1
  Zn  Zn104  1  0.87833309  0.62343893  0.25052007  1
  Zn  Zn105  1  -0.00132255  0.25463903  0.74215455  1
  Zn  Zn106  1  0.00669247  0.88097875  0.86720127  1
  Zn  Zn107  1  0.18261563  0.18773431  0.18568024  1
  Zn  Zn108  1  0.18805550  0.18643332  0.68284665  1
  Zn  Zn109  1  0.19128919  0.69241484  0.19811180  1
  Zn  Zn110  1  0.19156931  0.68178844  0.68982041  1
  Zn  Zn111  1  0.68799184  0.18858292  0.18754708  1
  Zn  Zn112  1  0.68769615  0.19292423  0.68631392  1
  Zn  Zn113  1  0.68542070  0.68678334  0.18599506  1
  Zn  Zn114  1  0.68317545  0.69359735  0.68833171  1
  Zn  Zn115  1  0.31271319  0.30701612  0.31485177  1
  Zn  Zn116  1  0.31351432  0.31487550  0.81371920  1
  Zn  Zn117  1  0.31455928  0.81254556  0.31857212  1
  Zn  Zn118  1  0.31166467  0.80711098  0.81328559  1
  Zn  Zn119  1  0.81259023  0.31416961  0.31338818  1
  Zn  Zn120  1  0.81230653  0.31033020  0.81116526  1
  Zn  Zn121  1  0.81198400  0.81182995  0.30866619  1
  Zn  Zn122  1  0.81191945  0.81001381  0.81110122  1
  Zn  Zn123  1  0.18716268  0.43492493  0.43996018  1
  Zn  Zn124  1  0.18578148  0.43715834  0.94271009  1
  Zn  Zn125  1  0.18864308  0.94029335  0.43990374  1
  Zn  Zn126  1  0.18685988  0.94086770  0.93550072  1
  Zn  Zn127  1  0.68707626  0.43690303  0.43783754  1
  Zn  Zn128  1  0.69212250  0.43323857  0.93473561  1
  Zn  Zn129  1  0.68861556  0.93534889  0.44190103  1
  Zn  Zn130  1  0.68675594  0.93630242  0.93970059  1
  Zn  Zn131  1  0.31376705  0.06450555  0.06035221  1
  Zn  Zn132  1  0.31009320  0.06094241  0.56361542  1
  Zn  Zn133  1  0.31035157  0.55940427  0.07130059  1
  Zn  Zn134  1  0.31540792  0.56127767  0.56870586  1
  Zn  Zn135  1  0.81051454  0.06522774  0.05931591  1
  Zn  Zn136  1  0.81427125  0.06154099  0.55799028  1
  Zn  Zn137  1  0.81093048  0.56049736  0.05917188  1
  Zn  Zn138  1  0.81377219  0.56010143  0.56022549  1
  Zn  Zn139  1  0.43711066  0.43585400  0.18889481  1
  Zn  Zn140  1  0.43925746  0.43507202  0.68648091  1
  Zn  Zn141  1  0.44316379  0.93470676  0.18844213  1
  Zn  Zn142  1  0.43642165  0.93947995  0.68869478  1
  Zn  Zn143  1  0.93691862  0.43966435  0.18666417  1
  Zn  Zn144  1  0.93663563  0.43756736  0.68813541  1
  Zn  Zn145  1  0.93700643  0.93089244  0.18738199  1
  Zn  Zn146  1  0.93837414  0.94057789  0.68705773  1
  Zn  Zn147  1  0.06088488  0.06159105  0.31302933  1
  Zn  Zn148  1  0.05736064  0.06467497  0.81304618  1
  Zn  Zn149  1  0.06428012  0.55896555  0.31316958  1
  Zn  Zn150  1  0.06627580  0.56416502  0.81581425  1
  Zn  Zn151  1  0.55921806  0.06544381  0.31295230  1
  Zn  Zn152  1  0.55915487  0.06262696  0.81099972  1
  Zn  Zn153  1  0.56386080  0.56393976  0.31922977  1
  Zn  Zn154  1  0.56046394  0.57158795  0.79042511  1
  Zn  Zn155  1  0.43539566  0.18349813  0.43406263  1
  Zn  Zn156  1  0.43706944  0.19067651  0.93756077  1
  Zn  Zn157  1  0.43967080  0.68285550  0.44052065  1
  Zn  Zn158  1  0.38818072  0.67138935  0.95135111  1
  Zn  Zn159  1  0.93770630  0.18502648  0.43406444  1
  Zn  Zn160  1  0.93709817  0.18866783  0.93242279  1
  Zn  Zn161  1  0.94015070  0.68715494  0.43729801  1
  Zn  Zn162  1  0.93213055  0.68961813  0.92884305  1
  Zn  Zn163  1  0.06116911  0.31795480  0.06232243  1
  Zn  Zn164  1  0.06791577  0.30738127  0.55642145  1
  Zn  Zn165  1  0.08560747  0.84816470  0.03291382  1
  Zn  Zn166  1  0.06591862  0.81123230  0.56010662  1
  Zn  Zn167  1  0.56305069  0.31548014  0.06523197  1
  Zn  Zn168  1  0.56752578  0.31384152  0.56287098  1
  Zn  Zn169  1  0.55604034  0.81102896  0.06279480  1
  Zn  Zn170  1  0.56842258  0.81992752  0.55595333  1
  O  O171  1  0.12334735  0.11575693  0.11753808  1
  O  O172  1  0.11941137  0.11557307  0.61804308  1
  O  O173  1  0.12227175  0.62395993  0.13229346  1
  O  O174  1  0.11984950  0.61507101  0.61900427  1
  O  O175  1  0.61738511  0.11793995  0.12083572  1
  O  O176  1  0.62147446  0.12026795  0.61979652  1
  O  O177  1  0.61072958  0.62561678  0.12226394  1
  O  O178  1  0.63139631  0.62423145  0.61274427  1
  O  O179  1  0.37478307  0.38707555  0.37296363  1
  O  O180  1  0.38002091  0.37036851  0.88999047  1
  O  O181  1  0.37583603  0.89025340  0.38017086  1
  O  O182  1  0.38053068  0.88138167  0.88335862  1
  O  O183  1  0.88392951  0.38405182  0.37621777  1
  O  O184  1  0.87825055  0.37988037  0.87952554  1
  O  O185  1  0.88207205  0.88056110  0.37732112  1
  O  O186  1  0.87266101  0.88238697  0.88006359  1
  O  O187  1  0.26320856  0.01068670  0.37991489  1
  O  O188  1  0.25343120  0.00843448  0.87290043  1
  O  O189  1  0.25730961  0.50629545  0.37636143  1
  O  O190  1  0.24638949  0.48946313  0.85938623  1
  O  O191  1  0.76152226  0.00704006  0.38167834  1
  O  O192  1  0.75638514  0.00896510  0.87914527  1
  O  O193  1  0.75967107  0.49455273  0.36773873  1
  O  O194  1  0.75695650  0.50940956  0.87930543  1
  O  O195  1  0.25181582  0.48957242  0.13948632  1
  O  O196  1  0.24480186  0.48325709  0.62601946  1
  O  O197  1  0.23982814  1.00835141  0.12793197  1
  O  O198  1  0.23839967  0.99126192  0.62676024  1
  O  O199  1  0.74726735  0.49885800  0.13413192  1
  O  O200  1  0.74930029  0.48304607  0.61866941  1
  O  O201  1  0.73361876  1.00178162  0.11816698  1
  O  O202  1  0.74127167  0.99224191  0.61638247  1
  O  O203  1  0.00535824  0.36789707  0.25602681  1
  O  O204  1  -0.00495954  0.37169188  0.76226485  1
  O  O205  1  0.00545005  0.86579893  0.25592415  1
  O  O206  1  -0.00211197  0.86220993  0.74851815  1
  O  O207  1  0.50672075  0.36418099  0.25095468  1
  O  O208  1  0.50625894  0.36935685  0.75518924  1
  O  O209  1  0.50881522  0.86418485  0.25468818  1
  O  O210  1  0.50131116  0.86874419  0.75619705  1
  O  O211  1  0.50517882  0.13908316  0.24133941  1
  O  O212  1  0.49301825  0.13310879  0.74496168  1
  O  O213  1  0.49750922  0.63308402  0.24730958  1
  O  O214  1  0.48985519  0.64073480  0.73847072  1
  O  O215  1  0.98895694  0.13477077  0.25747998  1
  O  O216  1  0.99110182  0.12665536  0.74023894  1
  O  O217  1  1.00184900  0.63941741  0.25985954  1
  O  O218  1  0.99752026  0.63231789  0.73728830  1
  O  O219  1  0.37009170  0.25244534  0.01129746  1
  O  O220  1  0.36276596  0.24407110  0.50181128  1
  O  O221  1  0.38610401  0.76637514  0.01569172  1
  O  O222  1  0.36238426  0.74974528  0.49749958  1
  O  O223  1  0.87153512  0.25301708  0.00570983  1
  O  O224  1  0.86307287  0.24933659  0.49529651  1
  O  O225  1  0.86745269  0.75688842  0.00244312  1
  O  O226  1  0.87135298  0.75277879  0.50916490  1
  O  O227  1  0.13664024  0.23428906  0.50040450  1
  O  O228  1  0.12791856  0.24317635  0.99653581  1
  O  O229  1  0.13546157  0.73573515  0.50470295  1
  O  O230  1  0.11590253  0.73766213  1.02136900  1
  O  O231  1  0.63483009  0.24218442  0.49737155  1
  O  O232  1  0.62847023  0.24572014  0.99310696  1
  O  O233  1  0.63319097  0.74445992  0.49609352  1
  O  O234  1  0.62972921  0.75668660  0.98827224  1
  O  O235  1  0.49451207  0.24302249  0.13005057  1
  O  O236  1  0.50672910  0.24635634  0.63795665  1
  O  O237  1  0.49690034  0.74368583  0.13721284  1
  O  O238  1  0.50529229  0.76177834  0.63271658  1
  O  O239  1  0.98715115  0.25410633  0.13220327  1
  O  O240  1  1.00587181  0.23600423  0.62393197  1
  O  O241  1  0.99460800  0.74266416  0.13038505  1
  O  O242  1  0.99492865  0.74404332  0.62981124  1
  O  O243  1  -0.00741858  0.26146383  0.36549760  1
  O  O244  1  0.00787389  0.25655870  0.87138373  1
  O  O245  1  -0.00432697  0.76154638  0.36792434  1
  O  O246  1  -0.00373799  0.75106841  0.85577961  1
  O  O247  1  0.50031947  0.25061216  0.36687104  1
  O  O248  1  0.51259512  0.24581251  0.86622756  1
  O  O249  1  0.50649396  0.75003040  0.36882277  1
  O  O250  1  0.50317808  0.76278968  0.87213974  1
  O  O251  1  0.24624919  0.13350089  0.49771518  1
  O  O252  1  0.23972103  0.13081346  0.99503987  1
  O  O253  1  0.24539831  0.62875575  0.49900881  1
  O  O254  1  0.29035358  0.62265962  0.98626107  1
  O  O255  1  0.74711968  0.13089252  0.49112520  1
  O  O256  1  0.74392158  0.13111746  0.98795851  1
  O  O257  1  0.74628440  0.63648275  0.50363700  1
  O  O258  1  0.75245188  0.63841109  0.98830779  1
  O  O259  1  0.26093127  0.36613209  0.00573450  1
  O  O260  1  0.24553239  0.35840907  0.50644780  1
  O  O261  1  0.26312068  0.88457948  0.00406204  1
  O  O262  1  0.24930635  0.86627070  0.50754800  1
  O  O263  1  0.76204319  0.36694957  -0.00025103  1
  O  O264  1  0.75059499  0.36643610  0.50941860  1
  O  O265  1  0.75773108  0.86579156  0.00195306  1
  O  O266  1  0.75706227  0.86456659  0.51018839  1
  O  O267  1  0.13196899  0.48921198  0.24882705  1
  O  O268  1  0.13410856  0.50186909  0.73818964  1
  O  O269  1  0.11835333  0.99738370  0.23575196  1
  O  O270  1  0.12377971  1.00636069  0.73504519  1
  O  O271  1  0.63210217  0.49502560  0.25291995  1
  O  O272  1  0.62307115  0.48717448  0.74730379  1
  O  O273  1  0.61828486  1.00132162  0.23593823  1
  O  O274  1  0.62032529  1.00025295  0.73544308  1
  O  O275  1  0.38171004  -0.00046330  0.26244330  1
  O  O276  1  0.37364351  0.00969803  0.75870847  1
  O  O277  1  0.37012660  0.50439448  0.26032590  1
  O  O278  1  0.36901929  0.50603656  0.74327465  1
  O  O279  1  0.87917791  0.00780949  0.25487938  1
  O  O280  1  0.87929320  0.00850459  0.76207196  1
  O  O281  1  0.86585143  0.50075337  0.25764122  1
  O  O282  1  0.87568566  0.50201419  0.76174152  1
  O  O283  1  0.11782736  0.37705135  0.36382001  1
  O  O284  1  0.11555248  0.36325251  0.87990162  1
  O  O285  1  0.11226726  0.88977726  0.36708910  1
  O  O286  1  0.11136365  0.86083171  0.91374979  1
  O  O287  1  0.62258013  0.37264124  0.36321904  1
  O  O288  1  0.62263881  0.36749846  0.86835520  1
  O  O289  1  0.62224630  0.86256081  0.38058463  1
  O  O290  1  0.61747285  0.86980764  0.87218869  1
  O  O291  1  0.38848580  0.13053279  0.12031895  1
  O  O292  1  0.37853215  0.12032387  0.63858428  1
  O  O293  1  0.38492821  0.63266072  0.13811496  1
  O  O294  1  0.36508747  0.63351585  0.64084532  1
  O  O295  1  0.86921523  0.13043380  0.13548189  1
  O  O296  1  0.88427765  0.11528833  0.63215435  1
  O  O297  1  0.86887393  0.63759072  0.12476742  1
  O  O298  1  0.88298708  0.63114666  0.62429147  1
  O  O299  1  0.25797087  0.25208139  0.12193895  1
  O  O300  1  0.24718219  0.26059261  0.61587952  1
  O  O301  1  0.26761350  0.74794680  0.13423965  1
  O  O302  1  0.24180818  0.76495526  0.62077030  1
  O  O303  1  0.76070002  0.25057041  0.11863033  1
  O  O304  1  0.74719133  0.26138543  0.61554932  1
  O  O305  1  0.75398278  0.75041317  0.11541034  1
  O  O306  1  0.75830423  0.75583967  0.61945257  1
  O  O307  1  0.25525852  0.23666986  0.38695242  1
  O  O308  1  0.24200786  0.24658814  0.88040012  1
  O  O309  1  0.25330296  0.73576462  0.38424264  1
  O  O310  1  0.24924721  0.74608725  0.87704487  1
  O  O311  1  0.74981315  0.24099375  0.38134553  1
  O  O312  1  0.73861011  0.24313712  0.87796629  1
  O  O313  1  0.74505132  0.75302955  0.38599321  1
  O  O314  1  0.73880467  0.74576355  0.87949377  1
  O  O315  1  0.00860621  0.12081568  -0.00527523  1
  O  O316  1  0.00767360  0.12379104  0.50334351  1
  O  O317  1  -0.00330267  0.62843853  0.00344044  1
  O  O318  1  0.00811962  0.62179344  0.50980372  1
  O  O319  1  0.50612442  0.12111977  0.00616857  1
  O  O320  1  0.50571111  0.12239285  0.50616792  1
  O  O321  1  0.49048471  0.62673772  0.00730697  1
  O  O322  1  0.50860709  0.61174823  0.49957476  1
  O  O323  1  0.50821447  0.39022256  0.49820579  1
  O  O324  1  0.48838340  0.36741571  0.99629432  1
  O  O325  1  0.49603145  0.88709529  0.49833911  1
  O  O326  1  0.49574392  0.88284438  0.99200557  1
  O  O327  1  1.00125465  0.37634479  0.49131916  1
  O  O328  1  0.98675385  0.36912070  0.98773573  1
  O  O329  1  0.99556206  0.87381105  0.49122748  1
  O  O330  1  0.98023217  0.88633970  1.00018777  1
  O  O331  1  0.49190232  0.49822245  0.38452655  1
  O  O332  1  0.51072962  0.51250808  0.88079843  1
  O  O333  1  0.48917259  1.00383216  0.38206561  1
  O  O334  1  0.49609209  0.99078840  0.87826868  1
  O  O335  1  0.99613725  0.48830209  0.37952315  1
  O  O336  1  0.99261494  0.49279889  0.87705366  1
  O  O337  1  0.98731702  0.99339374  0.37523229  1
  O  O338  1  0.99052073  0.99952394  0.88445368  1
  O  O339  1  -0.00413187  0.00072045  0.11286479  1
  O  O340  1  0.00976642  0.00627316  0.62132530  1
  O  O341  1  -0.00077296  0.49989846  0.11943252  1
  O  O342  1  0.00638115  0.50468788  0.62102006  1
  O  O343  1  0.50722363  0.00826940  0.12073220  1
  O  O344  1  0.50601000  0.00738927  0.61871525  1
  O  O345  1  0.50089899  0.51368402  0.13271964  1
  O  O346  1  0.50555935  0.49699397  0.61373345  1
  O  O347  1  0.24193283  0.37432218  0.25003310  1
  O  O348  1  0.25629282  0.37699181  0.73425973  1
  O  O349  1  0.23401677  0.87079583  0.26136470  1
  O  O350  1  0.25186363  0.87799086  0.73689440  1
  O  O351  1  0.74229591  0.38217354  0.24879841  1
  O  O352  1  0.74429298  0.36785117  0.73740347  1
  O  O353  1  0.74530139  0.87401014  0.24543922  1
  O  O354  1  0.74774180  0.86922930  0.73505430  1
  O  O355  1  0.24557346  0.13318061  0.26564640  1
  O  O356  1  0.25736253  0.12530002  0.75492564  1
  O  O357  1  0.25536473  0.61932131  0.26259247  1
  O  O358  1  0.25758045  0.60870684  0.74773408  1
  O  O359  1  0.75797249  0.12972243  0.26125671  1
  O  O360  1  0.75390688  0.12849350  0.75860626  1
  O  O361  1  0.75104220  0.61406708  0.24988632  1
  O  O362  1  0.74532053  0.63210738  0.76464845  1
  O  O363  1  0.36328215  0.11365285  0.37554694  1
  O  O364  1  0.36953803  0.12139355  0.86867538  1
  O  O365  1  0.36876097  0.61465473  0.37272431  1
  O  O366  1  0.37511939  0.63561672  0.84334437  1
  O  O367  1  0.86880008  0.11647587  0.36563875  1
  O  O368  1  0.86598378  0.11827604  0.86864076  1
  O  O369  1  0.88319122  0.60861715  0.37513461  1
  O  O370  1  0.86367842  0.61740026  0.87028639  1
  O  O371  1  0.13321536  0.36860208  0.13887235  1
  O  O372  1  0.12878470  0.38242609  0.62050951  1
  O  O373  1  0.12327582  0.89565976  0.13034119  1
  O  O374  1  0.13171173  0.88869943  0.61898808  1
  O  O375  1  0.62637991  0.37898295  0.13718625  1
  O  O376  1  0.63629604  0.37637467  0.63333508  1
  O  O377  1  0.62218108  0.89147980  0.12173884  1
  O  O378  1  0.63486665  0.88540344  0.62468218  1
  O  O379  1  0.11000590  0.25366388  0.24745179  1
  O  O380  1  0.12332033  0.24254471  0.76140532  1
  O  O381  1  0.11550752  0.76328320  0.24541583  1
  O  O382  1  0.11150239  0.75007788  0.74166448  1
  O  O383  1  0.61852159  0.25785942  0.25058274  1
  O  O384  1  0.61913285  0.25954627  0.75674795  1
  O  O385  1  0.61987759  0.74823768  0.25971613  1
  O  O386  1  0.61132862  0.75112106  0.76138794  1
  O  O387  1  0.38281719  0.25439721  0.23738455  1
  O  O388  1  0.38601211  0.24218658  0.75742102  1
  O  O389  1  0.38513719  0.74702952  0.25043146  1
  O  O390  1  0.38932999  0.75732409  0.74284208  1
  O  O391  1  0.88084214  0.24456748  0.24210842  1
  O  O392  1  0.87710844  0.23349714  0.75464433  1
  O  O393  1  0.88435673  0.74684428  0.24078026  1
  O  O394  1  0.88036599  0.74716667  0.73715635  1
  O  O395  1  0.38885608  0.50465532  0.49686084  1
  O  O396  1  0.37754263  0.47947685  1.01039488  1
  O  O397  1  0.38675331  1.00461201  0.49628771  1
  O  O398  1  0.38241107  0.99609446  0.99535070  1
  O  O399  1  0.88414123  0.49501924  0.49415497  1
  O  O400  1  0.87596961  0.49125638  0.98878831  1
  O  O401  1  0.87873265  0.99160793  0.49003431  1
  O  O402  1  0.87629643  0.99726256  0.99144373  1
  O  O403  1  0.11645418  0.00855985  0.01196607  1
  O  O404  1  0.12500634  0.01001906  0.51116765  1
  O  O405  1  0.11991686  0.49082447  0.01124626  1
  O  O406  1  0.12049826  0.50669633  0.50820666  1
  O  O407  1  0.61879608  0.00687849  0.00666285  1
  O  O408  1  0.61480836  0.00638545  0.50671152  1
  O  O409  1  0.62358698  0.50071541  0.00100804  1
  O  O410  1  0.61696117  0.50825922  0.49911764  1
  O  O411  1  0.37122233  0.36484053  0.11929162  1
  O  O412  1  0.36509635  0.37377408  0.61989394  1
  O  O413  1  0.38195201  0.86902037  0.11870970  1
  O  O414  1  0.35741225  0.88526728  0.62058708  1
  O  O415  1  0.87271979  0.36645091  0.11574810  1
  O  O416  1  0.86361112  0.37411601  0.62454244  1
  O  O417  1  0.87260762  0.86207909  0.11677384  1
  O  O418  1  0.87108026  0.86995243  0.62013822  1
  O  O419  1  0.14041525  0.11299074  0.38318489  1
  O  O420  1  0.12805129  0.13064574  0.88340807  1
  O  O421  1  0.13623919  0.61510533  0.38748500  1
  O  O422  1  0.12875306  0.63498255  0.87181389  1
  O  O423  1  0.63471764  0.12416864  0.37975321  1
  O  O424  1  0.63055917  0.12956085  0.87645613  1
  O  O425  1  0.62335873  0.63826130  0.38842773  1
  O  O426  1  0.62183881  0.62943112  0.88096097  1
