# generated using pymatgen
data_V85Zn86O256
_symmetry_space_group_name_H-M   'P 1'
_cell_length_a   16.96264396
_cell_length_b   16.97747712
_cell_length_c   16.95568690
_cell_angle_alpha   90.01778041
_cell_angle_beta   89.95154373
_cell_angle_gamma   90.04321360
_symmetry_Int_Tables_number   1
_chemical_formula_structural   V85Zn86O256
_chemical_formula_sum   'V85 Zn86 O256'
_cell_volume   4882.94451093
_cell_formula_units_Z   1
loop_
 _symmetry_equiv_pos_site_id
 _symmetry_equiv_pos_as_xyz
  1  'x, y, z'
loop_
 _atom_site_type_symbol
 _atom_site_label
 _atom_site_symmetry_multiplicity
 _atom_site_fract_x
 _atom_site_fract_y
 _atom_site_fract_z
 _atom_site_occupancy
  V  V0  1  0.50004560  -0.00209251  0.50575713  1
  V  V1  1  0.74857856  0.62641350  0.87356976  1
  V  V2  1  0.25263991  0.89465863  0.62030249  1
  V  V3  1  0.87440744  0.50051474  0.87553101  1
  V  V4  1  0.25042773  0.36472642  0.61984741  1
  V  V5  1  0.00329940  0.87202892  0.37241503  1
  V  V6  1  0.37281125  0.62845089  0.74860650  1
  V  V7  1  0.12400632  0.73850548  0.38642909  1
  V  V8  1  0.62694716  0.24490199  0.38312992  1
  V  V9  1  0.62585353  0.74952361  0.37772317  1
  V  V10  1  0.37894001  0.25816197  0.12382094  1
  V  V11  1  0.25215594  0.12771301  0.89256985  1
  V  V12  1  0.75976679  0.00727604  0.75268412  1
  V  V13  1  0.15679631  0.86931306  0.25505720  1
  V  V14  1  0.75050881  0.61990177  0.36977328  1
  V  V15  1  0.00922848  0.00510517  0.50123659  1
  V  V16  1  0.74684612  0.50032395  0.75062086  1
  V  V17  1  0.13079550  0.37749097  0.24083292  1
  V  V18  1  0.88354278  0.86907635  0.50577503  1
  V  V19  1  0.38558857  0.12278869  0.24461710  1
  V  V20  1  0.63232802  0.37425434  0.25229197  1
  V  V21  1  0.37285847  0.76456017  0.12184214  1
  V  V22  1  0.24979758  0.76307297  0.00328854  1
  V  V23  1  0.74867602  0.00103514  0.25167706  1
  V  V24  1  0.87713191  0.00010317  0.37730968  1
  V  V25  1  0.88451719  -0.00045518  0.88598932  1
  V  V26  1  0.49688174  0.62607222  0.12604450  1
  V  V27  1  0.75721503  0.87423346  0.62793508  1
  V  V28  1  0.06344151  0.68736115  0.05837020  1
  V  V29  1  0.86960451  0.37427119  0.00116761  1
  V  V30  1  0.75010269  0.37570673  0.12541458  1
  V  V31  1  0.12459548  0.89747136  0.74101753  1
  V  V32  1  0.37548444  0.49904856  0.87649969  1
  V  V33  1  0.87074213  0.24551325  0.12127737  1
  V  V34  1  0.62205035  0.75235323  0.87689814  1
  V  V35  1  0.74997093  0.12326230  0.38626749  1
  V  V36  1  0.87216191  0.49714515  0.36615222  1
  V  V37  1  0.62173097  0.37377671  0.75201388  1
  V  V38  1  0.13246022  0.12772790  0.50297878  1
  V  V39  1  0.50389935  0.12749199  0.62209662  1
  V  V40  1  0.49695468  0.75362603  0.75098904  1
  V  V41  1  0.12329220  0.74706397  0.84986944  1
  V  V42  1  0.24952527  0.12737404  0.36908068  1
  V  V43  1  0.75504754  0.74801762  0.50680771  1
  V  V44  1  0.87413528  0.13123073  0.24881679  1
  V  V45  1  0.62426976  0.12723155  0.00318605  1
  V  V46  1  0.00315731  0.12956069  0.63856844  1
  V  V47  1  -0.00289813  0.37086034  0.86755624  1
  V  V48  1  0.88201257  0.25123407  0.64122287  1
  V  V49  1  0.62470619  0.62618604  0.00279009  1
  V  V50  1  0.25769474  0.74008800  0.50594576  1
  V  V51  1  0.50061559  0.37248626  0.37584012  1
  V  V52  1  0.62437780  0.87812782  0.75189351  1
  V  V53  1  0.00159761  0.50935715  0.00220584  1
  V  V54  1  0.75542862  0.12951679  0.87660884  1
  V  V55  1  0.37503571  0.50000868  0.37257263  1
  V  V56  1  0.24627190  0.50149372  0.74614906  1
  V  V57  1  0.12915185  0.25260094  0.87780923  1
  V  V58  1  0.62749826  0.50022514  0.13118525  1
  V  V59  1  0.74987796  0.37255943  0.62389645  1
  V  V60  1  0.62270868  0.49788744  0.62567937  1
  V  V61  1  0.49850717  0.87392810  0.38434961  1
  V  V62  1  0.49189731  -0.00275615  0.00378760  1
  V  V63  1  0.37167738  -0.00083315  0.38040561  1
  V  V64  1  0.37217056  -0.00630808  0.87590006  1
  V  V65  1  0.00022343  0.36710639  0.36345881  1
  V  V66  1  0.24643669  0.62630677  0.88289404  1
  V  V67  1  0.12600056  0.24575981  0.37758216  1
  V  V68  1  0.62648839  0.62302147  0.50116579  1
  V  V69  1  0.87652846  0.36923892  0.49797505  1
  V  V70  1  0.87907601  0.63130418  0.24110829  1
  V  V71  1  0.05601469  0.19529806  0.19211240  1
  V  V72  1  0.75265916  0.87107586  0.12363980  1
  V  V73  1  0.36490203  0.12445866  0.75105866  1
  V  V74  1  0.13057908  0.50152339  0.11654562  1
  V  V75  1  0.75838566  0.75140212  0.00213511  1
  V  V76  1  0.50038963  0.75039930  0.25064850  1
  V  V77  1  0.00918388  0.50192346  0.49420230  1
  V  V78  1  0.62238682  0.00646130  0.12511677  1
  V  V79  1  0.62615630  0.25009393  0.88271058  1
  V  V80  1  0.11738445  0.37533647  0.74657955  1
  V  V81  1  0.62957070  0.00680679  0.62390574  1
  V  V82  1  0.49746951  0.62571948  0.62459627  1
  V  V83  1  0.49735449  0.24860278  0.75270975  1
  V  V84  1  0.62706124  0.87575674  0.25275689  1
  Zn  Zn85  1  0.37177177  0.24698118  0.61871335  1
  Zn  Zn86  1  0.00189204  0.63443817  0.62444353  1
  Zn  Zn87  1  0.24024586  0.26640485  0.01335904  1
  Zn  Zn88  1  0.49940820  0.49895819  0.00087494  1
  Zn  Zn89  1  0.49778131  0.49753722  0.50050532  1
  Zn  Zn90  1  -0.01296708  0.76129362  0.73188912  1
  Zn  Zn91  1  0.49297372  0.87314501  0.87976476  1
  Zn  Zn92  1  0.37024141  0.62484193  0.24978407  1
  Zn  Zn93  1  0.36875937  0.36769145  0.49375659  1
  Zn  Zn94  1  0.37785306  0.76329005  0.62083294  1
  Zn  Zn95  1  0.04902569  0.05471768  0.06756993  1
  Zn  Zn96  1  0.49710880  0.37462110  0.88019346  1
  Zn  Zn97  1  0.87295628  0.63804282  0.73627693  1
  Zn  Zn98  1  0.25299028  0.50017479  0.24386832  1
  Zn  Zn99  1  0.50722850  0.24254549  0.24815459  1
  Zn  Zn100  1  0.25970685  -0.00924245  0.22319006  1
  Zn  Zn101  1  0.00454282  0.74580223  0.24252667  1
  Zn  Zn102  1  0.24355768  0.61598159  0.37737550  1
  Zn  Zn103  1  0.37072645  0.38250066  0.00823972  1
  Zn  Zn104  1  0.88714353  0.87533221  0.00164291  1
  Zn  Zn105  1  0.13054325  0.50142645  0.60949086  1
  Zn  Zn106  1  0.75043339  0.24309111  0.50655111  1
  Zn  Zn107  1  0.24430030  0.12582339  0.11865615  1
  Zn  Zn108  1  0.17873998  0.18611625  0.69602935  1
  Zn  Zn109  1  0.19270895  0.68857292  0.19321071  1
  Zn  Zn110  1  0.18499670  0.67709104  0.67573165  1
  Zn  Zn111  1  0.69067579  0.18928550  0.18984608  1
  Zn  Zn112  1  0.68872924  0.18915953  0.69176438  1
  Zn  Zn113  1  0.68958611  0.68771854  0.18936981  1
  Zn  Zn114  1  0.68582101  0.68913243  0.68882219  1
  Zn  Zn115  1  0.31144192  0.30941775  0.30657206  1
  Zn  Zn116  1  0.31027808  0.31483502  0.81034537  1
  Zn  Zn117  1  0.32286743  0.80131516  0.32605299  1
  Zn  Zn118  1  0.30213350  0.81648713  0.80622764  1
  Zn  Zn119  1  0.81023983  0.30859821  0.31048362  1
  Zn  Zn120  1  0.80819096  0.31394237  0.81446408  1
  Zn  Zn121  1  0.81433763  0.80926065  0.31677444  1
  Zn  Zn122  1  0.81186770  0.81913653  0.81581560  1
  Zn  Zn123  1  0.19006464  0.42912102  0.43017679  1
  Zn  Zn124  1  0.18852007  0.43737811  0.93774569  1
  Zn  Zn125  1  0.18848156  0.93240281  0.44283780  1
  Zn  Zn126  1  0.06601538  0.90597939  0.92659500  1
  Zn  Zn127  1  0.68876367  0.43651832  0.43943969  1
  Zn  Zn128  1  0.68455142  0.43723683  0.94189117  1
  Zn  Zn129  1  0.68784232  0.93772836  0.44292616  1
  Zn  Zn130  1  0.68779286  0.93987605  0.93790982  1
  Zn  Zn131  1  0.22581351  -0.02481804  0.01199126  1
  Zn  Zn132  1  0.31749991  0.07016878  0.55751354  1
  Zn  Zn133  1  0.31284905  0.56891711  0.06119918  1
  Zn  Zn134  1  0.31532813  0.55695421  0.55910559  1
  Zn  Zn135  1  0.80813502  0.06424570  0.06073867  1
  Zn  Zn136  1  0.82470271  0.06183105  0.56714042  1
  Zn  Zn137  1  0.80924055  0.56073225  0.06224941  1
  Zn  Zn138  1  0.81706601  0.55691898  0.55758018  1
  Zn  Zn139  1  0.44347989  0.43641194  0.19270183  1
  Zn  Zn140  1  0.43359803  0.43658662  0.68953133  1
  Zn  Zn141  1  0.44184836  0.93978085  0.19119182  1
  Zn  Zn142  1  0.43291907  0.94066734  0.69103412  1
  Zn  Zn143  1  0.94045852  0.44230406  0.18518054  1
  Zn  Zn144  1  0.92927034  0.46359217  0.67714268  1
  Zn  Zn145  1  0.92469448  0.93203896  0.19376522  1
  Zn  Zn146  1  0.94462432  0.94757871  0.69043771  1
  Zn  Zn147  1  0.04731504  0.02539028  0.26463001  1
  Zn  Zn148  1  0.06759618  0.06984589  0.90494369  1
  Zn  Zn149  1  0.05957550  0.55955329  0.30746185  1
  Zn  Zn150  1  0.05967475  0.56571838  0.80478010  1
  Zn  Zn151  1  0.56497697  0.06110740  0.31944828  1
  Zn  Zn152  1  0.56080222  0.06362470  0.81412078  1
  Zn  Zn153  1  0.56160654  0.56015603  0.31107085  1
  Zn  Zn154  1  0.56019444  0.56428440  0.81219995  1
  Zn  Zn155  1  0.43777299  0.18798940  0.43979580  1
  Zn  Zn156  1  0.43986754  0.18406729  0.94277515  1
  Zn  Zn157  1  0.43612742  0.68476768  0.43988631  1
  Zn  Zn158  1  0.43267257  0.68853749  0.94066597  1
  Zn  Zn159  1  0.94217654  0.18838008  0.43658699  1
  Zn  Zn160  1  0.93706043  0.18949671  0.93999476  1
  Zn  Zn161  1  0.93721096  0.68494056  0.43792810  1
  Zn  Zn162  1  0.93258025  0.69786217  0.91159386  1
  Zn  Zn163  1  0.05798311  0.32260793  0.05524008  1
  Zn  Zn164  1  0.06199041  0.31321180  0.55939442  1
  Zn  Zn165  1  0.05030113  0.87875807  0.09898625  1
  Zn  Zn166  1  0.06845289  0.80999292  0.56932046  1
  Zn  Zn167  1  0.55257230  0.31229289  0.06385944  1
  Zn  Zn168  1  0.56065069  0.31017324  0.56069837  1
  Zn  Zn169  1  0.56429211  0.81589620  0.06335448  1
  Zn  Zn170  1  0.56730058  0.81332158  0.56620392  1
  O  O171  1  0.11687445  0.13697209  0.13656632  1
  O  O172  1  0.11475031  0.13548039  0.61485795  1
  O  O173  1  0.11836646  0.62457340  0.12152638  1
  O  O174  1  0.11480054  0.61082890  0.62381858  1
  O  O175  1  0.63315237  0.11635384  0.11919399  1
  O  O176  1  0.61872942  0.11669706  0.63247599  1
  O  O177  1  0.62141544  0.61748302  0.12406178  1
  O  O178  1  0.61524840  0.62078154  0.62252922  1
  O  O179  1  0.38473255  0.37976433  0.36918653  1
  O  O180  1  0.37532043  0.39184880  0.86764556  1
  O  O181  1  0.39205974  0.88219535  0.37487576  1
  O  O182  1  0.37075511  0.89062252  0.86639527  1
  O  O183  1  0.87980298  0.37705171  0.37463806  1
  O  O184  1  0.87720979  0.37969301  0.88307444  1
  O  O185  1  0.88193374  0.87789814  0.38598374  1
  O  O186  1  0.86116048  0.89719100  0.88412749  1
  O  O187  1  0.26734498  0.00156644  0.38757336  1
  O  O188  1  0.26260550  0.01983219  0.89823768  1
  O  O189  1  0.26123968  0.49689529  0.37243839  1
  O  O190  1  0.25486188  0.50944072  0.86663206  1
  O  O191  1  0.75512161  0.00454656  0.37232959  1
  O  O192  1  0.75152801  0.01081239  0.86867383  1
  O  O193  1  0.75844815  0.50897811  0.38039047  1
  O  O194  1  0.75193528  0.50753974  0.87370162  1
  O  O195  1  0.23412652  0.51062910  0.12159615  1
  O  O196  1  0.24984779  0.49130242  0.63157537  1
  O  O197  1  0.24744729  1.01547649  0.11429894  1
  O  O198  1  0.25265003  0.99328983  0.61352475  1
  O  O199  1  0.74221045  0.48619023  0.12231038  1
  O  O200  1  0.74150331  0.49227817  0.62954231  1
  O  O201  1  0.74031277  0.99402177  0.13093113  1
  O  O202  1  0.74726238  0.99790455  0.63188289  1
  O  O203  1  0.00733428  0.38060857  0.25820639  1
  O  O204  1  0.00683626  0.39429931  0.75716987  1
  O  O205  1  -0.00630569  0.86449742  0.26588685  1
  O  O206  1  0.01819882  0.87628380  0.73763418  1
  O  O207  1  0.51558723  0.37192431  0.26028708  1
  O  O208  1  0.50462149  0.36577510  0.75216439  1
  O  O209  1  0.50933900  0.87055339  0.26112491  1
  O  O210  1  0.50551254  0.86828079  0.75074265  1
  O  O211  1  0.48912903  0.12283572  0.26023572  1
  O  O212  1  0.49464207  0.13207409  0.74324496  1
  O  O213  1  0.50432254  0.63306169  0.24018200  1
  O  O214  1  0.49575205  0.63428953  0.74285683  1
  O  O215  1  0.99677553  0.12905573  0.24872589  1
  O  O216  1  1.00777025  0.12343910  0.73342434  1
  O  O217  1  0.98435060  0.62800637  0.25277769  1
  O  O218  1  0.99139703  0.63233257  0.74879976  1
  O  O219  1  0.38298680  0.24943254  0.01770050  1
  O  O220  1  0.38091396  0.25571782  0.50591657  1
  O  O221  1  0.36511249  0.75152365  0.00859657  1
  O  O222  1  0.36237780  0.75117483  0.49929114  1
  O  O223  1  0.87960276  0.26033676  0.01295913  1
  O  O224  1  0.87529817  0.26102244  0.50091905  1
  O  O225  1  0.85994426  0.75260042  -0.01151523  1
  O  O226  1  0.86782341  0.76111985  0.49385896  1
  O  O227  1  0.12187622  0.24185778  0.48791473  1
  O  O228  1  0.12296101  0.26320666  0.98232031  1
  O  O229  1  0.13704426  0.75157734  0.49097917  1
  O  O230  1  0.13051191  0.73851786  1.00050841  1
  O  O231  1  0.63099599  0.25303763  0.48749404  1
  O  O232  1  0.61665506  0.24372385  0.99048044  1
  O  O233  1  0.63404620  0.74309590  0.49719611  1
  O  O234  1  0.62949245  0.74403290  0.99468144  1
  O  O235  1  0.48848613  0.24653300  0.13337452  1
  O  O236  1  0.50389631  0.24166454  0.63455705  1
  O  O237  1  0.49700127  0.74474808  0.12888821  1
  O  O238  1  0.49855521  0.74400069  0.63031017  1
  O  O239  1  0.99583687  0.25182486  0.12914652  1
  O  O240  1  0.99377515  0.24174705  0.62058876  1
  O  O241  1  1.01679848  0.75056553  0.12316221  1
  O  O242  1  0.98960560  0.74934346  0.61606148  1
  O  O243  1  0.01127201  0.25570371  0.37170882  1
  O  O244  1  0.00238911  0.26719550  0.87492186  1
  O  O245  1  0.01214506  0.75411648  0.38226569  1
  O  O246  1  0.02459190  0.75108871  0.87227982  1
  O  O247  1  0.51090203  0.25469715  0.37249601  1
  O  O248  1  0.50622985  0.24901812  0.86825448  1
  O  O249  1  0.50589689  0.75642940  0.37497044  1
  O  O250  1  0.50333557  0.75193347  0.87044521  1
  O  O251  1  0.23936764  0.12186285  0.48974500  1
  O  O252  1  0.24854750  0.14514479  0.99170876  1
  O  O253  1  0.25441019  0.63499762  0.49708021  1
  O  O254  1  0.25364563  0.63386623  0.98478984  1
  O  O255  1  0.76009442  0.12171233  0.48959479  1
  O  O256  1  0.73489821  0.12216143  0.99052391  1
  O  O257  1  0.74960130  0.63101178  0.49581499  1
  O  O258  1  0.74355668  0.63172008  0.99466772  1
  O  O259  1  0.25833863  0.37526427  -0.00344481  1
  O  O260  1  0.24679757  0.37653533  0.51639396  1
  O  O261  1  0.24181691  0.86133344  -0.00404801  1
  O  O262  1  0.24679754  0.86293247  0.51504354  1
  O  O263  1  0.76240106  0.37864469  0.00655427  1
  O  O264  1  0.75907764  0.37212712  0.50660241  1
  O  O265  1  0.74414110  0.86651035  0.00900621  1
  O  O266  1  0.75830453  0.86808605  0.50809192  1
  O  O267  1  0.12326491  0.49326221  0.23773741  1
  O  O268  1  0.13686802  0.49220988  0.75289939  1
  O  O269  1  0.14664272  0.97391599  0.26978185  1
  O  O270  1  0.12562148  0.99181765  0.75446125  1
  O  O271  1  0.62424999  0.49221932  0.23885946  1
  O  O272  1  0.62846859  0.49493011  0.74616671  1
  O  O273  1  0.62937757  0.99675242  0.24466069  1
  O  O274  1  0.63106711  0.99584707  0.74178111  1
  O  O275  1  0.37754778  0.00654035  0.26043899  1
  O  O276  1  0.38205268  0.01448412  0.76377468  1
  O  O277  1  0.37456522  0.50127256  0.25671539  1
  O  O278  1  0.36480044  0.50763169  0.75478479  1
  O  O279  1  0.86866327  0.01190293  0.25709018  1
  O  O280  1  0.86319857  -0.00160489  0.75862509  1
  O  O281  1  0.87866201  0.50796681  0.26059039  1
  O  O282  1  0.86277794  0.48987507  0.76870784  1
  O  O283  1  0.11870006  0.36476074  0.36426326  1
  O  O284  1  0.11542561  0.37508313  0.86592151  1
  O  O285  1  0.11959330  0.86276626  0.37323657  1
  O  O286  1  0.13630297  0.85936387  0.85015615  1
  O  O287  1  0.62399723  0.36911813  0.36869713  1
  O  O288  1  0.62358063  0.36679926  0.87175356  1
  O  O289  1  0.61926181  0.87084902  0.37344446  1
  O  O290  1  0.62469197  0.87119905  0.86629344  1
  O  O291  1  0.37945423  0.12567029  0.14503532  1
  O  O292  1  0.38404983  0.12609403  0.63467772  1
  O  O293  1  0.38772404  0.63127588  0.12595058  1
  O  O294  1  0.38750997  0.62363081  0.62806552  1
  O  O295  1  0.86687196  0.13436977  0.13216282  1
  O  O296  1  0.89017049  0.13886712  0.62088425  1
  O  O297  1  0.86336157  0.61983286  0.14351178  1
  O  O298  1  0.89121293  0.57978429  0.63763075  1
  O  O299  1  0.27216974  0.23691351  0.12560330  1
  O  O300  1  0.24856906  0.26317227  0.63485715  1
  O  O301  1  0.26223993  0.74154529  0.11537614  1
  O  O302  1  0.25382904  0.74715174  0.61265930  1
  O  O303  1  0.75862440  0.26339651  0.12798922  1
  O  O304  1  0.75906451  0.25463645  0.62562533  1
  O  O305  1  0.74130392  0.75881625  0.11512045  1
  O  O306  1  0.74807877  0.75761650  0.61605986  1
  O  O307  1  0.23758106  0.24108222  0.36588069  1
  O  O308  1  0.24475603  0.24670838  0.87508937  1
  O  O309  1  0.24224425  0.74645275  0.38874739  1
  O  O310  1  0.24043447  0.74453824  0.87816489  1
  O  O311  1  0.74594296  0.23926455  0.37839306  1
  O  O312  1  0.73916203  0.24174534  0.87123518  1
  O  O313  1  0.74485160  0.74333318  0.38784522  1
  O  O314  1  0.74007698  0.74287974  0.88164228  1
  O  O315  1  0.00903645  0.12234510  -0.01164928  1
  O  O316  1  0.01243404  0.11869208  0.49715711  1
  O  O317  1  -0.00253759  0.62966170  -0.00154046  1
  O  O318  1  -0.00924697  0.60277937  0.49659549  1
  O  O319  1  0.51456051  0.11094266  -0.00385730  1
  O  O320  1  0.50138534  0.11757723  0.51581166  1
  O  O321  1  0.50749926  0.62638837  0.01077954  1
  O  O322  1  0.50708534  0.62347917  0.50941468  1
  O  O323  1  0.50506017  0.37668898  0.48471874  1
  O  O324  1  0.49025367  0.38140850  0.99773364  1
  O  O325  1  0.50823571  0.88319763  0.49563134  1
  O  O326  1  0.50899045  0.89231547  0.99668236  1
  O  O327  1  0.99413848  0.37592053  0.48185797  1
  O  O328  1  0.98659492  0.38875262  0.99006907  1
  O  O329  1  0.99758080  0.88262225  0.49341190  1
  O  O330  1  0.99894932  0.86387686  1.00346922  1
  O  O331  1  0.49512266  0.49001274  0.37442823  1
  O  O332  1  0.48942191  0.50197896  0.87562491  1
  O  O333  1  0.49862656  0.99302294  0.38738232  1
  O  O334  1  0.49233473  0.99923588  0.88460150  1
  O  O335  1  0.99260844  0.49001607  0.37814284  1
  O  O336  1  0.99018678  0.49913149  0.88341700  1
  O  O337  1  0.99478437  0.98979263  0.37425579  1
  O  O338  1  0.98417340  0.99676499  0.86652458  1
  O  O339  1  0.01667498  -0.01553165  0.15172663  1
  O  O340  1  -0.00632031  0.01843299  0.61181146  1
  O  O341  1  0.00425683  0.50215334  0.10835038  1
  O  O342  1  0.00931848  0.47670453  0.59642268  1
  O  O343  1  0.51100897  -0.00338055  0.11590873  1
  O  O344  1  0.50834798  0.00480896  0.62279768  1
  O  O345  1  0.50793056  0.50955277  0.12607092  1
  O  O346  1  0.50508806  0.50714284  0.62666704  1
  O  O347  1  0.23385176  0.37698675  0.25081188  1
  O  O348  1  0.24209855  0.38409876  0.74156631  1
  O  O349  1  0.25859105  0.87175676  0.26133582  1
  O  O350  1  0.23905902  0.87402040  0.73019186  1
  O  O351  1  0.73992668  0.37362361  0.24402026  1
  O  O352  1  0.74049823  0.38051801  0.74488644  1
  O  O353  1  0.74697943  0.87961535  0.24683019  1
  O  O354  1  0.74519321  0.88316777  0.74343925  1
  O  O355  1  0.26558718  0.11321158  0.26450431  1
  O  O356  1  0.26285503  0.13180654  0.75547833  1
  O  O357  1  0.25307937  0.61934096  0.25893950  1
  O  O358  1  0.25628584  0.61845161  0.75306350  1
  O  O359  1  0.75837403  0.11965987  0.25951820  1
  O  O360  1  0.74503987  0.11719455  0.76180279  1
  O  O361  1  0.75704840  0.63084724  0.26487741  1
  O  O362  1  0.75073710  0.61966971  0.75709459  1
  O  O363  1  0.37187709  0.11699665  0.37290266  1
  O  O364  1  0.36630238  0.12492471  0.87126365  1
  O  O365  1  0.38067895  0.60884672  0.37425316  1
  O  O366  1  0.36808089  0.61895187  0.86756315  1
  O  O367  1  0.87092954  0.12217037  0.36772647  1
  O  O368  1  0.86202261  0.11683886  0.88165382  1
  O  O369  1  0.86771974  0.61559536  0.37009716  1
  O  O370  1  0.85878941  0.61428852  0.87935953  1
  O  O371  1  0.11710181  0.38797873  0.12944806  1
  O  O372  1  0.13369990  0.37696737  0.63029661  1
  O  O373  1  0.14459028  0.86314815  0.15597751  1
  O  O374  1  0.13800996  0.87955173  0.63023655  1
  O  O375  1  0.63055747  0.37881142  0.13073314  1
  O  O376  1  0.62831923  0.37770838  0.63111360  1
  O  O377  1  0.63315934  0.88396930  0.13331877  1
  O  O378  1  0.63906773  0.88239510  0.63130289  1
  O  O379  1  0.11548864  0.25627048  0.25012579  1
  O  O380  1  0.12558475  0.26831941  0.76047998  1
  O  O381  1  0.12773268  0.75700644  0.26865494  1
  O  O382  1  0.12492789  0.74838389  0.74776928  1
  O  O383  1  0.62784494  0.25665584  0.26133281  1
  O  O384  1  0.61551735  0.25326036  0.76085723  1
  O  O385  1  0.62173645  0.75566934  0.25902635  1
  O  O386  1  0.61788206  0.75671218  0.75607120  1
  O  O387  1  0.37935973  0.23700264  0.24697054  1
  O  O388  1  0.38613998  0.24465993  0.74908927  1
  O  O389  1  0.38520988  0.74559442  0.24519934  1
  O  O390  1  0.38014661  0.74524281  0.74784962  1
  O  O391  1  0.87284121  0.23858044  0.24120671  1
  O  O392  1  0.87641742  0.26010596  0.74006175  1
  O  O393  1  0.87761262  0.73548743  0.25539656  1
  O  O394  1  0.88230014  0.74395388  0.77949258  1
  O  O395  1  0.37914275  0.48899417  0.48961800  1
  O  O396  1  0.37706192  0.50566034  0.98940642  1
  O  O397  1  0.39249657  1.00436351  0.49554366  1
  O  O398  1  0.39212210  1.00421264  0.99491183  1
  O  O399  1  0.88164255  0.48456325  0.48500764  1
  O  O400  1  0.87759182  0.49623624  0.99231086  1
  O  O401  1  0.88608749  0.99066032  0.49445694  1
  O  O402  1  0.87377002  1.00093451  0.99039485  1
  O  O403  1  0.11449585  -0.00521971  -0.01458476  1
  O  O404  1  0.11495745  0.00814011  0.49195785  1
  O  O405  1  0.11364006  0.50044823  0.00290081  1
  O  O406  1  0.11195962  0.49403708  0.48526051  1
  O  O407  1  0.62069257  0.00698461  0.00875219  1
  O  O408  1  0.61919592  -0.00322381  0.51601444  1
  O  O409  1  0.62357561  0.50748025  0.01285767  1
  O  O410  1  0.62335978  0.50682862  0.50739528  1
  O  O411  1  0.37711232  0.36146278  0.13337225  1
  O  O412  1  0.35977975  0.37264712  0.62798136  1
  O  O413  1  0.38237382  0.86334151  0.13050916  1
  O  O414  1  0.35932064  0.87775214  0.63077356  1
  O  O415  1  0.86935994  0.37149455  0.12122206  1
  O  O416  1  0.87162976  0.37114464  0.61485611  1
  O  O417  1  0.85748035  0.87821172  0.12071447  1
  O  O418  1  0.86477851  0.88538688  0.61873300  1
  O  O419  1  0.13557093  0.13184560  0.38012339  1
  O  O420  1  0.14603938  0.13885646  0.86222716  1
  O  O421  1  0.12131444  0.63608336  0.37288678  1
  O  O422  1  0.13606369  0.63608066  0.86393158  1
  O  O423  1  0.63755971  0.13195814  0.37277298  1
  O  O424  1  0.63101874  0.13212481  0.88149952  1
  O  O425  1  0.63230611  0.62715033  0.38069478  1
  O  O426  1  0.63326571  0.62840996  0.87993670  1
