# generated using pymatgen
data_V85Zn86O256
_symmetry_space_group_name_H-M   'P 1'
_cell_length_a   16.92069942
_cell_length_b   16.92521352
_cell_length_c   16.94085271
_cell_angle_alpha   90.01383125
_cell_angle_beta   89.94792399
_cell_angle_gamma   89.95069810
_symmetry_Int_Tables_number   1
_chemical_formula_structural   V85Zn86O256
_chemical_formula_sum   'V85 Zn86 O256'
_cell_volume   4851.62673404
_cell_formula_units_Z   1
loop_
 _symmetry_equiv_pos_site_id
 _symmetry_equiv_pos_as_xyz
  1  'x, y, z'
loop_
 _atom_site_type_symbol
 _atom_site_label
 _atom_site_symmetry_multiplicity
 _atom_site_fract_x
 _atom_site_fract_y
 _atom_site_fract_z
 _atom_site_occupancy
  V  V0  1  0.49706009  0.25036726  0.75119934  1
  V  V1  1  0.87175938  0.25160022  0.12285121  1
  V  V2  1  0.37675162  0.12572475  0.25086867  1
  V  V3  1  0.25327156  0.74004008  0.49693014  1
  V  V4  1  0.24652292  -0.00431276  0.75208554  1
  V  V5  1  0.50063529  -0.00014049  0.49908929  1
  V  V6  1  0.89175804  0.37712456  -0.00382481  1
  V  V7  1  0.75122906  -0.00454666  0.24669774  1
  V  V8  1  0.38623574  0.74934240  0.62664430  1
  V  V9  1  0.88864441  0.49586983  0.87599899  1
  V  V10  1  0.37556806  0.87458266  0.49952702  1
  V  V11  1  0.74796620  0.50128984  0.75042070  1
  V  V12  1  0.00645619  0.11928206  0.62982458  1
  V  V13  1  0.49828477  0.12460206  0.62548135  1
  V  V14  1  0.87370636  0.49373591  0.36893681  1
  V  V15  1  0.86967680  0.87196051  0.50809456  1
  V  V16  1  0.11228889  0.51599159  0.11729261  1
  V  V17  1  0.24409806  0.37765266  0.62863959  1
  V  V18  1  0.74624482  0.62607937  0.37054167  1
  V  V19  1  0.37392429  0.24926399  0.62746183  1
  V  V20  1  0.73293021  0.75392386  -0.00547976  1
  V  V21  1  0.00236484  0.87125549  0.37823600  1
  V  V22  1  0.62549566  0.25190819  0.37219653  1
  V  V23  1  0.24513675  0.87648441  0.62355660  1
  V  V24  1  0.73937127  0.75103075  0.50479787  1
  V  V25  1  0.75056638  0.24973687  0.50054201  1
  V  V26  1  0.24865257  0.37986823  0.12852559  1
  V  V27  1  0.00173739  0.86992689  0.88370580  1
  V  V28  1  -0.00065383  0.25329123  0.25848170  1
  V  V29  1  0.74959084  0.12422010  0.37371270  1
  V  V30  1  0.24953728  0.24940167  0.50244628  1
  V  V31  1  0.87904883  0.62707806  0.74974287  1
  V  V32  1  0.62311135  0.37858892  0.74927051  1
  V  V33  1  0.75128173  -0.00661094  0.74808150  1
  V  V34  1  0.37534653  0.75870851  0.12188685  1
  V  V35  1  0.87593995  0.12279396  0.75230413  1
  V  V36  1  0.12353355  0.12173325  -0.00077691  1
  V  V37  1  0.24972484  0.50667725  0.76408990  1
  V  V38  1  0.24963943  0.12509155  0.37431655  1
  V  V39  1  0.12536037  0.50220999  0.62648070  1
  V  V40  1  0.25086188  0.51135848  0.25696158  1
  V  V41  1  0.74577122  0.37807436  0.62376054  1
  V  V42  1  0.00028954  0.12139426  0.12594213  1
  V  V43  1  0.12943210  0.73894679  0.37480180  1
  V  V44  1  0.62324805  0.60703141  0.50325888  1
  V  V45  1  0.50940321  0.50469578  -0.00243669  1
  V  V46  1  0.62197746  0.86821035  0.75109923  1
  V  V47  1  -0.00502799  0.74359886  0.24658534  1
  V  V48  1  0.62934655  -0.00436531  0.62546010  1
  V  V49  1  0.50559098  0.74940795  0.25068357  1
  V  V50  1  0.62943915  0.87170539  0.24694280  1
  V  V51  1  0.87617653  0.74913168  0.62870817  1
  V  V52  1  0.25027658  0.25077825  0.00139219  1
  V  V53  1  0.87532720  -0.00322017  0.37692241  1
  V  V54  1  0.50605336  0.87076725  0.37462694  1
  V  V55  1  0.50302164  0.25286615  0.24838546  1
  V  V56  1  0.87529902  0.12254258  0.24931259  1
  V  V57  1  0.50053731  0.38565635  0.37521948  1
  V  V58  1  0.50143030  0.12484643  0.12173874  1
  V  V59  1  0.37432880  0.12140568  0.75864640  1
  V  V60  1  0.48602167  -0.00323436  -0.00756836  1
  V  V61  1  0.24921952  0.11997589  0.87746966  1
  V  V62  1  0.63092707  0.38735917  0.24524535  1
  V  V63  1  0.37953421  0.38096359  0.49970239  1
  V  V64  1  0.88787012  0.73741458  0.08948033  1
  V  V65  1  0.00603042  0.26123916  0.75481337  1
  V  V66  1  0.13023904  0.87426713  0.24962932  1
  V  V67  1  0.12160542  0.73339292  0.87720763  1
  V  V68  1  0.75479095  0.39278044  0.12136599  1
  V  V69  1  0.11807389  0.86940746  0.74981521  1
  V  V70  1  0.37724291  0.62516584  0.76033751  1
  V  V71  1  0.50650886  0.62723823  0.12128352  1
  V  V72  1  -0.00027485  0.49454620  0.49650935  1
  V  V73  1  0.49039373  0.37970353  0.87411131  1
  V  V74  1  0.48530857  0.87242271  0.87015136  1
  V  V75  1  0.87476195  0.24941428  0.62647565  1
  V  V76  1  0.12338121  0.37676674  0.25713316  1
  V  V77  1  0.50279850  0.60606154  0.62547150  1
  V  V78  1  0.25374136  0.74315681  -0.00831911  1
  V  V79  1  0.62447231  0.12702169  -0.00507793  1
  V  V80  1  0.00204942  -0.00208175  0.50412436  1
  V  V81  1  0.37126414  0.38765565  -0.00148919  1
  V  V82  1  0.62514177  0.12512896  0.50025348  1
  V  V83  1  0.87555348  -0.00696945  0.88260197  1
  V  V84  1  0.12708832  0.11797730  0.50399819  1
  Zn  Zn85  1  0.74858079  0.12607978  0.87411910  1
  Zn  Zn86  1  0.87598400  0.62202845  0.25114211  1
  Zn  Zn87  1  0.11479254  0.26164628  0.88064091  1
  Zn  Zn88  1  0.61517373  0.74096992  0.87012869  1
  Zn  Zn89  1  0.75076747  0.25219702  -0.00529238  1
  Zn  Zn90  1  0.87983472  0.37172850  0.49649419  1
  Zn  Zn91  1  0.63600252  0.51229797  0.12001806  1
  Zn  Zn92  1  -0.00279113  -0.00635495  0.00397204  1
  Zn  Zn93  1  0.62657029  0.25153794  0.87385133  1
  Zn  Zn94  1  0.37589474  0.63056627  0.25683821  1
  Zn  Zn95  1  0.77182147  0.87765373  0.10849990  1
  Zn  Zn96  1  0.62904716  -0.00255529  0.11759687  1
  Zn  Zn97  1  0.12618664  0.62157309  0.49878066  1
  Zn  Zn98  1  0.25304720  0.87812786  0.11479795  1
  Zn  Zn99  1  0.74114163  0.61946034  0.88347673  1
  Zn  Zn100  1  0.11962744  0.25285763  0.38001793  1
  Zn  Zn101  1  0.00353575  0.63032357  0.62472770  1
  Zn  Zn102  1  0.25065588  -0.00102761  0.24826904  1
  Zn  Zn103  1  0.37589140  0.25445808  0.12485357  1
  Zn  Zn104  1  0.37326091  0.51272066  0.38182656  1
  Zn  Zn105  1  0.12682385  -0.00308693  0.12608768  1
  Zn  Zn106  1  0.37615435  -0.00097932  0.37413884  1
  Zn  Zn107  1  0.18660244  0.18958436  0.18748920  1
  Zn  Zn108  1  0.18665669  0.18677512  0.68956087  1
  Zn  Zn109  1  0.18796582  0.69073406  0.18315659  1
  Zn  Zn110  1  0.19074393  0.68913271  0.68733304  1
  Zn  Zn111  1  0.68744678  0.18927853  0.18439275  1
  Zn  Zn112  1  0.68683206  0.18699833  0.69018089  1
  Zn  Zn113  1  0.69435784  0.69223293  0.17834877  1
  Zn  Zn114  1  0.68938120  0.68408480  0.68641152  1
  Zn  Zn115  1  0.31276367  0.31295370  0.31359592  1
  Zn  Zn116  1  0.27549853  0.33431025  0.83371559  1
  Zn  Zn117  1  0.31650190  0.80977902  0.31381138  1
  Zn  Zn118  1  0.30793286  0.80586364  0.81190471  1
  Zn  Zn119  1  0.81014376  0.31441963  0.30794143  1
  Zn  Zn120  1  0.81354430  0.31250718  0.81408938  1
  Zn  Zn121  1  0.80966439  0.81105631  0.32118209  1
  Zn  Zn122  1  0.80939545  0.81212612  0.81574799  1
  Zn  Zn123  1  0.18829208  0.43666481  0.43861033  1
  Zn  Zn124  1  0.17704754  0.44217658  0.94139006  1
  Zn  Zn125  1  0.18901877  0.93600071  0.43516636  1
  Zn  Zn126  1  0.18926674  0.93354436  0.93808806  1
  Zn  Zn127  1  0.69176375  0.43774768  0.43485054  1
  Zn  Zn128  1  0.69046753  0.43395874  0.93476460  1
  Zn  Zn129  1  0.68754919  0.93450898  0.43588572  1
  Zn  Zn130  1  0.68123483  0.93894318  0.93217683  1
  Zn  Zn131  1  0.31148165  0.06150448  0.06732122  1
  Zn  Zn132  1  0.31233301  0.05806589  0.56616327  1
  Zn  Zn133  1  0.31403946  0.56793962  0.07022133  1
  Zn  Zn134  1  0.31500106  0.56249758  0.56545421  1
  Zn  Zn135  1  0.81062517  0.06404216  0.06085231  1
  Zn  Zn136  1  0.81325423  0.06178064  0.56510374  1
  Zn  Zn137  1  0.83693806  0.57952652  0.05346337  1
  Zn  Zn138  1  0.81353901  0.56158655  0.56186288  1
  Zn  Zn139  1  0.43749371  0.44305765  0.18610777  1
  Zn  Zn140  1  0.42895553  0.43777826  0.69061002  1
  Zn  Zn141  1  0.44042935  0.94027203  0.18591660  1
  Zn  Zn142  1  0.43503840  0.93827410  0.68888254  1
  Zn  Zn143  1  0.93940727  0.43721766  0.18937588  1
  Zn  Zn144  1  0.93475259  0.43905935  0.68417102  1
  Zn  Zn145  1  0.93952424  0.92532028  0.18500942  1
  Zn  Zn146  1  0.93830945  0.93504788  0.68903138  1
  Zn  Zn147  1  0.06371468  0.06087925  0.31467497  1
  Zn  Zn148  1  0.06472502  0.05792477  0.81459531  1
  Zn  Zn149  1  0.06065108  0.55962228  0.31158199  1
  Zn  Zn150  1  0.06112251  0.55824170  0.80521826  1
  Zn  Zn151  1  0.56409321  0.05935540  0.31134839  1
  Zn  Zn152  1  0.56103050  0.05855198  0.81423270  1
  Zn  Zn153  1  0.56489028  0.56729801  0.31266077  1
  Zn  Zn154  1  0.55990336  0.55991505  0.81073923  1
  Zn  Zn155  1  0.43813618  0.19263029  0.43652204  1
  Zn  Zn156  1  0.43380670  0.19397662  0.93780009  1
  Zn  Zn157  1  0.44375898  0.68620861  0.43750118  1
  Zn  Zn158  1  0.43821153  0.69125432  0.94119310  1
  Zn  Zn159  1  0.93685216  0.18437319  0.43971161  1
  Zn  Zn160  1  0.93757883  0.18680580  0.93630870  1
  Zn  Zn161  1  0.93692540  0.68294902  0.43946656  1
  Zn  Zn162  1  0.92845609  0.69345859  0.92739475  1
  Zn  Zn163  1  0.06621487  0.31010820  0.07138129  1
  Zn  Zn164  1  0.06251232  0.31118175  0.56533380  1
  Zn  Zn165  1  0.06970292  0.80505474  0.06145598  1
  Zn  Zn166  1  0.06304249  0.80892705  0.56245968  1
  Zn  Zn167  1  0.56362528  0.31616686  0.06169326  1
  Zn  Zn168  1  0.56261805  0.31495190  0.56219029  1
  Zn  Zn169  1  0.56218785  0.81797750  0.06090431  1
  Zn  Zn170  1  0.56400379  0.81219585  0.56453580  1
  O  O171  1  0.11553141  0.12373621  0.12027053  1
  O  O172  1  0.11802547  0.12559411  0.61725764  1
  O  O173  1  0.12239976  0.61495843  0.13044412  1
  O  O174  1  0.12415727  0.61781333  0.62306939  1
  O  O175  1  0.61410760  0.12351904  0.11918809  1
  O  O176  1  0.61853082  0.11673800  0.62155605  1
  O  O177  1  0.61268301  0.62699310  0.12818152  1
  O  O178  1  0.61149830  0.62485479  0.61925673  1
  O  O179  1  0.38452953  0.37365174  0.38266413  1
  O  O180  1  0.37745081  0.37298706  0.88617158  1
  O  O181  1  0.38505012  0.87797282  0.38164476  1
  O  O182  1  0.38598912  0.87468547  0.86295489  1
  O  O183  1  0.86494340  0.38928147  0.37674639  1
  O  O184  1  0.87334564  0.38626086  0.88167535  1
  O  O185  1  0.88084339  0.87883236  0.38834474  1
  O  O186  1  0.88836972  0.88359160  0.86180757  1
  O  O187  1  0.25374518  0.01327452  0.37355390  1
  O  O188  1  0.24782367  0.01019767  0.86912169  1
  O  O189  1  0.25147971  0.49458726  0.36040188  1
  O  O190  1  0.24770526  0.50446373  0.86209412  1
  O  O191  1  0.75563280  0.00484348  0.36819829  1
  O  O192  1  0.75778200  0.00276196  0.86597805  1
  O  O193  1  0.76165530  0.51281843  0.38187179  1
  O  O194  1  0.75637843  0.49722634  0.86208231  1
  O  O195  1  0.24295663  0.49548038  0.13704996  1
  O  O196  1  0.24011193  0.49457458  0.62290557  1
  O  O197  1  0.24689294  0.99486195  0.13049860  1
  O  O198  1  0.25106044  0.98405734  0.63122151  1
  O  O199  1  0.75701168  0.49505809  0.11603589  1
  O  O200  1  0.75764495  0.48869493  0.63661892  1
  O  O201  1  0.75261773  0.99298401  0.13156972  1
  O  O202  1  0.74008698  1.00401461  0.63275557  1
  O  O203  1  0.00906333  0.36418495  0.24616827  1
  O  O204  1  -0.00322076  0.35901744  0.74177092  1
  O  O205  1  0.01008510  0.86600845  0.25978249  1
  O  O206  1  0.01442994  0.87921371  0.75465478  1
  O  O207  1  0.50669119  0.37107276  0.25390404  1
  O  O208  1  0.50235112  0.37378762  0.75505164  1
  O  O209  1  0.50783194  0.87289119  0.25692806  1
  O  O210  1  0.50661578  0.88602127  0.76185369  1
  O  O211  1  0.49693240  0.12929407  0.24259379  1
  O  O212  1  0.49160051  0.12619306  0.74605511  1
  O  O213  1  0.50285070  0.63553450  0.24410364  1
  O  O214  1  0.48886927  0.61808305  0.73490842  1
  O  O215  1  0.99450358  0.12855528  0.24431350  1
  O  O216  1  0.99448158  0.12486535  0.74438809  1
  O  O217  1  0.99765635  0.63998796  0.25640484  1
  O  O218  1  0.98354116  0.61902379  0.74430870  1
  O  O219  1  0.36790719  0.26256354  0.00476566  1
  O  O220  1  0.36886525  0.25599641  0.50770252  1
  O  O221  1  0.36437466  0.75081742  0.00657760  1
  O  O222  1  0.37091581  0.75635834  0.50608237  1
  O  O223  1  0.87579929  0.25583032  0.00751439  1
  O  O224  1  0.86955050  0.24981786  0.50676742  1
  O  O225  1  0.85731842  0.76893924  -0.00747035  1
  O  O226  1  0.86682163  0.75524462  0.50511817  1
  O  O227  1  0.13019411  0.23879743  0.50037466  1
  O  O228  1  0.13011548  0.23868942  1.00138130  1
  O  O229  1  0.13475835  0.74840264  0.49205287  1
  O  O230  1  0.13173159  0.74440415  0.98490644  1
  O  O231  1  0.63019849  0.24396097  0.49322722  1
  O  O232  1  0.62294229  0.23847334  0.99944930  1
  O  O233  1  0.63639300  0.74466628  0.50634663  1
  O  O234  1  0.62868961  0.75047002  0.99574716  1
  O  O235  1  0.50001729  0.24377842  0.13132344  1
  O  O236  1  0.49480868  0.24400790  0.63022989  1
  O  O237  1  0.49595228  0.74740096  0.12864629  1
  O  O238  1  0.48875246  0.74774473  0.62335557  1
  O  O239  1  0.99095550  0.23935886  0.13474007  1
  O  O240  1  0.99468765  0.23849281  0.63249068  1
  O  O241  1  0.99674653  0.75139593  0.14093122  1
  O  O242  1  0.98299983  0.74874884  0.61844142  1
  O  O243  1  -0.00144278  0.24291956  0.36257811  1
  O  O244  1  -0.00125887  0.24852417  0.86004869  1
  O  O245  1  0.01041003  0.75401589  0.37469565  1
  O  O246  1  0.01141940  0.75489501  0.87518041  1
  O  O247  1  0.50777365  0.25812583  0.36707737  1
  O  O248  1  0.49874627  0.26248903  0.86806606  1
  O  O249  1  0.50163925  0.76304068  0.36724275  1
  O  O250  1  0.49919745  0.76823286  0.87978253  1
  O  O251  1  0.24449511  0.12686854  0.49661585  1
  O  O252  1  0.24357458  0.12672927  0.99641397  1
  O  O253  1  0.25071770  0.63717996  0.50414388  1
  O  O254  1  0.25210854  0.64283264  1.00950201  1
  O  O255  1  0.74498695  0.12965408  0.49514145  1
  O  O256  1  0.73854287  0.12785159  0.99846660  1
  O  O257  1  0.73776872  0.62882643  0.49925409  1
  O  O258  1  0.75608599  0.64584507  0.99766274  1
  O  O259  1  0.25577597  0.37517209  0.01177216  1
  O  O260  1  0.25662853  0.36746693  0.50757158  1
  O  O261  1  0.24133470  0.85547274  0.00125352  1
  O  O262  1  0.25550616  0.87029226  0.50684790  1
  O  O263  1  0.75933592  0.37171849  0.00815361  1
  O  O264  1  0.74976483  0.36711194  0.50758020  1
  O  O265  1  0.73703345  0.86585013  -0.00225786  1
  O  O266  1  0.75686379  0.86379797  0.49450149  1
  O  O267  1  0.13346154  0.49406088  0.24720748  1
  O  O268  1  0.14082646  0.50481240  0.74159200  1
  O  O269  1  0.12583064  0.98883972  0.25077084  1
  O  O270  1  0.13828313  0.99033045  0.75297843  1
  O  O271  1  0.62336819  0.49001229  0.24526507  1
  O  O272  1  0.63164161  0.48578281  0.74862870  1
  O  O273  1  0.63994168  0.99662373  0.24760269  1
  O  O274  1  0.63237488  0.99687342  0.74299943  1
  O  O275  1  0.37731858  0.01452170  0.25195619  1
  O  O276  1  0.36031591  0.01026812  0.74202798  1
  O  O277  1  0.35970849  0.50073604  0.25034412  1
  O  O278  1  0.36439368  0.51527730  0.74498473  1
  O  O279  1  0.86720493  -0.00115935  0.25399315  1
  O  O280  1  0.86844699  0.00490570  0.75341280  1
  O  O281  1  0.87783968  0.50261820  0.26413750  1
  O  O282  1  0.86848672  0.50168984  0.75808399  1
  O  O283  1  0.12960176  0.37090730  0.36245113  1
  O  O284  1  0.16688123  0.36023282  0.86922362  1
  O  O285  1  0.11958432  0.86697464  0.37047171  1
  O  O286  1  0.11765597  0.86864294  0.86752506  1
  O  O287  1  0.62158584  0.37238272  0.36637801  1
  O  O288  1  0.61485370  0.37249219  0.86575863  1
  O  O289  1  0.61820119  0.88078400  0.36091755  1
  O  O290  1  0.61282641  0.87555652  0.86268793  1
  O  O291  1  0.38608549  0.12879378  0.13222739  1
  O  O292  1  0.37881431  0.12975223  0.63130893  1
  O  O293  1  0.38735496  0.63807823  0.13284099  1
  O  O294  1  0.38921107  0.63037873  0.62316063  1
  O  O295  1  0.88012564  0.13183634  0.12932504  1
  O  O296  1  0.88192790  0.12852791  0.63520341  1
  O  O297  1  0.84720959  0.65327868  0.14585069  1
  O  O298  1  0.87581497  0.63175620  0.63069407  1
  O  O299  1  0.25046349  0.25990101  0.11984038  1
  O  O300  1  0.25423092  0.25756202  0.62418111  1
  O  O301  1  0.25910300  0.75472145  0.11996789  1
  O  O302  1  0.25946088  0.75866062  0.61651860  1
  O  O303  1  0.76401830  0.25386790  0.12421219  1
  O  O304  1  0.75553810  0.25318459  0.62094587  1
  O  O305  1  0.75166378  0.76038465  0.10663637  1
  O  O306  1  0.76118257  0.74568545  0.61403073  1
  O  O307  1  0.24995353  0.23873431  0.38256493  1
  O  O308  1  0.25682842  0.22995666  0.88454347  1
  O  O309  1  0.24235987  0.75727512  0.38551791  1
  O  O310  1  0.24071057  0.74619311  0.88398591  1
  O  O311  1  0.74553277  0.24418156  0.37853221  1
  O  O312  1  0.74664672  0.24505937  0.87580022  1
  O  O313  1  0.75432543  0.73428898  0.38970635  1
  O  O314  1  0.74085071  0.75072603  0.88257022  1
  O  O315  1  0.00637231  0.12449900  0.00876366  1
  O  O316  1  0.00747299  0.11983256  0.50827799  1
  O  O317  1  -0.06006589  0.65764731  0.03429774  1
  O  O318  1  0.00209538  0.61046180  0.50393435  1
  O  O319  1  0.50180556  0.12044260  0.00443583  1
  O  O320  1  0.50612175  0.12147026  0.50360202  1
  O  O321  1  0.49374225  0.61497232  0.00677100  1
  O  O322  1  0.51596773  0.62846887  0.50985673  1
  O  O323  1  0.49186568  0.36747122  0.48868414  1
  O  O324  1  0.49153546  0.38090004  0.99336269  1
  O  O325  1  0.49861157  0.87871748  0.49241965  1
  O  O326  1  0.50230078  0.88967336  0.98790487  1
  O  O327  1  0.99872693  0.38695993  0.50586113  1
  O  O328  1  0.99091978  0.36768196  1.00578763  1
  O  O329  1  0.99438251  0.87976137  0.49692319  1
  O  O330  1  1.00760824  0.87474630  0.98809268  1
  O  O331  1  0.49856446  0.48806864  0.36927600  1
  O  O332  1  0.49877375  0.48787441  0.88124774  1
  O  O333  1  0.50077717  0.99122888  0.38145128  1
  O  O334  1  0.49784085  0.99305519  0.88536599  1
  O  O335  1  0.98501442  0.50340635  0.38155551  1
  O  O336  1  0.98785447  0.49654780  0.86844378  1
  O  O337  1  0.99381677  0.99366688  0.38293303  1
  O  O338  1  0.99289305  0.99087479  0.87702940  1
  O  O339  1  -0.00342958  0.01054981  0.12536396  1
  O  O340  1  -0.00468597  0.01166523  0.62046037  1
  O  O341  1  0.01328918  0.50032300  0.13226216  1
  O  O342  1  0.01327991  0.49817760  0.62147856  1
  O  O343  1  0.50206347  0.00807888  0.11232987  1
  O  O344  1  0.50555884  0.00666844  0.61877473  1
  O  O345  1  0.50321380  0.50950944  0.11692288  1
  O  O346  1  0.49562343  0.50786682  0.62171994  1
  O  O347  1  0.24461582  0.37956096  0.24476237  1
  O  O348  1  0.26724945  0.39645438  0.73597133  1
  O  O349  1  0.23855125  0.87400698  0.25383490  1
  O  O350  1  0.24481167  0.87962817  0.74415915  1
  O  O351  1  0.74219176  0.37254334  0.23568020  1
  O  O352  1  0.74157239  0.37759592  0.74378180  1
  O  O353  1  0.74575840  0.87939088  0.25172168  1
  O  O354  1  0.74085963  0.88764568  0.75302001  1
  O  O355  1  0.25832058  0.12732107  0.25761943  1
  O  O356  1  0.25367510  0.11803067  0.75699980  1
  O  O357  1  0.24995293  0.61357773  0.24788708  1
  O  O358  1  0.26338111  0.61490754  0.74281232  1
  O  O359  1  0.75601490  0.11669621  0.25159120  1
  O  O360  1  0.75925114  0.11540453  0.74934438  1
  O  O361  1  0.74066667  0.63245794  0.26945447  1
  O  O362  1  0.75921716  0.61299106  0.74546542  1
  O  O363  1  0.36959987  0.12547023  0.36835703  1
  O  O364  1  0.37140330  0.12535312  0.86390049  1
  O  O365  1  0.38127285  0.62475160  0.37107506  1
  O  O366  1  0.38449393  0.62964730  0.85834936  1
  O  O367  1  0.86963168  0.11710085  0.36881779  1
  O  O368  1  0.87747830  0.11523406  0.86346852  1
  O  O369  1  0.86237323  0.61662753  0.37509219  1
  O  O370  1  0.86941005  0.61232083  0.86646757  1
  O  O371  1  0.13496635  0.37971142  0.13614154  1
  O  O372  1  0.13802548  0.37992388  0.62257444  1
  O  O373  1  0.12351821  0.87471316  0.13673101  1
  O  O374  1  0.13428696  0.86405160  0.63479218  1
  O  O375  1  0.63682388  0.37871195  0.12917745  1
  O  O376  1  0.63719042  0.36904452  0.63124622  1
  O  O377  1  0.62171866  0.88106264  0.13906615  1
  O  O378  1  0.61629642  0.88985168  0.63231845  1
  O  O379  1  0.11586906  0.25677924  0.25158082  1
  O  O380  1  0.10844847  0.24398124  0.75037605  1
  O  O381  1  0.11742255  0.75448694  0.25709057  1
  O  O382  1  0.13611801  0.75760201  0.76499900  1
  O  O383  1  0.62152763  0.25857465  0.25319974  1
  O  O384  1  0.61546625  0.25986561  0.74845679  1
  O  O385  1  0.61528854  0.75826385  0.24456569  1
  O  O386  1  0.62928400  0.76627623  0.74177954  1
  O  O387  1  0.38292427  0.24044185  0.24982640  1
  O  O388  1  0.37985895  0.23896378  0.74140972  1
  O  O389  1  0.38982513  0.75312337  0.24360404  1
  O  O390  1  0.36621308  0.73427860  0.73883587  1
  O  O391  1  0.88055583  0.24522894  0.24350858  1
  O  O392  1  0.88290243  0.24028404  0.74645005  1
  O  O393  1  0.89432017  0.75279532  0.26794586  1
  O  O394  1  0.86524293  0.74029948  0.74163341  1
  O  O395  1  0.36911115  0.48491013  0.49866458  1
  O  O396  1  0.38199349  0.49118729  1.00914816  1
  O  O397  1  0.38319457  0.99292196  0.49994431  1
  O  O398  1  0.38772316  1.00597456  1.00031605  1
  O  O399  1  0.88157049  0.49656389  0.49158073  1
  O  O400  1  0.87466518  0.49362734  0.98413150  1
  O  O401  1  0.87869319  0.99224553  0.49776240  1
  O  O402  1  0.87537906  1.00299713  0.98630132  1
  O  O403  1  0.12204600  0.01144840  0.00197037  1
  O  O404  1  0.12039625  0.01068285  0.49559807  1
  O  O405  1  0.12484119  0.50206493  0.01755809  1
  O  O406  1  0.11967144  0.50067518  0.50536781  1
  O  O407  1  0.61482699  0.01358119  -0.00132004  1
  O  O408  1  0.62275932  0.00457808  0.50699671  1
  O  O409  1  0.61302409  0.49247389  0.00107128  1
  O  O410  1  0.62872283  0.50844623  0.50447703  1
  O  O411  1  0.36385439  0.37596201  0.12255637  1
  O  O412  1  0.37033621  0.36805540  0.61705087  1
  O  O413  1  0.37726562  0.86320792  0.12959981  1
  O  O414  1  0.37039861  0.86752138  0.62027579  1
  O  O415  1  0.87144119  0.37012728  0.11952033  1
  O  O416  1  0.86296401  0.36620265  0.62459589  1
  O  O417  1  0.88357077  0.84601266  0.12480699  1
  O  O418  1  0.87655876  0.87024146  0.61464589  1
  O  O419  1  0.13314208  0.12792240  0.38264918  1
  O  O420  1  0.13123476  0.12793536  0.88375431  1
  O  O421  1  0.12455037  0.63567634  0.37574714  1
  O  O422  1  0.11817291  0.63521232  0.86864376  1
  O  O423  1  0.63090440  0.12985923  0.37870857  1
  O  O424  1  0.62328840  0.12854850  0.88144862  1
  O  O425  1  0.63401005  0.61849613  0.39116454  1
  O  O426  1  0.62976969  0.62898912  0.85894016  1
