# generated using pymatgen
data_V85Zn86O256
_symmetry_space_group_name_H-M   'P 1'
_cell_length_a   16.93763126
_cell_length_b   16.93519886
_cell_length_c   16.93094540
_cell_angle_alpha   89.99101318
_cell_angle_beta   89.99871421
_cell_angle_gamma   89.98437282
_symmetry_Int_Tables_number   1
_chemical_formula_structural   V85Zn86O256
_chemical_formula_sum   'V85 Zn86 O256'
_cell_volume   4856.50859856
_cell_formula_units_Z   1
loop_
 _symmetry_equiv_pos_site_id
 _symmetry_equiv_pos_as_xyz
  1  'x, y, z'
loop_
 _atom_site_type_symbol
 _atom_site_label
 _atom_site_symmetry_multiplicity
 _atom_site_fract_x
 _atom_site_fract_y
 _atom_site_fract_z
 _atom_site_occupancy
  V  V0  1  0.49646571  0.37757052  0.36334680  1
  V  V1  1  0.12004856  0.62749605  0.49455550  1
  V  V2  1  0.50201037  0.12944958  0.62205080  1
  V  V3  1  0.49848851  0.00819615  0.49718366  1
  V  V4  1  0.12174260  0.87891139  0.74758817  1
  V  V5  1  0.50198723  0.50510374  0.49357302  1
  V  V6  1  0.24545464  0.12827419  0.87543316  1
  V  V7  1  0.37777179  0.75673364  0.12413671  1
  V  V8  1  0.00061413  0.62571142  0.12571392  1
  V  V9  1  0.62421068  0.50506018  0.61986868  1
  V  V10  1  0.50099994  0.25411450  0.76452369  1
  V  V11  1  0.62506665  0.00582943  0.61911007  1
  V  V12  1  0.24638237  0.87852705  0.62402222  1
  V  V13  1  0.00024098  0.25934817  0.75883408  1
  V  V14  1  0.12612095  0.75094751  0.87389447  1
  V  V15  1  0.24925986  0.37564886  0.13242545  1
  V  V16  1  0.25063558  0.25196100  -0.00029250  1
  V  V17  1  0.62976413  0.73955523  0.38691335  1
  V  V18  1  0.25322971  0.50052615  0.74983643  1
  V  V19  1  0.62189489  -0.00620026  0.13619130  1
  V  V20  1  0.86943290  0.62339271  0.25181914  1
  V  V21  1  0.62108175  0.37402958  0.76202974  1
  V  V22  1  0.38307300  0.25156387  0.13249909  1
  V  V23  1  -0.00138297  0.62426960  0.63459659  1
  V  V24  1  0.86967876  0.25359299  0.13203863  1
  V  V25  1  -0.00016027  -0.00279095  0.00209457  1
  V  V26  1  0.75470245  0.50792642  0.74956805  1
  V  V27  1  0.37343699  0.87789300  0.49775922  1
  V  V28  1  0.25712605  0.76112406  0.00078329  1
  V  V29  1  0.87936170  0.75525475  0.12093049  1
  V  V30  1  -0.00518283  0.87389100  0.87880259  1
  V  V31  1  0.38161476  0.49938624  0.87473980  1
  V  V32  1  0.12995833  0.62669083  0.00255364  1
  V  V33  1  0.00380989  0.75420075  0.26719082  1
  V  V34  1  0.63293225  0.36837290  0.24703024  1
  V  V35  1  0.12993194  0.50297289  0.13714190  1
  V  V36  1  0.50205083  0.12388672  0.12407340  1
  V  V37  1  0.49645133  0.87930530  0.88768482  1
  V  V38  1  0.87496226  0.24551046  0.62381853  1
  V  V39  1  0.62186191  0.11919222  -0.00239679  1
  V  V40  1  0.74576564  0.37214168  0.62539578  1
  V  V41  1  0.62942857  0.62564628  0.00061223  1
  V  V42  1  0.50796266  0.87737134  0.37065046  1
  V  V43  1  0.37522118  0.12646500  0.74899528  1
  V  V44  1  -0.00335011  0.12322208  0.12696639  1
  V  V45  1  0.24527460  0.75205460  0.49269955  1
  V  V46  1  0.75397152  0.76255728  -0.00147944  1
  V  V47  1  0.25291146  0.61817385  0.37568869  1
  V  V48  1  0.74358823  0.25821216  0.00120996  1
  V  V49  1  0.50823024  0.75215544  0.25010346  1
  V  V50  1  0.01136462  0.36587251  0.36854706  1
  V  V51  1  0.74786996  0.00025369  0.74914645  1
  V  V52  1  0.87361292  0.12485137  0.75188192  1
  V  V53  1  0.38208386  0.37388495  -0.00471990  1
  V  V54  1  0.87046795  -0.00516989  0.88055205  1
  V  V55  1  0.74998788  0.87216315  0.61500810  1
  V  V56  1  0.74426706  0.13127287  0.87637332  1
  V  V57  1  0.62682729  0.75111458  0.87314107  1
  V  V58  1  0.12434551  0.49854302  0.62512127  1
  V  V59  1  0.37714366  0.62018640  0.25195575  1
  V  V60  1  0.37632172  0.11613505  0.24784065  1
  V  V61  1  0.50499731  0.49744315  -0.00585411  1
  V  V62  1  0.86516649  0.73908841  0.62733209  1
  V  V63  1  0.87529715  0.36838984  0.49506433  1
  V  V64  1  0.37741021  -0.00096484  0.88509019  1
  V  V65  1  0.50212075  0.75235059  0.74918696  1
  V  V66  1  0.13028031  0.87587816  0.26454865  1
  V  V67  1  0.01277954  0.11886083  0.62888695  1
  V  V68  1  0.25009259  0.37509326  0.62383229  1
  V  V69  1  0.24391489  0.24961805  0.49178211  1
  V  V70  1  0.37508557  0.38130586  0.49256206  1
  V  V71  1  0.24098854  0.12104480  0.36541513  1
  V  V72  1  0.62275057  0.87605420  0.74881564  1
  V  V73  1  0.74107888  0.23893813  0.50053244  1
  V  V74  1  0.61513182  0.24647713  0.37594669  1
  V  V75  1  0.75299621  0.88096192  0.14022063  1
  V  V76  1  0.89098778  0.37224852  -0.00278268  1
  V  V77  1  0.74487740  0.11921456  0.36316468  1
  V  V78  1  0.24623373  0.00277646  0.74479771  1
  V  V79  1  0.37764106  0.62648647  0.74888691  1
  V  V80  1  0.25395516  0.62702477  0.87565159  1
  V  V81  1  0.63347472  0.49406926  0.12484017  1
  V  V82  1  0.76320335  0.62485697  0.87393551  1
  V  V83  1  0.37386080  0.75163356  0.62431487  1
  V  V84  1  0.37644753  0.25215229  0.62385075  1
  Zn  Zn85  1  0.88641619  0.49228821  0.86725680  1
  Zn  Zn86  1  0.03044597  0.24378005  0.26305656  1
  Zn  Zn87  1  0.25226138  0.88329587  0.13164233  1
  Zn  Zn88  1  0.12577207  0.12289326  0.00283305  1
  Zn  Zn89  1  0.12328857  0.12490789  0.49574443  1
  Zn  Zn90  1  0.12275596  0.37940193  0.75988897  1
  Zn  Zn91  1  0.12926129  -0.00296675  0.13415651  1
  Zn  Zn92  1  0.37071516  -0.00291177  0.36871314  1
  Zn  Zn93  1  0.87397674  0.49464361  0.37206299  1
  Zn  Zn94  1  0.50310400  0.62868615  0.61745469  1
  Zn  Zn95  1  0.75293691  0.49559453  0.24932833  1
  Zn  Zn96  1  0.88249470  -0.01443576  0.37337728  1
  Zn  Zn97  1  -0.00152454  0.49548590  0.49870926  1
  Zn  Zn98  1  0.00514598  -0.00846933  0.49567382  1
  Zn  Zn99  1  0.25543221  0.49505903  0.25748296  1
  Zn  Zn100  1  0.00981804  0.49153187  -0.00239141  1
  Zn  Zn101  1  0.88450833  0.86850914  0.49606806  1
  Zn  Zn102  1  0.10975654  0.26571965  0.89235636  1
  Zn  Zn103  1  -0.00640919  0.74634686  0.75370602  1
  Zn  Zn104  1  0.74973266  0.61804156  0.39063471  1
  Zn  Zn105  1  0.50161696  0.62616067  0.12444816  1
  Zn  Zn106  1  0.87031950  0.11459871  0.24772709  1
  Zn  Zn107  1  0.18800684  0.18209558  0.18307290  1
  Zn  Zn108  1  0.18654703  0.19533500  0.69124956  1
  Zn  Zn109  1  0.18933554  0.69476303  0.19129698  1
  Zn  Zn110  1  0.18578135  0.68902242  0.68546629  1
  Zn  Zn111  1  0.68249093  0.19072258  0.18601946  1
  Zn  Zn112  1  0.68362934  0.18887350  0.69013061  1
  Zn  Zn113  1  0.68788310  0.69115173  0.18610188  1
  Zn  Zn114  1  0.68771726  0.68549396  0.56605225  1
  Zn  Zn115  1  0.31409475  0.30689579  0.31128961  1
  Zn  Zn116  1  0.31136756  0.31496707  0.81360287  1
  Zn  Zn117  1  0.31580151  0.80934636  0.31294249  1
  Zn  Zn118  1  0.31353976  0.81640990  0.81343377  1
  Zn  Zn119  1  0.80927485  0.30621362  0.31690006  1
  Zn  Zn120  1  0.81023120  0.31387401  0.81511431  1
  Zn  Zn121  1  0.81289905  0.81000495  0.31360189  1
  Zn  Zn122  1  0.81153211  0.81187497  0.80504269  1
  Zn  Zn123  1  0.18485673  0.43907653  0.43802778  1
  Zn  Zn124  1  0.19130862  0.43931947  0.94186080  1
  Zn  Zn125  1  0.17875261  0.94403478  0.43806797  1
  Zn  Zn126  1  0.18614532  0.94054350  0.93557650  1
  Zn  Zn127  1  0.68910301  0.43554157  0.43478418  1
  Zn  Zn128  1  0.69287067  0.43933663  0.93573958  1
  Zn  Zn129  1  0.68546806  0.93739297  0.43584013  1
  Zn  Zn130  1  0.68248768  0.94107684  0.93900731  1
  Zn  Zn131  1  0.31192105  0.06094769  0.06444677  1
  Zn  Zn132  1  0.30929707  0.06456996  0.55883739  1
  Zn  Zn133  1  0.31599932  0.56596437  0.06575066  1
  Zn  Zn134  1  0.31430306  0.56378980  0.56122304  1
  Zn  Zn135  1  0.81063995  0.06151838  0.06272687  1
  Zn  Zn136  1  0.81682429  0.05888967  0.55601507  1
  Zn  Zn137  1  0.81518800  0.56083360  0.06154381  1
  Zn  Zn138  1  0.81690633  0.55545304  0.56407604  1
  Zn  Zn139  1  0.44273848  0.44111127  0.18100943  1
  Zn  Zn140  1  0.44064578  0.43691893  0.68411735  1
  Zn  Zn141  1  0.44177775  0.93680516  0.18452425  1
  Zn  Zn142  1  0.43466346  0.94013381  0.68880345  1
  Zn  Zn143  1  0.93993080  0.43470779  0.18601134  1
  Zn  Zn144  1  0.93523616  0.43461659  0.68327659  1
  Zn  Zn145  1  0.93768585  0.93562372  0.19484689  1
  Zn  Zn146  1  0.93421485  0.93481676  0.68584096  1
  Zn  Zn147  1  0.05646303  0.05796193  0.31274220  1
  Zn  Zn148  1  0.06190142  0.06496624  0.81414084  1
  Zn  Zn149  1  0.05635462  0.55924242  0.31620339  1
  Zn  Zn150  1  0.06418502  0.55777530  0.81676177  1
  Zn  Zn151  1  0.56158074  0.06674780  0.30975465  1
  Zn  Zn152  1  0.56036530  0.06389689  0.81067987  1
  Zn  Zn153  1  0.56342071  0.56125445  0.30990117  1
  Zn  Zn154  1  0.56878452  0.56567539  0.81070002  1
  Zn  Zn155  1  0.43117563  0.19036361  0.43387448  1
  Zn  Zn156  1  0.43532431  0.18212673  0.94150185  1
  Zn  Zn157  1  0.43586070  0.68939217  0.43406682  1
  Zn  Zn158  1  0.44061591  0.68895248  0.93849991  1
  Zn  Zn159  1  0.94651643  0.16441238  0.42601499  1
  Zn  Zn160  1  0.93124923  0.18418645  0.94228837  1
  Zn  Zn161  1  0.92959282  0.68494879  0.44436659  1
  Zn  Zn162  1  0.94097561  0.68665540  0.94140229  1
  Zn  Zn163  1  0.07543328  0.30028621  0.09616829  1
  Zn  Zn164  1  0.06005274  0.30904665  0.56417932  1
  Zn  Zn165  1  0.06705381  0.81609775  0.06640781  1
  Zn  Zn166  1  0.05999211  0.80928324  0.56448971  1
  Zn  Zn167  1  0.56420065  0.31052787  0.05989438  1
  Zn  Zn168  1  0.56102741  0.31821572  0.56173072  1
  Zn  Zn169  1  0.56617626  0.81335011  0.06441421  1
  Zn  Zn170  1  0.55888060  0.81990642  0.56079171  1
  O  O171  1  0.11270599  0.11565818  0.12075854  1
  O  O172  1  0.11401541  0.12633512  0.63442751  1
  O  O173  1  0.12249567  0.62359271  0.12055046  1
  O  O174  1  0.12025083  0.61756643  0.61747362  1
  O  O175  1  0.61984505  0.11476081  0.12143428  1
  O  O176  1  0.61594873  0.11663409  0.62966179  1
  O  O177  1  0.62688650  0.62099201  0.11268895  1
  O  O178  1  0.62109815  0.60977550  0.62671584  1
  O  O179  1  0.38293276  0.37010582  0.38109062  1
  O  O180  1  0.37191598  0.38295855  0.88738671  1
  O  O181  1  0.38539605  0.87575529  0.38048122  1
  O  O182  1  0.38398469  0.88627846  0.87019170  1
  O  O183  1  0.87831757  0.37002797  0.38388248  1
  O  O184  1  0.87205345  0.37277875  0.89311977  1
  O  O185  1  0.86851461  0.87172047  0.38273389  1
  O  O186  1  0.88209866  0.88260466  0.86827531  1
  O  O187  1  0.25359989  0.01753881  0.37760872  1
  O  O188  1  0.25630906  0.00795734  0.86682917  1
  O  O189  1  0.24885686  0.51232749  0.37580621  1
  O  O190  1  0.26117909  0.50908067  0.87085897  1
  O  O191  1  0.74357144  0.01879381  0.38237248  1
  O  O192  1  0.75474092  0.00559086  0.87117018  1
  O  O193  1  0.75394334  0.50132696  0.36869680  1
  O  O194  1  0.75648365  0.50785441  0.86872174  1
  O  O195  1  0.24789986  0.49448680  0.12805493  1
  O  O196  1  0.24410498  0.49599671  0.62834870  1
  O  O197  1  0.24283020  0.99557316  0.11703442  1
  O  O198  1  0.25492130  0.99634358  0.63721960  1
  O  O199  1  0.73705829  0.50241328  0.12426148  1
  O  O200  1  0.74328091  0.49244682  0.63411415  1
  O  O201  1  0.74347432  0.98659346  0.12174348  1
  O  O202  1  0.74137026  0.99591448  0.62837963  1
  O  O203  1  -0.00510544  0.37032187  0.26546228  1
  O  O204  1  -0.00273675  0.36213335  0.75033190  1
  O  O205  1  0.00742989  0.85857149  0.25045019  1
  O  O206  1  0.00670927  0.87607234  0.76003844  1
  O  O207  1  0.50371056  0.38104378  0.25968224  1
  O  O208  1  0.51168776  0.36947970  0.74733987  1
  O  O209  1  0.49667562  0.86655939  0.26000401  1
  O  O210  1  0.50252924  0.86659832  0.75276447  1
  O  O211  1  0.49279923  0.12303691  0.23450693  1
  O  O212  1  0.49503550  0.13504085  0.74338104  1
  O  O213  1  0.49395313  0.63245231  0.24849894  1
  O  O214  1  0.49748559  0.63883409  0.75043511  1
  O  O215  1  0.99831518  0.13107923  0.23643287  1
  O  O216  1  0.99368448  0.13344145  0.74428564  1
  O  O217  1  0.99508401  0.63238892  0.24124066  1
  O  O218  1  1.01020776  0.62430053  0.73764309  1
  O  O219  1  0.37042684  0.25764598  0.00506239  1
  O  O220  1  0.36712593  0.26052334  0.50546203  1
  O  O221  1  0.36848618  0.74476597  0.00905936  1
  O  O222  1  0.36916264  0.75783224  0.50566184  1
  O  O223  1  0.86531029  0.25832082  0.00533860  1
  O  O224  1  0.86600809  0.25387579  0.50967961  1
  O  O225  1  0.86805711  0.74571520  0.01290543  1
  O  O226  1  0.87742041  0.75047568  0.52211092  1
  O  O227  1  0.14139246  0.24613593  0.50997977  1
  O  O228  1  0.13925084  0.24737582  1.00557772  1
  O  O229  1  0.13555777  0.73856210  0.51064483  1
  O  O230  1  0.13357734  0.74239255  0.99584462  1
  O  O231  1  0.63049870  0.25656161  0.49224379  1
  O  O232  1  0.63352776  0.23495578  1.00724767  1
  O  O233  1  0.61809094  0.74726380  0.49217011  1
  O  O234  1  0.63375639  0.74333873  0.99473008  1
  O  O235  1  0.49166984  0.24036106  0.11831340  1
  O  O236  1  0.49269176  0.24754753  0.62799804  1
  O  O237  1  0.49759745  0.74990824  0.13216609  1
  O  O238  1  0.49381041  0.75112588  0.63160082  1
  O  O239  1  0.97943774  0.23718871  0.11456104  1
  O  O240  1  0.99101677  0.24570016  0.64027810  1
  O  O241  1  0.99268850  0.74425721  0.12631915  1
  O  O242  1  0.99125556  0.73869989  0.63187712  1
  O  O243  1  -0.00136903  0.25819761  0.37332631  1
  O  O244  1  -0.00290527  0.24037016  0.86312220  1
  O  O245  1  -0.00362489  0.74096504  0.36435581  1
  O  O246  1  0.00494784  0.75656194  0.87398178  1
  O  O247  1  0.50804070  0.26036496  0.38264490  1
  O  O248  1  0.49298094  0.24540460  0.86335726  1
  O  O249  1  0.50797619  0.75641572  0.37010180  1
  O  O250  1  0.50430197  0.75815276  0.86798834  1
  O  O251  1  0.25303947  0.13447659  0.48611727  1
  O  O252  1  0.25234524  0.13555699  0.99138023  1
  O  O253  1  0.24525776  0.63164374  0.49490952  1
  O  O254  1  0.24680162  0.63395381  0.99582327  1
  O  O255  1  0.74920004  0.13661627  0.49823332  1
  O  O256  1  0.74412424  0.13102626  0.99256760  1
  O  O257  1  0.75506852  0.62375410  0.50349717  1
  O  O258  1  0.74642092  0.63246116  0.99380648  1
  O  O259  1  0.26324999  0.37030240  0.00959212  1
  O  O260  1  0.25651281  0.37000029  0.50214309  1
  O  O261  1  0.24646481  0.86270124  -0.00416697  1
  O  O262  1  0.25192790  0.86925862  0.50299551  1
  O  O263  1  0.74811233  0.36059955  -0.00265209  1
  O  O264  1  0.75530219  0.36389978  0.50635169  1
  O  O265  1  0.74656846  0.86423090  0.00010953  1
  O  O266  1  0.74420384  0.87542387  0.51403869  1
  O  O267  1  0.13040593  0.50794152  0.24021706  1
  O  O268  1  0.13407149  0.50100672  0.73982460  1
  O  O269  1  0.11428078  0.98042045  0.25347143  1
  O  O270  1  0.13476202  0.99230982  0.75834063  1
  O  O271  1  0.62571072  0.49229999  0.23976929  1
  O  O272  1  0.63004833  0.49070059  0.74389053  1
  O  O273  1  0.62361366  1.00065358  0.23506227  1
  O  O274  1  0.62671709  0.99582872  0.73910959  1
  O  O275  1  0.37820986  0.01172350  0.24706997  1
  O  O276  1  0.36617799  0.00877664  0.75523475  1
  O  O277  1  0.37642543  0.51611531  0.24115989  1
  O  O278  1  0.37439200  0.50565482  0.75366499  1
  O  O279  1  0.87847154  0.00247641  0.25947601  1
  O  O280  1  0.86708804  0.00529955  0.75882344  1
  O  O281  1  0.87443793  0.50912135  0.24544398  1
  O  O282  1  0.85972811  0.48874274  0.75031508  1
  O  O283  1  0.11071171  0.37458676  0.37974583  1
  O  O284  1  0.13624834  0.37355998  0.87267298  1
  O  O285  1  0.12939832  0.87040551  0.36451557  1
  O  O286  1  0.11854859  0.86988974  0.86655876  1
  O  O287  1  0.61606683  0.36771518  0.36587402  1
  O  O288  1  0.62625499  0.38052125  0.86077071  1
  O  O289  1  0.61326817  0.86380951  0.38220272  1
  O  O290  1  0.61749170  0.87340660  0.86794814  1
  O  O291  1  0.38254115  0.13153570  0.12733890  1
  O  O292  1  0.37982435  0.13249471  0.62966264  1
  O  O293  1  0.37889121  0.63735900  0.13263557  1
  O  O294  1  0.37808357  0.63288572  0.63188920  1
  O  O295  1  0.87734295  0.13200187  0.12546019  1
  O  O296  1  0.87436974  0.13473089  0.63263569  1
  O  O297  1  0.88421512  0.63143764  0.12815561  1
  O  O298  1  0.88286145  0.63070879  0.62765080  1
  O  O299  1  0.26368791  0.25628065  0.11516686  1
  O  O300  1  0.25871572  0.25596531  0.62085378  1
  O  O301  1  0.25956539  0.75177102  0.11617868  1
  O  O302  1  0.25679405  0.75631108  0.61741332  1
  O  O303  1  0.76080169  0.24231724  0.11467056  1
  O  O304  1  0.75365920  0.25202149  0.62069976  1
  O  O305  1  0.75455601  0.76164387  0.11770627  1
  O  O306  1  0.75654466  0.75626738  0.62994513  1
  O  O307  1  0.25513421  0.23926722  0.38227412  1
  O  O308  1  0.25396297  0.24311114  0.88421118  1
  O  O309  1  0.25460190  0.74060083  0.38894803  1
  O  O310  1  0.24828861  0.74543019  0.88077291  1
  O  O311  1  0.73324883  0.24618198  0.38352010  1
  O  O312  1  0.75201489  0.23757182  0.88213708  1
  O  O313  1  0.73020032  0.74600472  0.36880890  1
  O  O314  1  0.74713558  0.74497698  0.87968752  1
  O  O315  1  -0.00190471  0.11541825  0.00777343  1
  O  O316  1  0.00410383  0.14422413  0.52651297  1
  O  O317  1  0.01130261  0.62825538  0.01389412  1
  O  O318  1  0.00657436  0.62110252  0.51075550  1
  O  O319  1  0.50813958  0.12623576  0.01056587  1
  O  O320  1  0.49113605  0.11436540  0.50250001  1
  O  O321  1  0.51322238  0.62015068  -0.00046806  1
  O  O322  1  0.48989287  0.60950125  0.49828089  1
  O  O323  1  0.49124332  0.38318054  0.49101530  1
  O  O324  1  0.49416169  0.38388653  1.00130378  1
  O  O325  1  0.49241089  0.88772533  0.49422566  1
  O  O326  1  0.50474437  0.87109522  0.98660359  1
  O  O327  1  0.99141747  0.36868890  0.49291563  1
  O  O328  1  0.99148704  0.36859841  1.00613861  1
  O  O329  1  0.99917423  0.87866649  0.50851001  1
  O  O330  1  1.00386386  0.87912155  0.98650113  1
  O  O331  1  0.50608212  0.49015304  0.38193324  1
  O  O332  1  0.49822927  0.50730764  0.88591654  1
  O  O333  1  0.50061153  0.99492883  0.38096407  1
  O  O334  1  0.48971675  0.99117393  0.86598607  1
  O  O335  1  0.99454823  0.48488132  0.37940974  1
  O  O336  1  0.99601814  0.50792960  0.88650536  1
  O  O337  1  0.98144343  1.05334734  0.39453857  1
  O  O338  1  0.99018063  0.99441937  0.87884056  1
  O  O339  1  -0.00354694  0.00291958  0.11508488  1
  O  O340  1  -0.00709367  0.01856106  0.63135823  1
  O  O341  1  0.01153438  0.50759807  0.12172422  1
  O  O342  1  0.00791198  0.50366025  0.62432903  1
  O  O343  1  0.51456917  0.00275489  0.12272724  1
  O  O344  1  0.50470885  0.00668259  0.61854445  1
  O  O345  1  0.51200230  0.50518933  0.11074944  1
  O  O346  1  0.50794590  0.50066997  0.61531181  1
  O  O347  1  0.26050011  0.37698257  0.23677305  1
  O  O348  1  0.25360533  0.38371974  0.73988282  1
  O  O349  1  0.23464846  0.86153351  0.25132449  1
  O  O350  1  0.24367101  0.88476280  0.74709200  1
  O  O351  1  0.73649078  0.37330086  0.25253846  1
  O  O352  1  0.73794337  0.37803809  0.74633528  1
  O  O353  1  0.74448485  0.86808647  0.23703913  1
  O  O354  1  0.74009752  0.88296591  0.74377394  1
  O  O355  1  0.25845236  0.13099521  0.25852917  1
  O  O356  1  0.25309793  0.12184988  0.75534776  1
  O  O357  1  0.25746810  0.62838489  0.26018974  1
  O  O358  1  0.25688186  0.62066988  0.75424460  1
  O  O359  1  0.74333840  0.12597484  0.26009228  1
  O  O360  1  0.75155615  0.12055071  0.75794682  1
  O  O361  1  0.76397294  0.62736662  0.24533019  1
  O  O362  1  0.74320553  0.60940328  0.76044337  1
  O  O363  1  0.36970577  0.12464345  0.36176829  1
  O  O364  1  0.36523847  0.12038225  0.86784364  1
  O  O365  1  0.36556442  0.62926877  0.36535045  1
  O  O366  1  0.37328090  0.62097775  0.86850408  1
  O  O367  1  0.84761258  0.14426636  0.36747517  1
  O  O368  1  0.86459722  0.11666808  0.87055154  1
  O  O369  1  0.87329312  0.62153928  0.36555808  1
  O  O370  1  0.86540984  0.62538827  0.87963078  1
  O  O371  1  0.14099019  0.39478891  0.10901980  1
  O  O372  1  0.13038367  0.38312256  0.62770400  1
  O  O373  1  0.12858948  0.87539324  0.13893516  1
  O  O374  1  0.13180149  0.86808531  0.64137417  1
  O  O375  1  0.61710519  0.38180020  0.13463487  1
  O  O376  1  0.62948696  0.38390269  0.63273495  1
  O  O377  1  0.63587503  0.88658900  0.11956428  1
  O  O378  1  0.62871121  0.88244182  0.63137184  1
  O  O379  1  0.11967711  0.26777729  0.20096680  1
  O  O380  1  0.10871844  0.25475996  0.75324233  1
  O  O381  1  0.10987942  0.75413655  0.24993568  1
  O  O382  1  0.12569144  0.75774265  0.75927195  1
  O  O383  1  0.62174370  0.25775860  0.25863138  1
  O  O384  1  0.61614015  0.26460017  0.74721286  1
  O  O385  1  0.61238778  0.74452762  0.25736032  1
  O  O386  1  0.61462462  0.75876643  0.75807613  1
  O  O387  1  0.37514569  0.24051744  0.23649817  1
  O  O388  1  0.38122633  0.24785809  0.74359263  1
  O  O389  1  0.38580534  0.74165224  0.24458865  1
  O  O390  1  0.38159617  0.74767641  0.74498333  1
  O  O391  1  0.86803113  0.24844618  0.23462978  1
  O  O392  1  0.88042121  0.24592763  0.74635803  1
  O  O393  1  0.88519251  0.74346645  0.23986492  1
  O  O394  1  0.87694105  0.75080547  0.73470607  1
  O  O395  1  0.38125261  0.48709644  0.50462720  1
  O  O396  1  0.38581581  0.49507642  0.99772384  1
  O  O397  1  0.38102271  0.99358024  0.49768657  1
  O  O398  1  0.37622296  1.00790737  0.98393689  1
  O  O399  1  0.87811624  0.47817223  0.50523128  1
  O  O400  1  0.87590915  0.47881563  1.00709583  1
  O  O401  1  0.88016636  0.99079058  0.49695075  1
  O  O402  1  0.88163497  1.00222084  0.98716959  1
  O  O403  1  0.10810450  0.00218340  -0.00721299  1
  O  O404  1  0.11941634  0.01222699  0.50132077  1
  O  O405  1  0.13207233  0.51736772  0.00765002  1
  O  O406  1  0.12458486  0.50701477  0.51248309  1
  O  O407  1  0.63084128  0.01356111  0.01124695  1
  O  O408  1  0.61400905  -0.00393400  0.51195320  1
  O  O409  1  0.62297174  0.50552455  0.00220177  1
  O  O410  1  0.61464763  0.48929107  0.50843033  1
  O  O411  1  0.37448487  0.36890898  0.11680012  1
  O  O412  1  0.37047577  0.37021136  0.61634312  1
  O  O413  1  0.37340954  0.86146347  0.13087712  1
  O  O414  1  0.36707788  0.87123259  0.61958998  1
  O  O415  1  0.87703034  0.36049675  0.11633848  1
  O  O416  1  0.86741834  0.36053852  0.62135217  1
  O  O417  1  0.86246827  0.86847949  0.12811680  1
  O  O418  1  0.86263715  0.86514959  0.62779973  1
  O  O419  1  0.13888889  0.12976024  0.36741022  1
  O  O420  1  0.13739312  0.13044191  0.87679135  1
  O  O421  1  0.12924673  0.61881355  0.38917940  1
  O  O422  1  0.13323467  0.63188511  0.88336019  1
  O  O423  1  0.62994811  0.13567695  0.37215376  1
  O  O424  1  0.63285718  0.11738676  0.88252855  1
  O  O425  1  0.62356752  0.63655770  0.37566769  1
  O  O426  1  0.63576751  0.63055559  0.88423183  1
