# generated using pymatgen
data_V85Zn86O256
_symmetry_space_group_name_H-M   'P 1'
_cell_length_a   16.93215371
_cell_length_b   16.93078086
_cell_length_c   16.92139505
_cell_angle_alpha   89.94507929
_cell_angle_beta   89.98689029
_cell_angle_gamma   90.00922724
_symmetry_Int_Tables_number   1
_chemical_formula_structural   V85Zn86O256
_chemical_formula_sum   'V85 Zn86 O256'
_cell_volume   4850.93146757
_cell_formula_units_Z   1
loop_
 _symmetry_equiv_pos_site_id
 _symmetry_equiv_pos_as_xyz
  1  'x, y, z'
loop_
 _atom_site_type_symbol
 _atom_site_label
 _atom_site_symmetry_multiplicity
 _atom_site_fract_x
 _atom_site_fract_y
 _atom_site_fract_z
 _atom_site_occupancy
  V  V0  1  0.12919177  0.75050160  0.37513052  1
  V  V1  1  0.24340634  0.49982293  0.75080943  1
  V  V2  1  0.51456750  0.13001083  0.61886214  1
  V  V3  1  0.75848815  0.12720759  0.87519603  1
  V  V4  1  0.37226621  0.49916115  0.87596732  1
  V  V5  1  0.74944532  0.00413589  0.25315585  1
  V  V6  1  0.24313113  0.75151904  -0.00199444  1
  V  V7  1  0.49925324  0.37447895  0.87745273  1
  V  V8  1  0.50097736  0.24888499  0.75092529  1
  V  V9  1  0.37682789  0.12645408  0.23685586  1
  V  V10  1  0.38381631  0.38096565  0.49732545  1
  V  V11  1  0.24724640  0.13047585  0.37852134  1
  V  V12  1  0.00326577  0.86287080  0.87270886  1
  V  V13  1  0.12271881  0.88524751  0.24401743  1
  V  V14  1  0.13364528  -0.00114649  0.63548926  1
  V  V15  1  0.63083020  -0.01783806  0.62173362  1
  V  V16  1  0.37235084  -0.00191086  0.86965325  1
  V  V17  1  0.01290967  0.25790521  0.26521922  1
  V  V18  1  0.87509156  0.24600775  0.62743180  1
  V  V19  1  0.74904440  0.37431850  0.62192439  1
  V  V20  1  0.49746770  0.87638249  0.37821197  1
  V  V21  1  0.00093566  -0.00132213  0.50454171  1
  V  V22  1  0.87034530  0.00403190  0.37843814  1
  V  V23  1  0.87306198  0.62548577  0.24852173  1
  V  V24  1  0.37255711  0.00132481  0.37650078  1
  V  V25  1  0.36744560  0.12380614  0.74568853  1
  V  V26  1  -0.00099355  0.50072613  0.49310250  1
  V  V27  1  0.74922690  0.75298536  0.49872965  1
  V  V28  1  0.12592181  0.49380758  0.12880084  1
  V  V29  1  0.62929832  0.12860077  0.00260455  1
  V  V30  1  0.50528360  0.75291337  0.74943158  1
  V  V31  1  0.13251595  0.25418782  0.87042950  1
  V  V32  1  0.62497983  0.87262042  0.25091528  1
  V  V33  1  0.00568528  0.37550044  0.87027442  1
  V  V34  1  0.49758729  0.24642878  0.23682049  1
  V  V35  1  0.38333929  0.50865807  0.37247768  1
  V  V36  1  0.49227552  0.62678756  0.62080813  1
  V  V37  1  0.61807937  0.49804874  0.62094354  1
  V  V38  1  0.24918520  0.36244845  0.12869951  1
  V  V39  1  0.00564428  0.12293590  0.12777383  1
  V  V40  1  0.75130501  0.00501948  0.74787683  1
  V  V41  1  -0.00063666  0.75185324  0.24870201  1
  V  V42  1  0.63219781  0.25102900  0.87981393  1
  V  V43  1  0.00145624  0.62234827  0.12387829  1
  V  V44  1  0.74654657  0.23635397  0.49523788  1
  V  V45  1  0.75174116  0.62460095  0.37449153  1
  V  V46  1  -0.00391774  0.12255829  0.63261073  1
  V  V47  1  0.36960600  0.36006198  0.00433212  1
  V  V48  1  0.24732835  0.88258385  0.12211287  1
  V  V49  1  0.00014299  0.87569605  0.37505112  1
  V  V50  1  0.87391215  0.86815974  0.50024269  1
  V  V51  1  0.48839780  0.74612449  0.24883183  1
  V  V52  1  0.75052277  0.49829214  0.24867018  1
  V  V53  1  0.37441127  0.25196976  0.61881223  1
  V  V54  1  0.49670113  0.50123359  0.00381457  1
  V  V55  1  0.23902995  0.62931846  0.87512221  1
  V  V56  1  0.25141710  0.37966211  0.62576029  1
  V  V57  1  0.74959487  0.36611416  0.12128729  1
  V  V58  1  0.12996230  0.12959104  0.00266680  1
  V  V59  1  0.12936337  0.86219033  0.75349125  1
  V  V60  1  0.25046667  0.50753741  0.24888577  1
  V  V61  1  0.87417955  0.37448462  0.49166678  1
  V  V62  1  0.74873795  0.62791553  0.88196691  1
  V  V63  1  0.87609822  0.49989344  0.87296673  1
  V  V64  1  0.62436323  0.37606870  0.75072288  1
  V  V65  1  0.00401932  0.00251375  -0.00301013  1
  V  V66  1  0.62344841  0.23139915  0.37736573  1
  V  V67  1  0.62233338  0.63339321  0.00278751  1
  V  V68  1  0.75025269  0.50127227  0.74952278  1
  V  V69  1  0.49746979  0.00433987  0.00285689  1
  V  V70  1  0.11977223  0.49642931  0.62454111  1
  V  V71  1  0.00179344  0.25144343  0.74697688  1
  V  V72  1  0.86961062  0.74959196  0.11711395  1
  V  V73  1  0.62270737  0.37407553  0.25377752  1
  V  V74  1  0.37416142  0.63030934  0.74946824  1
  V  V75  1  0.87183559  0.36613193  -0.00278174  1
  V  V76  1  0.25104419  0.12542834  0.87444210  1
  V  V77  1  0.25730581  0.75545032  0.51428414  1
  V  V78  1  0.80598677  0.81661485  0.67615198  1
  V  V79  1  -0.00696348  0.63698982  0.62960716  1
  V  V80  1  0.50868706  0.87569001  0.87420536  1
  V  V81  1  0.74933919  0.87416500  0.11573384  1
  V  V82  1  0.62032057  0.00538226  0.12564113  1
  V  V83  1  0.87420880  0.12804780  0.25186916  1
  V  V84  1  0.62156602  0.62082807  0.49883254  1
  Zn  Zn85  1  0.50610611  0.00900190  0.49668333  1
  Zn  Zn86  1  0.00195951  0.49597974  0.00052736  1
  Zn  Zn87  1  0.12171693  0.62534345  -0.00234804  1
  Zn  Zn88  1  0.87648989  0.24779874  0.12390698  1
  Zn  Zn89  1  0.12392527  0.12606913  0.49884690  1
  Zn  Zn90  1  0.50017562  0.37428354  0.37566679  1
  Zn  Zn91  1  0.87490694  0.63796315  0.74919381  1
  Zn  Zn92  1  0.29538947  -0.06964883  0.68582452  1
  Zn  Zn93  1  0.62305985  0.50029107  0.12518546  1
  Zn  Zn94  1  0.62811418  0.75439042  0.87770222  1
  Zn  Zn95  1  0.88018745  0.00499397  0.86902688  1
  Zn  Zn96  1  0.21468201  0.28142335  0.46607315  1
  Zn  Zn97  1  0.87843515  0.87974950  0.00152910  1
  Zn  Zn98  1  0.88180323  0.49511533  0.36948316  1
  Zn  Zn99  1  0.49285959  0.62041474  0.13113156  1
  Zn  Zn100  1  0.12509344  0.62997865  0.50158077  1
  Zn  Zn101  1  0.37431808  0.87423352  0.00132600  1
  Zn  Zn102  1  0.24592768  0.00351899  0.24596995  1
  Zn  Zn103  1  0.37379321  0.87648675  0.51743491  1
  Zn  Zn104  1  0.36786294  0.74402098  0.12490031  1
  Zn  Zn105  1  0.62331435  0.74918231  0.37435670  1
  Zn  Zn106  1  0.25481188  0.63043387  0.37250400  1
  Zn  Zn107  1  0.18625299  0.18546678  0.19252875  1
  Zn  Zn108  1  0.17043829  0.20738755  0.65903301  1
  Zn  Zn109  1  0.18639853  0.69058594  0.18558217  1
  Zn  Zn110  1  0.18294827  0.68373841  0.68556525  1
  Zn  Zn111  1  0.68699291  0.18694252  0.18990625  1
  Zn  Zn112  1  0.69224699  0.18886293  0.69206241  1
  Zn  Zn113  1  0.68354325  0.68793615  0.18398697  1
  Zn  Zn114  1  0.68103609  0.67953288  0.69211735  1
  Zn  Zn115  1  0.31457617  0.31607856  0.30503330  1
  Zn  Zn116  1  0.31358144  0.31309161  0.80887939  1
  Zn  Zn117  1  0.30882836  0.81866330  0.31314479  1
  Zn  Zn118  1  0.31666961  0.80853300  0.81794781  1
  Zn  Zn119  1  0.80909886  0.30842297  0.31348128  1
  Zn  Zn120  1  0.81401535  0.31194408  0.80969754  1
  Zn  Zn121  1  0.81144709  0.81365512  0.31055917  1
  Zn  Zn122  1  0.81098477  0.81631600  0.83713735  1
  Zn  Zn123  1  0.18558419  0.44597103  0.43261364  1
  Zn  Zn124  1  0.18707347  0.43756144  0.94431347  1
  Zn  Zn125  1  0.18871982  0.93792320  0.44059849  1
  Zn  Zn126  1  0.18535329  0.94092042  0.93428342  1
  Zn  Zn127  1  0.68934070  0.43556879  0.43524704  1
  Zn  Zn128  1  0.68672590  0.44207275  0.94047723  1
  Zn  Zn129  1  0.68631802  0.93891580  0.43932868  1
  Zn  Zn130  1  0.68761841  0.94406545  0.93704328  1
  Zn  Zn131  1  0.30873125  0.06247102  0.05789508  1
  Zn  Zn132  1  0.31882403  0.06509129  0.55729731  1
  Zn  Zn133  1  0.31336596  0.56394684  0.06426574  1
  Zn  Zn134  1  0.31056368  0.56619389  0.55572101  1
  Zn  Zn135  1  0.81428784  0.06251014  0.06306137  1
  Zn  Zn136  1  0.81183903  0.06032858  0.56463704  1
  Zn  Zn137  1  0.81192943  0.55628054  0.06099846  1
  Zn  Zn138  1  0.81347099  0.56334215  0.56292286  1
  Zn  Zn139  1  0.43275716  0.43530031  0.18828740  1
  Zn  Zn140  1  0.43671034  0.44121290  0.68979600  1
  Zn  Zn141  1  0.43343832  0.93622890  0.18723700  1
  Zn  Zn142  1  0.45699542  0.94047568  0.68816403  1
  Zn  Zn143  1  0.93776530  0.43328557  0.18786201  1
  Zn  Zn144  1  0.93785604  0.43496788  0.68471887  1
  Zn  Zn145  1  0.93827940  0.94157428  0.18438495  1
  Zn  Zn146  1  0.94224941  0.94000789  0.69617668  1
  Zn  Zn147  1  0.06060186  0.06661892  0.31626087  1
  Zn  Zn148  1  0.06452164  0.06290294  0.81090035  1
  Zn  Zn149  1  0.06571641  0.56258671  0.30904688  1
  Zn  Zn150  1  0.05939481  0.56374978  0.80639280  1
  Zn  Zn151  1  0.55602247  0.06063754  0.30783658  1
  Zn  Zn152  1  0.56592878  0.06259195  0.80810210  1
  Zn  Zn153  1  0.56391464  0.56252940  0.31294511  1
  Zn  Zn154  1  0.56140490  0.56359284  0.81427145  1
  Zn  Zn155  1  0.43497916  0.19012604  0.43477081  1
  Zn  Zn156  1  0.44238091  0.18400491  0.93706638  1
  Zn  Zn157  1  0.43646212  0.69041442  0.43778900  1
  Zn  Zn158  1  0.43124677  0.68857033  0.93935129  1
  Zn  Zn159  1  0.93667210  0.18454205  0.44157146  1
  Zn  Zn160  1  0.94249439  0.18973894  0.93771249  1
  Zn  Zn161  1  0.93865604  0.68593232  0.43835862  1
  Zn  Zn162  1  0.93562909  0.68568409  0.94023914  1
  Zn  Zn163  1  0.06221740  0.30818107  0.06298121  1
  Zn  Zn164  1  0.07299381  0.32162658  0.52585595  1
  Zn  Zn165  1  0.06384571  0.81157504  0.06113048  1
  Zn  Zn166  1  0.06830829  0.81545615  0.56419197  1
  Zn  Zn167  1  0.56363167  0.31468176  0.06229016  1
  Zn  Zn168  1  0.56225788  0.31057885  0.55793647  1
  Zn  Zn169  1  0.55924092  0.81673360  0.06385364  1
  Zn  Zn170  1  0.55896549  0.80694960  0.56097025  1
  O  O171  1  0.12042102  0.12946690  0.11494523  1
  O  O172  1  0.11415624  0.10854464  0.63254098  1
  O  O173  1  0.11440898  0.61820407  0.12616532  1
  O  O174  1  0.11286981  0.61432804  0.62525488  1
  O  O175  1  0.63089554  0.11423013  0.11903699  1
  O  O176  1  0.61574865  0.13215196  0.62725760  1
  O  O177  1  0.61773529  0.62118138  0.11728656  1
  O  O178  1  0.61622679  0.61641734  0.61841746  1
  O  O179  1  0.37513171  0.38277949  0.38207245  1
  O  O180  1  0.37840670  0.37997142  0.88133930  1
  O  O181  1  0.38165123  0.88816646  0.37071772  1
  O  O182  1  0.38504168  0.88485268  0.87590556  1
  O  O183  1  0.86789171  0.37534128  0.38741556  1
  O  O184  1  0.87950163  0.38023238  0.87945107  1
  O  O185  1  0.87980278  0.88243691  0.38091575  1
  O  O186  1  0.88973070  0.88192399  0.88171204  1
  O  O187  1  0.25744453  0.00672229  0.37168363  1
  O  O188  1  0.26366493  0.00910812  0.87736189  1
  O  O189  1  0.25596016  0.50502472  0.36632513  1
  O  O190  1  0.25255146  0.50352172  0.86771759  1
  O  O191  1  0.75834504  -0.00726538  0.36615351  1
  O  O192  1  0.75097384  0.00885722  0.86658975  1
  O  O193  1  0.75199838  0.50481119  0.36265316  1
  O  O194  1  0.75659401  0.50731394  0.87064185  1
  O  O195  1  0.24263223  0.49501058  0.13049437  1
  O  O196  1  0.24429427  0.49960260  0.63054317  1
  O  O197  1  0.24955964  0.98777505  0.12371395  1
  O  O198  1  0.23740571  1.00829898  0.62300257  1
  O  O199  1  0.74883533  0.49042706  0.13607196  1
  O  O200  1  0.73958752  0.49646702  0.62918883  1
  O  O201  1  0.74362931  0.99297922  0.13277038  1
  O  O202  1  0.73825820  1.00273818  0.63013723  1
  O  O203  1  -0.00808430  0.35617905  0.25009443  1
  O  O204  1  -0.00340203  0.36867396  0.76204857  1
  O  O205  1  0.00405413  0.87208752  0.25318711  1
  O  O206  1  0.00877481  0.87564848  0.76484013  1
  O  O207  1  0.50686680  0.36606026  0.25037641  1
  O  O208  1  0.50492821  0.37108597  0.75749082  1
  O  O209  1  0.50603548  0.86991761  0.25848081  1
  O  O210  1  0.50169726  0.86417473  0.76075832  1
  O  O211  1  0.48559568  0.12994244  0.24958313  1
  O  O212  1  0.49267764  0.13030467  0.74149862  1
  O  O213  1  0.50887239  0.64391228  0.25125963  1
  O  O214  1  0.49162805  0.62756705  0.74429238  1
  O  O215  1  0.99307935  0.12843917  0.24462123  1
  O  O216  1  0.99832813  0.13159120  0.74033905  1
  O  O217  1  0.99343790  0.62901957  0.23986477  1
  O  O218  1  0.99340544  0.62567029  0.73676901  1
  O  O219  1  0.38206416  0.26137921  -0.00498385  1
  O  O220  1  0.37534578  0.25993436  0.50890124  1
  O  O221  1  0.35990902  0.75532565  -0.00029379  1
  O  O222  1  0.36150353  0.75451149  0.49685589  1
  O  O223  1  0.87662525  0.26215073  -0.00012481  1
  O  O224  1  0.86793270  0.25630347  0.50511185  1
  O  O225  1  0.87646444  0.75455013  0.01361947  1
  O  O226  1  0.86816932  0.76038724  0.49627337  1
  O  O227  1  0.14174172  0.23253872  0.54366296  1
  O  O228  1  0.11838487  0.23750552  0.98544470  1
  O  O229  1  0.13419888  0.75231211  0.49216515  1
  O  O230  1  0.13685567  0.74403204  1.00315133  1
  O  O231  1  0.63042809  0.25194827  0.48541899  1
  O  O232  1  0.62113485  0.24169391  0.99220832  1
  O  O233  1  0.63237748  0.73938707  0.49847538  1
  O  O234  1  0.61670816  0.73736130  1.00036130  1
  O  O235  1  0.50848786  0.24898376  0.13756199  1
  O  O236  1  0.49322804  0.24653869  0.62965480  1
  O  O237  1  0.49785676  0.75666562  0.14141800  1
  O  O238  1  0.50385486  0.73748151  0.63478098  1
  O  O239  1  0.99713155  0.23788690  0.13261133  1
  O  O240  1  0.99234850  0.24319221  0.63041713  1
  O  O241  1  0.99273433  0.74259642  0.12948545  1
  O  O242  1  1.00369718  0.73508797  0.61755783  1
  O  O243  1  -0.00271937  0.24113796  0.36433414  1
  O  O244  1  0.00810833  0.25538442  0.86588621  1
  O  O245  1  0.00431108  0.75721146  0.36937788  1
  O  O246  1  -0.00229829  0.76388528  0.88194635  1
  O  O247  1  0.51201716  0.25082974  0.36827506  1
  O  O248  1  0.51193814  0.25413408  0.87054958  1
  O  O249  1  0.50162059  0.75752725  0.36501174  1
  O  O250  1  0.49874462  0.75949928  0.87063966  1
  O  O251  1  0.25319966  0.12325557  0.48308295  1
  O  O252  1  0.24454840  0.12576288  0.98558899  1
  O  O253  1  0.24636998  0.63990757  0.49474737  1
  O  O254  1  0.24820182  0.63076056  0.99012031  1
  O  O255  1  0.75529521  0.13743353  0.50062803  1
  O  O256  1  0.73738190  0.11778392  0.99265176  1
  O  O257  1  0.74566813  0.63492809  0.49737029  1
  O  O258  1  0.73679426  0.61393356  0.99393323  1
  O  O259  1  0.25968452  0.37774806  0.01214841  1
  O  O260  1  0.26718054  0.37979489  0.51562202  1
  O  O261  1  0.24648213  0.87051469  0.00396503  1
  O  O262  1  0.25217592  0.86116645  0.49792280  1
  O  O263  1  0.75687331  0.38153534  0.00966599  1
  O  O264  1  0.75475555  0.36770219  0.50576177  1
  O  O265  1  0.75221771  0.88231516  0.01199717  1
  O  O266  1  0.75485863  0.86111371  0.49652497  1
  O  O267  1  0.13151528  0.49842157  0.23883707  1
  O  O268  1  0.13655980  0.50273946  0.74256402  1
  O  O269  1  0.12259716  0.98846125  0.25582063  1
  O  O270  1  0.12400381  0.99122703  0.74043861  1
  O  O271  1  0.63125290  0.49147314  0.24853513  1
  O  O272  1  0.62928689  0.49530346  0.74291991  1
  O  O273  1  0.62936887  0.99340782  0.24456804  1
  O  O274  1  0.63636635  1.00281355  0.73623340  1
  O  O275  1  0.37456205  0.01145089  0.25582334  1
  O  O276  1  0.37683542  0.00765445  0.75425401  1
  O  O277  1  0.36645872  0.49520232  0.26375298  1
  O  O278  1  0.36628918  0.51041210  0.75528820  1
  O  O279  1  0.86865449  0.00663579  0.25702989  1
  O  O280  1  0.85805594  -0.00362895  0.74901014  1
  O  O281  1  0.86763717  0.50519324  0.24966959  1
  O  O282  1  0.86923522  0.49600921  0.76131430  1
  O  O283  1  0.13123591  0.35095491  0.42748488  1
  O  O284  1  0.11778887  0.36744039  0.88041961  1
  O  O285  1  0.11928753  0.86773752  0.36903401  1
  O  O286  1  0.11441916  0.87909190  0.86450549  1
  O  O287  1  0.62353267  0.37210034  0.36297028  1
  O  O288  1  0.62198199  0.36865813  0.87327436  1
  O  O289  1  0.61737918  0.87570355  0.36666643  1
  O  O290  1  0.61381539  0.87473829  0.88219248  1
  O  O291  1  0.36719642  0.12184349  0.13815721  1
  O  O292  1  0.38012471  0.13403658  0.63004157  1
  O  O293  1  0.38066514  0.63044321  0.12194857  1
  O  O294  1  0.38596352  0.61563267  0.63138734  1
  O  O295  1  0.88166292  0.12584031  0.13486572  1
  O  O296  1  0.88024643  0.13707452  0.62066412  1
  O  O297  1  0.87766946  0.63043121  0.12830373  1
  O  O298  1  0.88742052  0.62220138  0.62836297  1
  O  O299  1  0.24609649  0.26363837  0.13133530  1
  O  O300  1  0.26817748  0.26473701  0.63951268  1
  O  O301  1  0.24825613  0.76120195  0.11806113  1
  O  O302  1  0.24687186  0.74745566  0.61329129  1
  O  O303  1  0.75352181  0.26216953  0.13152165  1
  O  O304  1  0.75573045  0.25401837  0.61880923  1
  O  O305  1  0.75756457  0.76129834  0.13279729  1
  O  O306  1  0.74535809  0.75123509  0.62151532  1
  O  O307  1  0.26101848  0.23455646  0.37150732  1
  O  O308  1  0.23853648  0.24618986  0.86612121  1
  O  O309  1  0.24141112  0.74982985  0.37527925  1
  O  O310  1  0.25146162  0.73938682  0.88215417  1
  O  O311  1  0.73359628  0.25066741  0.38063700  1
  O  O312  1  0.73942456  0.24476586  0.86935548  1
  O  O313  1  0.74758821  0.74393785  0.38170191  1
  O  O314  1  0.74677877  0.73437501  0.87878076  1
  O  O315  1  0.00736370  0.12212043  0.00689874  1
  O  O316  1  0.00119049  0.11746832  0.51330022  1
  O  O317  1  -0.00170748  0.62103777  0.01260421  1
  O  O318  1  -0.00192313  0.61717343  0.51081396  1
  O  O319  1  0.51276255  0.11225460  -0.00591262  1
  O  O320  1  0.49335624  0.12743152  0.51412249  1
  O  O321  1  0.50486477  0.61622021  -0.00309483  1
  O  O322  1  0.50909543  0.63149992  0.50795243  1
  O  O323  1  0.48923914  0.37573890  0.49808724  1
  O  O324  1  0.49380124  0.38162883  0.99606754  1
  O  O325  1  0.49840147  0.87181846  0.48605493  1
  O  O326  1  0.49781551  0.88759111  0.99414704  1
  O  O327  1  0.98365348  0.38853992  0.51117628  1
  O  O328  1  0.99217894  0.37423904  0.98785381  1
  O  O329  1  0.99204400  0.87832328  0.49716766  1
  O  O330  1  1.00612712  0.88473670  0.99070895  1
  O  O331  1  0.48693761  0.49664176  0.36796988  1
  O  O332  1  0.49369966  0.49310826  0.88097358  1
  O  O333  1  0.49379260  0.99351187  0.37693355  1
  O  O334  1  0.49408050  0.99568165  0.87810455  1
  O  O335  1  1.00071606  0.50632668  0.38791874  1
  O  O336  1  0.99389832  0.49301204  0.87386457  1
  O  O337  1  0.99287694  0.99471888  0.38352097  1
  O  O338  1  0.99876973  0.99736047  0.88104052  1
  O  O339  1  -0.00059224  0.01422701  0.11804221  1
  O  O340  1  0.00386998  0.00588201  0.62441095  1
  O  O341  1  0.00597634  0.50507026  0.12627936  1
  O  O342  1  0.00549972  0.50434098  0.61933347  1
  O  O343  1  0.50932365  -0.00582454  0.11715123  1
  O  O344  1  0.51907734  0.01247242  0.62473910  1
  O  O345  1  0.50016178  0.49799114  0.11676466  1
  O  O346  1  0.51218357  0.50708989  0.62941147  1
  O  O347  1  0.25334046  0.38540475  0.23552166  1
  O  O348  1  0.26052574  0.38893401  0.73758982  1
  O  O349  1  0.23952630  0.87860386  0.24123480  1
  O  O350  1  0.23578605  0.87281434  0.76278264  1
  O  O351  1  0.74436111  0.38062874  0.24542202  1
  O  O352  1  0.74308964  0.38011360  0.74282333  1
  O  O353  1  0.74250316  0.88435410  0.24347537  1
  O  O354  1  0.75473071  0.87450769  0.74395344  1
  O  O355  1  0.25914320  0.12275649  0.25894952  1
  O  O356  1  0.26423241  0.13110198  0.75898132  1
  O  O357  1  0.24499735  0.61231894  0.24954517  1
  O  O358  1  0.25536559  0.62084281  0.75469119  1
  O  O359  1  0.75697703  0.11190559  0.24596866  1
  O  O360  1  0.74778652  0.11782635  0.76168262  1
  O  O361  1  0.75178568  0.61734888  0.25172557  1
  O  O362  1  0.75360371  0.61756663  0.75873745  1
  O  O363  1  0.36927401  0.11625483  0.36854595  1
  O  O364  1  0.37172352  0.12010627  0.86749682  1
  O  O365  1  0.37598966  0.61241643  0.37632520  1
  O  O366  1  0.36588884  0.61735390  0.86744825  1
  O  O367  1  0.87864624  0.11046535  0.37017384  1
  O  O368  1  0.86192472  0.12790338  0.88224285  1
  O  O369  1  0.86872907  0.62354439  0.36653858  1
  O  O370  1  0.86884817  0.61784104  0.87372811  1
  O  O371  1  0.13740986  0.38084979  0.11587342  1
  O  O372  1  0.13676755  0.38946127  0.61910004  1
  O  O373  1  0.12998947  0.87183955  0.13468581  1
  O  O374  1  0.12002232  0.88619017  0.64051191  1
  O  O375  1  0.63251064  0.37533876  0.13596149  1
  O  O376  1  0.62747108  0.38113794  0.62721074  1
  O  O377  1  0.63107591  0.88394352  0.13083144  1
  O  O378  1  0.62080425  0.88384217  0.62420553  1
  O  O379  1  0.11195569  0.24781542  0.25243930  1
  O  O380  1  0.11092533  0.24841418  0.75321600  1
  O  O381  1  0.11753916  0.75975090  0.25580854  1
  O  O382  1  0.12419820  0.76350330  0.74499954  1
  O  O383  1  0.62039522  0.25334138  0.26002469  1
  O  O384  1  0.62057535  0.25755584  0.75735112  1
  O  O385  1  0.62059431  0.76353579  0.25029272  1
  O  O386  1  0.60979702  0.73963893  0.75871371  1
  O  O387  1  0.38427087  0.23678411  0.25378288  1
  O  O388  1  0.38475693  0.24376792  0.74487867  1
  O  O389  1  0.38653723  0.75453381  0.25254291  1
  O  O390  1  0.38433078  0.73569411  0.75553066  1
  O  O391  1  0.87468852  0.23529072  0.25271483  1
  O  O392  1  0.88630638  0.25512674  0.73966204  1
  O  O393  1  0.88017729  0.74567686  0.24154347  1
  O  O394  1  0.86047644  0.75948573  0.74119083  1
  O  O395  1  0.37123486  0.49527007  0.48378304  1
  O  O396  1  0.38334155  0.49329053  0.99397130  1
  O  O397  1  0.38200484  0.99618969  0.49063273  1
  O  O398  1  0.38346536  1.00212309  0.99061277  1
  O  O399  1  0.87916514  0.49242299  0.49748218  1
  O  O400  1  0.87739342  0.49045642  0.98740357  1
  O  O401  1  0.87610635  0.98896172  0.49533191  1
  O  O402  1  0.89057513  1.00125591  0.99947548  1
  O  O403  1  0.11513166  0.01614446  -0.00837668  1
  O  O404  1  0.11831524  -0.00203860  0.51470127  1
  O  O405  1  0.12195549  0.50475781  0.01333489  1
  O  O406  1  0.11597274  0.50887900  0.50763717  1
  O  O407  1  0.61876839  0.00686443  0.00815698  1
  O  O408  1  0.62563692  -0.00061551  0.51537427  1
  O  O409  1  0.61043867  0.50542030  0.00150025  1
  O  O410  1  0.63196577  0.51101269  0.50634789  1
  O  O411  1  0.36121089  0.37684453  0.11692154  1
  O  O412  1  0.37509597  0.37218914  0.61985447  1
  O  O413  1  0.36297803  0.87120482  0.12287486  1
  O  O414  1  0.37944975  0.88424109  0.63067951  1
  O  O415  1  0.86796274  0.37409367  0.11462832  1
  O  O416  1  0.86775336  0.36499811  0.61802154  1
  O  O417  1  0.86703137  0.86872395  0.12596762  1
  O  O418  1  0.87343075  0.87388596  0.62046124  1
  O  O419  1  0.14159767  0.12025264  0.37837445  1
  O  O420  1  0.13509602  0.13195181  0.87531485  1
  O  O421  1  0.12213290  0.64140444  0.37436977  1
  O  O422  1  0.13538433  0.61843312  0.87410424  1
  O  O423  1  0.62228608  0.13279186  0.37083549  1
  O  O424  1  0.63253233  0.13262902  0.88127277  1
  O  O425  1  0.63169927  0.62539630  0.38341160  1
  O  O426  1  0.63227249  0.62262148  0.88445499  1
