# generated using pymatgen
data_V85Zn86O256
_symmetry_space_group_name_H-M   'P 1'
_cell_length_a   16.96225067
_cell_length_b   16.94677007
_cell_length_c   16.95876061
_cell_angle_alpha   90.03976728
_cell_angle_beta   89.95014805
_cell_angle_gamma   89.91439803
_symmetry_Int_Tables_number   1
_chemical_formula_structural   V85Zn86O256
_chemical_formula_sum   'V85 Zn86 O256'
_cell_volume   4874.87820456
_cell_formula_units_Z   1
loop_
 _symmetry_equiv_pos_site_id
 _symmetry_equiv_pos_as_xyz
  1  'x, y, z'
loop_
 _atom_site_type_symbol
 _atom_site_label
 _atom_site_symmetry_multiplicity
 _atom_site_fract_x
 _atom_site_fract_y
 _atom_site_fract_z
 _atom_site_occupancy
  V  V0  1  0.38722982  0.63151989  0.75892197  1
  V  V1  1  0.87102489  0.62105854  0.75437573  1
  V  V2  1  0.25069880  0.86857244  0.62289287  1
  V  V3  1  0.37656572  -0.00393036  0.37602960  1
  V  V4  1  0.37010372  0.50095002  0.37978068  1
  V  V5  1  0.37827385  0.25170473  0.12214501  1
  V  V6  1  0.00939705  -0.01038105  0.00029243  1
  V  V7  1  0.61459273  0.24870820  0.87020194  1
  V  V8  1  0.74920506  0.24828325  0.49416240  1
  V  V9  1  0.48269764  0.37168552  0.87481659  1
  V  V10  1  0.12206922  0.12563514  0.49989137  1
  V  V11  1  0.62485148  -0.00057344  0.62399729  1
  V  V12  1  0.00177780  0.74707727  0.75549272  1
  V  V13  1  0.63622161  0.87810911  0.23132031  1
  V  V14  1  0.50147226  -0.00035728  0.49950953  1
  V  V15  1  0.25733766  0.10967863  0.88155304  1
  V  V16  1  0.87709800  0.24340470  0.62897470  1
  V  V17  1  0.12803036  0.12026302  -0.00295868  1
  V  V18  1  0.87033367  0.11897285  0.74718545  1
  V  V19  1  0.74793021  0.12579917  0.37286644  1
  V  V20  1  0.75600954  0.25518194  -0.00679442  1
  V  V21  1  0.04939586  0.16473257  0.68188290  1
  V  V22  1  -0.01111052  0.48996510  -0.00731225  1
  V  V23  1  0.75203962  0.74581169  0.48412145  1
  V  V24  1  0.12686371  0.37437594  0.25006612  1
  V  V25  1  0.50485421  0.24750900  0.25593441  1
  V  V26  1  0.25180449  0.12338042  0.37653237  1
  V  V27  1  0.49780375  0.50300111  0.50417565  1
  V  V28  1  0.24954923  0.24965389  -0.00360198  1
  V  V29  1  0.37605188  0.12380528  0.25171126  1
  V  V30  1  0.75164849  0.87214821  0.61860710  1
  V  V31  1  -0.00161980  0.49854394  0.50002967  1
  V  V32  1  0.25857973  0.25731366  0.49994878  1
  V  V33  1  0.24856284  0.50483486  0.25219178  1
  V  V34  1  0.62915856  0.62599833  0.47857218  1
  V  V35  1  0.74566993  0.37479423  0.62604182  1
  V  V36  1  -0.00231711  0.24958944  0.24889665  1
  V  V37  1  0.26530196  0.38773309  0.61622734  1
  V  V38  1  0.12508831  0.86999805  0.75486044  1
  V  V39  1  0.37802446  0.87114142  0.49896139  1
  V  V40  1  0.49200333  0.87703364  0.87222168  1
  V  V41  1  0.87652362  0.37631873  0.50518871  1
  V  V42  1  0.25164943  -0.00633032  0.24543425  1
  V  V43  1  0.12824139  0.62268641  -0.02168961  1
  V  V44  1  0.49542993  0.13171287  0.63251356  1
  V  V45  1  0.39103103  0.74528837  0.62837066  1
  V  V46  1  0.75393146  0.37265040  0.12084108  1
  V  V47  1  0.50306755  0.00006067  -0.00359840  1
  V  V48  1  0.50478818  0.74995461  0.25139127  1
  V  V49  1  0.12797142  0.24794333  0.37613629  1
  V  V50  1  0.51549490  0.87086298  0.37441822  1
  V  V51  1  0.62468876  0.37195958  0.25481957  1
  V  V52  1  0.87940831  0.12552860  0.25296571  1
  V  V53  1  0.12764646  0.50044747  0.62483668  1
  V  V54  1  0.50757593  0.11906904  0.12797657  1
  V  V55  1  0.24752486  0.51053240  0.75761195  1
  V  V56  1  0.12909823  0.86976057  0.24144719  1
  V  V57  1  0.61809622  0.86936610  0.74603982  1
  V  V58  1  -0.00064131  0.62393945  0.62467513  1
  V  V59  1  0.62023597  0.62484895  -0.00006458  1
  V  V60  1  0.87625170  0.74651271  0.12227918  1
  V  V61  1  0.62121871  0.49624227  0.12542556  1
  V  V62  1  -0.00259086  -0.00608356  0.50171757  1
  V  V63  1  0.25947346  -0.00355483  0.75249390  1
  V  V64  1  0.37251993  0.62721826  0.25314185  1
  V  V65  1  0.49032752  0.49370295  0.00006367  1
  V  V66  1  0.62257775  0.51238974  0.62649407  1
  V  V67  1  -0.01177658  0.87114013  0.87774890  1
  V  V68  1  0.61065498  0.37106579  0.74659865  1
  V  V69  1  0.87635164  -0.01016109  0.37669662  1
  V  V70  1  0.00011674  0.37695606  0.37655095  1
  V  V71  1  -0.00289575  0.74350759  0.25062602  1
  V  V72  1  0.87353052  0.75136702  0.61983748  1
  V  V73  1  0.13256349  0.62563044  0.49317633  1
  V  V74  1  0.13423355  0.74763898  0.37152951  1
  V  V75  1  0.62321376  0.13000091  0.49662625  1
  V  V76  1  0.75265569  0.74962597  0.00220367  1
  V  V77  1  0.61991831  0.74885334  0.87131513  1
  V  V78  1  0.25525209  0.37466764  0.12277522  1
  V  V79  1  0.12325413  -0.00518615  0.62520737  1
  V  V80  1  0.00428938  0.62045048  0.12237464  1
  V  V81  1  0.37063029  0.87912890  0.01121671  1
  V  V82  1  0.62578208  0.12469963  0.00195900  1
  V  V83  1  0.49649171  0.37227553  0.38105596  1
  V  V84  1  0.81402330  0.92515059  0.06112267  1
  Zn  Zn85  1  0.36622199  0.75443153  0.12861641  1
  Zn  Zn86  1  0.74890751  -0.00474192  0.75037110  1
  Zn  Zn87  1  0.74614021  0.49907635  0.75432724  1
  Zn  Zn88  1  0.88087013  0.25490553  0.11985894  1
  Zn  Zn89  1  0.87001154  0.52284986  0.37045047  1
  Zn  Zn90  1  0.49507638  0.62607530  0.12486433  1
  Zn  Zn91  1  0.74713503  0.12290249  0.87013266  1
  Zn  Zn92  1  0.36901041  0.50829794  0.88237017  1
  Zn  Zn93  1  -0.00085805  0.87079178  0.37678695  1
  Zn  Zn94  1  0.86637430  0.48470272  0.87867748  1
  Zn  Zn95  1  0.00425528  0.12300506  0.12208334  1
  Zn  Zn96  1  0.75003391  0.62093604  0.87839156  1
  Zn  Zn97  1  0.86806887  -0.00469607  0.87467191  1
  Zn  Zn98  1  0.12581513  0.49734533  0.11819770  1
  Zn  Zn99  1  0.25554560  0.74566419  0.49607865  1
  Zn  Zn100  1  0.24474643  0.74280570  -0.00376139  1
  Zn  Zn101  1  0.13284355  -0.00659295  0.12032263  1
  Zn  Zn102  1  0.38006810  0.13400714  0.76267628  1
  Zn  Zn103  1  0.07670103  0.31941821  0.82295897  1
  Zn  Zn104  1  0.38142081  0.26322098  0.63459364  1
  Zn  Zn105  1  0.74976156  -0.00283298  0.24171807  1
  Zn  Zn106  1  0.74400141  0.52292691  0.26414573  1
  Zn  Zn107  1  0.18672879  0.18268386  0.18434866  1
  Zn  Zn108  1  0.22911955  0.20710894  0.70653557  1
  Zn  Zn109  1  0.18928875  0.68733938  0.17783214  1
  Zn  Zn110  1  0.18853646  0.68605933  0.68678177  1
  Zn  Zn111  1  0.69008077  0.19125643  0.18791677  1
  Zn  Zn112  1  0.68584439  0.18825155  0.68634945  1
  Zn  Zn113  1  0.67858610  0.69535584  0.18071764  1
  Zn  Zn114  1  0.68887750  0.68908505  0.68729761  1
  Zn  Zn115  1  0.31641342  0.31437554  0.31134744  1
  Zn  Zn116  1  0.28263116  0.32477522  0.81767737  1
  Zn  Zn117  1  0.31475140  0.81251596  0.31335649  1
  Zn  Zn118  1  0.30976605  0.80529103  0.81808693  1
  Zn  Zn119  1  0.81411339  0.37755704  0.31123890  1
  Zn  Zn120  1  0.80366715  0.30812411  0.80636728  1
  Zn  Zn121  1  0.81175443  0.69228289  0.30080731  1
  Zn  Zn122  1  0.80703157  0.80730388  0.80806244  1
  Zn  Zn123  1  0.18694302  0.43739045  0.43850151  1
  Zn  Zn124  1  0.18170999  0.43492116  0.93562532  1
  Zn  Zn125  1  0.18730956  0.93277777  0.43426473  1
  Zn  Zn126  1  0.19731676  0.90909810  0.92486687  1
  Zn  Zn127  1  0.68193928  0.43556308  0.43963449  1
  Zn  Zn128  1  0.68183067  0.43659425  0.93417754  1
  Zn  Zn129  1  0.69322489  0.93840679  0.43739698  1
  Zn  Zn130  1  0.67986179  0.94136004  0.93040764  1
  Zn  Zn131  1  0.32012988  0.05892553  0.06415263  1
  Zn  Zn132  1  0.31276049  0.06104708  0.56378935  1
  Zn  Zn133  1  0.30768887  0.56780226  0.06612232  1
  Zn  Zn134  1  0.31690743  0.57187208  0.56336842  1
  Zn  Zn135  1  0.81748566  0.08709705  0.05985747  1
  Zn  Zn136  1  0.81357915  0.06036347  0.56324376  1
  Zn  Zn137  1  0.79644618  0.58030863  0.09671043  1
  Zn  Zn138  1  0.81039228  0.56334592  0.56258917  1
  Zn  Zn139  1  0.43661828  0.43665485  0.19081775  1
  Zn  Zn140  1  0.43540145  0.44713219  0.68960164  1
  Zn  Zn141  1  0.44577179  0.93957136  0.18979556  1
  Zn  Zn142  1  0.43871921  0.93668641  0.68486164  1
  Zn  Zn143  1  0.93609505  0.44209135  0.18557669  1
  Zn  Zn144  1  0.93633158  0.43247852  0.69993504  1
  Zn  Zn145  1  0.94468720  0.93722596  0.19392618  1
  Zn  Zn146  1  0.93760746  0.93621783  0.68552852  1
  Zn  Zn147  1  0.06475377  0.05829672  0.31313063  1
  Zn  Zn148  1  -0.00995854  0.14307414  0.88203975  1
  Zn  Zn149  1  0.06125215  0.56329865  0.31186395  1
  Zn  Zn150  1  0.05653283  0.55188023  0.81032891  1
  Zn  Zn151  1  0.56794382  0.05683990  0.31241131  1
  Zn  Zn152  1  0.56378760  0.05929778  0.81078204  1
  Zn  Zn153  1  0.55707546  0.55845519  0.31147873  1
  Zn  Zn154  1  0.56075514  0.55861957  0.81538966  1
  Zn  Zn155  1  0.43767569  0.18729156  0.43932719  1
  Zn  Zn156  1  0.43448562  0.18579515  0.93919136  1
  Zn  Zn157  1  0.44125243  0.68474154  0.43547065  1
  Zn  Zn158  1  0.43797937  0.69337215  0.93942053  1
  Zn  Zn159  1  0.93899625  0.18760727  0.43834386  1
  Zn  Zn160  1  0.93610658  0.31440572  0.93437110  1
  Zn  Zn161  1  0.94292613  0.68962318  0.43898072  1
  Zn  Zn162  1  0.93859214  0.68247390  0.93949486  1
  Zn  Zn163  1  0.06936681  0.31002485  0.06323689  1
  Zn  Zn164  1  0.06628406  0.32429329  0.64918291  1
  Zn  Zn165  1  0.06604753  0.80571651  0.06036095  1
  Zn  Zn166  1  0.06126186  0.81028907  0.56156182  1
  Zn  Zn167  1  0.56176481  0.31105993  0.06003012  1
  Zn  Zn168  1  0.56124483  0.31273684  0.56030291  1
  Zn  Zn169  1  0.55744785  0.81015769  0.06334015  1
  Zn  Zn170  1  0.56802492  0.80676631  0.55704101  1
  O  O171  1  0.12434407  0.11461586  0.11575021  1
  O  O172  1  0.12269742  0.11299273  0.61724993  1
  O  O173  1  0.11318307  0.61774104  0.12189349  1
  O  O174  1  0.11933054  0.61895292  0.61537915  1
  O  O175  1  0.61835613  0.13312392  0.11603808  1
  O  O176  1  0.61362757  0.12132565  0.61891305  1
  O  O177  1  0.61750841  0.61543377  0.11664664  1
  O  O178  1  0.62776544  0.61372506  0.62339236  1
  O  O179  1  0.38783821  0.38520457  0.36960290  1
  O  O180  1  0.38129107  0.37709542  0.86742823  1
  O  O181  1  0.38469950  0.87835428  0.38183257  1
  O  O182  1  0.38997150  0.87282223  0.88262159  1
  O  O183  1  0.89399290  0.35917936  0.39037873  1
  O  O184  1  0.86536605  0.37158554  0.87129246  1
  O  O185  1  0.87771361  0.89111385  0.37231855  1
  O  O186  1  0.88458829  0.87241956  0.86394217  1
  O  O187  1  0.25718310  0.00327158  0.36857763  1
  O  O188  1  0.24711453  -0.00188030  0.86376388  1
  O  O189  1  0.26232184  0.49235922  0.36811446  1
  O  O190  1  0.25190366  0.50344063  0.85984228  1
  O  O191  1  0.75990139  0.01182051  0.37683007  1
  O  O192  1  0.75218376  0.00332048  0.87006327  1
  O  O193  1  0.75924619  0.47275068  0.36874705  1
  O  O194  1  0.74833408  0.50353851  0.87285773  1
  O  O195  1  0.25020197  0.49048188  0.13407833  1
  O  O196  1  0.24564892  0.50332997  0.62249451  1
  O  O197  1  0.25441456  1.00571457  0.14313910  1
  O  O198  1  0.24612069  0.98621876  0.62599479  1
  O  O199  1  0.73269005  0.48908401  0.12235186  1
  O  O200  1  0.73995459  0.48986649  0.62470883  1
  O  O201  1  0.76372962  0.99362201  0.11750862  1
  O  O202  1  0.74206142  0.98907335  0.62103916  1
  O  O203  1  0.00599496  0.36839730  0.25796778  1
  O  O204  1  0.02175289  0.37659494  0.73951575  1
  O  O205  1  0.01010907  0.86150318  0.25182622  1
  O  O206  1  0.00468052  0.86479575  0.75082288  1
  O  O207  1  0.50677513  0.36654366  0.25585358  1
  O  O208  1  0.50431907  0.37904494  0.75530274  1
  O  O209  1  0.50730838  0.86964301  0.25790665  1
  O  O210  1  0.50967730  0.87994354  0.75614687  1
  O  O211  1  0.49927693  0.12903172  0.24668947  1
  O  O212  1  0.49708559  0.12074032  0.73651235  1
  O  O213  1  0.49344185  0.63299278  0.25104962  1
  O  O214  1  0.48613960  0.62262091  0.75247544  1
  O  O215  1  0.99588425  0.13033862  0.25179856  1
  O  O216  1  0.99316487  0.12005896  0.75575736  1
  O  O217  1  1.00504655  0.63572307  0.24057464  1
  O  O218  1  0.99327214  0.62882630  0.74411661  1
  O  O219  1  0.36961168  0.24382949  0.01698110  1
  O  O220  1  0.36072899  0.24141496  0.50488762  1
  O  O221  1  0.37617375  0.76876245  0.00172198  1
  O  O222  1  0.37716832  0.75001131  0.51116563  1
  O  O223  1  0.85935423  0.24773439  -0.00002098  1
  O  O224  1  0.86997263  0.25190289  0.51123607  1
  O  O225  1  0.86702987  0.74698000  0.00740169  1
  O  O226  1  0.86890983  0.74370361  0.51344442  1
  O  O227  1  0.13852320  0.23691361  0.49078727  1
  O  O228  1  0.14150501  0.23511823  1.01382572  1
  O  O229  1  0.12359920  0.74219766  0.49023811  1
  O  O230  1  0.11828366  0.72502820  0.99910204  1
  O  O231  1  0.63283737  0.23765341  0.50463072  1
  O  O232  1  0.62628603  0.24032059  0.99119299  1
  O  O233  1  0.63267455  0.73272197  0.49792360  1
  O  O234  1  0.62876772  0.74258981  0.99627432  1
  O  O235  1  0.49484296  0.24214221  0.13165129  1
  O  O236  1  0.49689238  0.23661778  0.62015157  1
  O  O237  1  0.49351414  0.74775740  0.13862391  1
  O  O238  1  0.48893185  0.75659271  0.62602905  1
  O  O239  1  1.00047494  0.24733977  0.13423064  1
  O  O240  1  0.99385305  0.23717388  0.62124994  1
  O  O241  1  0.99525448  0.74221728  0.12885519  1
  O  O242  1  0.99154290  0.74457478  0.63028553  1
  O  O243  1  0.01048670  0.25464423  0.37148477  1
  O  O244  1  0.01558728  0.25145581  0.88748315  1
  O  O245  1  0.01000221  0.75133810  0.36525318  1
  O  O246  1  -0.00599090  0.75287778  0.86143552  1
  O  O247  1  0.49297527  0.25788605  0.36779094  1
  O  O248  1  0.50541419  0.25637175  0.88018392  1
  O  O249  1  0.49605146  0.75877708  0.36316791  1
  O  O250  1  0.51361016  0.76034030  0.88134832  1
  O  O251  1  0.24247524  0.12700616  0.49576043  1
  O  O252  1  0.24936967  0.12373530  1.00065011  1
  O  O253  1  0.23655820  0.62743831  0.50148596  1
  O  O254  1  0.23333149  0.61882133  0.99561175  1
  O  O255  1  0.74296437  0.12908017  0.49584975  1
  O  O256  1  0.74089944  0.13585726  0.99345235  1
  O  O257  1  0.73712266  0.63000683  0.50237939  1
  O  O258  1  0.73680432  0.63262921  1.00354165  1
  O  O259  1  0.24696415  0.36542936  0.01636055  1
  O  O260  1  0.25316389  0.36874930  0.50092051  1
  O  O261  1  0.27407707  0.90306992  0.01303991  1
  O  O262  1  0.25906777  0.87128169  0.50572490  1
  O  O263  1  0.73230711  0.36419036  0.00942587  1
  O  O264  1  0.75013350  0.36570138  0.51050090  1
  O  O265  1  0.74946033  0.87232494  -0.00074265  1
  O  O266  1  0.73997406  0.86248301  0.51132331  1
  O  O267  1  0.13418198  0.49278468  0.25262427  1
  O  O268  1  0.13851889  0.51275485  0.73834901  1
  O  O269  1  0.13413905  0.98847425  0.25016872  1
  O  O270  1  0.13570980  0.98697660  0.73102309  1
  O  O271  1  0.62529219  0.49087602  0.24263718  1
  O  O272  1  0.62290622  0.49145358  0.74160424  1
  O  O273  1  0.62921365  0.98552758  0.24949727  1
  O  O274  1  0.62642180  0.98987494  0.74013710  1
  O  O275  1  0.37163783  0.00275000  0.25714026  1
  O  O276  1  0.36146062  0.00194041  0.74004238  1
  O  O277  1  0.36939604  0.50547423  0.25871056  1
  O  O278  1  0.36806204  0.51837799  0.75168074  1
  O  O279  1  0.87430702  0.00891177  0.25698557  1
  O  O280  1  0.86947474  0.00605209  0.74474811  1
  O  O281  1  0.86129547  0.47620268  0.26056230  1
  O  O282  1  0.86983255  0.50856800  0.75040314  1
  O  O283  1  0.11580536  0.36985399  0.37200373  1
  O  O284  1  0.17573409  0.35550204  0.85951328  1
  O  O285  1  0.12307090  0.86475794  0.36462031  1
  O  O286  1  0.10476112  0.88646652  0.85549995  1
  O  O287  1  0.61044703  0.37822896  0.36468438  1
  O  O288  1  0.61258151  0.36784057  0.86395606  1
  O  O289  1  0.61665055  0.87936770  0.37332553  1
  O  O290  1  0.61821942  0.86770211  0.86481263  1
  O  O291  1  0.38557859  0.13073856  0.13468175  1
  O  O292  1  0.38985721  0.12419284  0.62388372  1
  O  O293  1  0.37728317  0.62273237  0.14086582  1
  O  O294  1  0.37752265  0.64040012  0.63368586  1
  O  O295  1  0.88109486  0.13295678  0.14042412  1
  O  O296  1  0.87429105  0.13002039  0.63340671  1
  O  O297  1  0.89263395  0.63418058  0.11783498  1
  O  O298  1  0.87973716  0.62912800  0.63309762  1
  O  O299  1  0.26024971  0.25422074  0.12457092  1
  O  O300  1  0.24746259  0.27195535  0.61223082  1
  O  O301  1  0.25417190  0.74680939  0.11142141  1
  O  O302  1  0.25617010  0.75981065  0.62177772  1
  O  O303  1  0.75028229  0.25578355  0.11285451  1
  O  O304  1  0.75588260  0.25327102  0.61498847  1
  O  O305  1  0.75893539  0.75137467  0.11049370  1
  O  O306  1  0.75636156  0.75407158  0.61738202  1
  O  O307  1  0.24830738  0.24543742  0.37875232  1
  O  O308  1  0.26415857  0.23251945  0.89613419  1
  O  O309  1  0.23860540  0.75140816  0.37651894  1
  O  O310  1  0.23441100  0.79909149  0.89780076  1
  O  O311  1  0.75632134  0.23859337  0.39072344  1
  O  O312  1  0.73221957  0.24810321  0.87948784  1
  O  O313  1  0.75635325  0.75523244  0.38585994  1
  O  O314  1  0.73933472  0.74900814  0.88613199  1
  O  O315  1  0.01302856  0.10889635  -0.00450073  1
  O  O316  1  0.01646513  0.11533205  0.49141706  1
  O  O317  1  0.00851273  0.61181258  0.00311643  1
  O  O318  1  0.00771312  0.61496732  0.50507462  1
  O  O319  1  0.50592428  0.12015510  0.00813016  1
  O  O320  1  0.50757843  0.12095323  0.50554871  1
  O  O321  1  0.50771005  0.62032171  0.00101050  1
  O  O322  1  0.51762123  0.61709942  0.49220731  1
  O  O323  1  0.50639986  0.38556792  0.49043427  1
  O  O324  1  0.50243160  0.38263261  0.98936005  1
  O  O325  1  0.49864811  0.87760859  0.49294916  1
  O  O326  1  0.50015151  0.88399844  0.99279264  1
  O  O327  1  0.99986189  0.38951850  0.49560545  1
  O  O328  1  1.00162102  0.38485447  1.00707227  1
  O  O329  1  1.00690547  0.88891118  0.49631821  1
  O  O330  1  1.00713625  0.87371039  0.98779015  1
  O  O331  1  0.49115332  0.49300844  0.38275694  1
  O  O332  1  0.49437990  0.49039353  0.88333212  1
  O  O333  1  0.49583363  0.99235440  0.38090175  1
  O  O334  1  0.50814049  0.99025962  0.88436470  1
  O  O335  1  0.99688907  0.49209606  0.38083332  1
  O  O336  1  0.99333375  0.49587753  0.88771488  1
  O  O337  1  0.99373599  0.99816503  0.38202274  1
  O  O338  1  0.98577589  0.98942449  0.89306921  1
  O  O339  1  0.00036648  -0.00226227  0.11124494  1
  O  O340  1  0.01062179  -0.00470154  0.61656906  1
  O  O341  1  0.00194115  0.50466710  0.11718562  1
  O  O342  1  0.00858512  0.50411265  0.61778224  1
  O  O343  1  0.50228116  0.01436176  0.12087622  1
  O  O344  1  0.50520641  0.00822487  0.61743038  1
  O  O345  1  0.50743286  0.49686399  0.11981803  1
  O  O346  1  0.50752544  0.49623940  0.61167839  1
  O  O347  1  0.24734195  0.38215142  0.24409197  1
  O  O348  1  0.25941998  0.40443172  0.73027672  1
  O  O349  1  0.24353088  0.88250196  0.25555344  1
  O  O350  1  0.24321473  0.87649926  0.74147502  1
  O  O351  1  0.73087039  0.35623189  0.23705858  1
  O  O352  1  0.73529235  0.37257150  0.73527590  1
  O  O353  1  0.73463214  0.87612351  0.24551581  1
  O  O354  1  0.73711222  0.87116914  0.73687187  1
  O  O355  1  0.25623795  0.11912390  0.25877187  1
  O  O356  1  0.24577567  0.10938862  0.76569950  1
  O  O357  1  0.25466955  0.61130916  0.24724111  1
  O  O358  1  0.26082489  0.61631967  0.74220320  1
  O  O359  1  0.75710443  0.12373809  0.25744386  1
  O  O360  1  0.75580400  0.12100007  0.74828395  1
  O  O361  1  0.75818782  0.62687140  0.22202839  1
  O  O362  1  0.75848607  0.62354321  0.75158838  1
  O  O363  1  0.37221121  0.11697491  0.37081883  1
  O  O364  1  0.36505479  0.11725165  0.87827395  1
  O  O365  1  0.37808547  0.61530615  0.36380645  1
  O  O366  1  0.37541863  0.63196564  0.86355292  1
  O  O367  1  0.87002362  0.12236443  0.36596810  1
  O  O368  1  0.87521432  0.12187783  0.85658373  1
  O  O369  1  0.87435554  0.63332652  0.37307224  1
  O  O370  1  0.87293613  0.62520444  0.86275267  1
  O  O371  1  0.13588546  0.37607659  0.13486096  1
  O  O372  1  0.14268481  0.39698465  0.61007910  1
  O  O373  1  0.12316874  0.87320606  0.13732909  1
  O  O374  1  0.13315581  0.87644112  0.62696295  1
  O  O375  1  0.62478155  0.37969086  0.13270233  1
  O  O376  1  0.62745682  0.38061776  0.62910129  1
  O  O377  1  0.62245092  0.87510566  0.13210542  1
  O  O378  1  0.62725880  0.87682251  0.62951998  1
  O  O379  1  0.11856809  0.25256832  0.25581842  1
  O  O380  1  0.11780599  0.23640716  0.72400558  1
  O  O381  1  0.12190422  0.75200969  0.25429595  1
  O  O382  1  0.11403930  0.75750783  0.73985021  1
  O  O383  1  0.61084449  0.25365003  0.24801363  1
  O  O384  1  0.62354110  0.25855866  0.75644310  1
  O  O385  1  0.61610895  0.76354596  0.24734130  1
  O  O386  1  0.62736653  0.75624610  0.75890329  1
  O  O387  1  0.38573924  0.24346867  0.24410953  1
  O  O388  1  0.33729083  0.24262935  0.74179052  1
  O  O389  1  0.38007094  0.74185346  0.25085982  1
  O  O390  1  0.36999214  0.74179777  0.74154591  1
  O  O391  1  0.89201420  0.24585265  0.25390183  1
  O  O392  1  0.86746436  0.24049783  0.73469457  1
  O  O393  1  0.88511529  0.75409896  0.23232658  1
  O  O394  1  0.87978642  0.74093698  0.73945777  1
  O  O395  1  0.38571229  0.51285945  0.49173465  1
  O  O396  1  0.38672819  0.50902170  1.00154557  1
  O  O397  1  0.38267732  0.99279599  0.49636356  1
  O  O398  1  0.39525133  0.99387720  1.00475714  1
  O  O399  1  0.88228555  0.49408698  0.50024606  1
  O  O400  1  0.88977924  0.50406770  1.00121279  1
  O  O401  1  0.88779237  1.01002278  0.49141352  1
  O  O402  1  0.87281212  0.99207573  1.00558955  1
  O  O403  1  0.12166224  -0.00254032  0.00027947  1
  O  O404  1  0.12435370  0.00382168  0.50719883  1
  O  O405  1  0.11601243  0.50538449  -0.00260499  1
  O  O406  1  0.11816118  0.50899549  0.50091535  1
  O  O407  1  0.61876844  0.01545897  -0.00248394  1
  O  O408  1  0.62133164  0.01034798  0.50426081  1
  O  O409  1  0.61280014  0.50624047  0.00536276  1
  O  O410  1  0.62059618  0.51002959  0.50529318  1
  O  O411  1  0.36794895  0.36376052  0.13454583  1
  O  O412  1  0.37036717  0.38097653  0.61971939  1
  O  O413  1  0.38818017  0.87595430  0.11371067  1
  O  O414  1  0.37029053  0.86443324  0.62063905  1
  O  O415  1  0.85708133  0.37290817  0.12735012  1
  O  O416  1  0.86569193  0.36710110  0.62318091  1
  O  O417  1  0.87668548  0.87045534  0.12156681  1
  O  O418  1  0.86346473  0.86442252  0.62937588  1
  O  O419  1  0.13420064  0.12599233  0.38052087  1
  O  O420  1  0.14268310  0.12135353  0.89418739  1
  O  O421  1  0.11966426  0.63338064  0.38270426  1
  O  O422  1  0.11964785  0.62060395  0.87984153  1
  O  O423  1  0.63532978  0.12055592  0.38361578  1
  O  O424  1  0.62046272  0.13338323  0.88012516  1
  O  O425  1  0.63253141  0.61564543  0.37993911  1
  O  O426  1  0.62393016  0.63175081  0.88224196  1
