# generated using pymatgen
data_V85Zn86O256
_symmetry_space_group_name_H-M   'P 1'
_cell_length_a   16.92416001
_cell_length_b   16.92694017
_cell_length_c   16.93102338
_cell_angle_alpha   89.91207714
_cell_angle_beta   90.00638832
_cell_angle_gamma   90.07820290
_symmetry_Int_Tables_number   1
_chemical_formula_structural   V85Zn86O256
_chemical_formula_sum   'V85 Zn86 O256'
_cell_volume   4850.29186432
_cell_formula_units_Z   1
loop_
 _symmetry_equiv_pos_site_id
 _symmetry_equiv_pos_as_xyz
  1  'x, y, z'
loop_
 _atom_site_type_symbol
 _atom_site_label
 _atom_site_symmetry_multiplicity
 _atom_site_fract_x
 _atom_site_fract_y
 _atom_site_fract_z
 _atom_site_occupancy
  V  V0  1  0.49796309  0.61980749  0.61800989  1
  V  V1  1  0.86872927  0.87475874  0.50163114  1
  V  V2  1  0.01858325  0.37117826  0.87630821  1
  V  V3  1  0.37803654  0.37524620  0.50810277  1
  V  V4  1  0.87021918  0.87865899  0.00117020  1
  V  V5  1  0.74383424  0.74082000  0.49887588  1
  V  V6  1  0.50287312  0.38167788  0.37831115  1
  V  V7  1  0.25360392  0.86725052  0.12518824  1
  V  V8  1  0.75696901  0.63539910  0.86784446  1
  V  V9  1  0.75864213  0.50099315  0.74700473  1
  V  V10  1  0.63338786  0.11743056  -0.00203641  1
  V  V11  1  0.37702793  0.87000080  0.00423198  1
  V  V12  1  0.13006887  0.73661030  0.88318155  1
  V  V13  1  0.12593107  0.87474036  0.25017673  1
  V  V14  1  0.12688747  0.50658216  0.11856876  1
  V  V15  1  0.37450344  0.12579728  0.24827024  1
  V  V16  1  0.37653878  0.25046726  0.12350842  1
  V  V17  1  0.49624113  0.73878156  0.75730154  1
  V  V18  1  0.24705658  0.74485634  0.50359545  1
  V  V19  1  0.50140615  0.63189208  0.12678410  1
  V  V20  1  0.12266555  0.74625101  0.38061607  1
  V  V21  1  0.12441168  0.12302283  0.50120218  1
  V  V22  1  0.50437252  0.87539532  0.36635369  1
  V  V23  1  0.75703223  0.24997283  0.50441831  1
  V  V24  1  0.74458861  0.87392454  0.62836740  1
  V  V25  1  0.50072839  0.12185595  0.11807221  1
  V  V26  1  0.37663749  0.50108397  0.38083901  1
  V  V27  1  -0.00958168  0.37355234  0.37455113  1
  V  V28  1  -0.00083244  0.62592772  0.11571946  1
  V  V29  1  0.50165760  0.50090257  -0.00025525  1
  V  V30  1  0.88188338  0.37420137  0.51274120  1
  V  V31  1  0.86146252  0.00674278  0.86100195  1
  V  V32  1  -0.00110665  0.12326859  0.12187714  1
  V  V33  1  0.37499875  -0.00012612  0.37609250  1
  V  V34  1  0.24694281  0.37063895  0.63714047  1
  V  V35  1  0.87063669  0.74843226  0.12545761  1
  V  V36  1  -0.00175241  0.24913221  0.24650648  1
  V  V37  1  0.37382339  0.74324887  0.63350772  1
  V  V38  1  -0.00189841  0.87174868  0.37653605  1
  V  V39  1  0.49917432  0.37614014  0.87328093  1
  V  V40  1  0.74708883  0.87877701  0.13912489  1
  V  V41  1  0.25510610  0.25005042  0.50701417  1
  V  V42  1  0.00018385  0.87554552  0.87756683  1
  V  V43  1  0.62691498  0.49483632  0.12851241  1
  V  V44  1  0.62750811  0.25750940  0.37065476  1
  V  V45  1  0.12440848  0.12488753  -0.00202466  1
  V  V46  1  0.62558871  0.49918009  0.62062748  1
  V  V47  1  0.37304028  0.37643871  0.00039489  1
  V  V48  1  -0.00231106  0.74574738  0.25400649  1
  V  V49  1  0.87031252  0.62047726  0.26649893  1
  V  V50  1  0.25029112  0.12511222  0.37414356  1
  V  V51  1  0.62422334  0.12273250  0.49282424  1
  V  V52  1  0.50277107  0.25915227  0.24804052  1
  V  V53  1  0.49610040  0.12848538  0.62091324  1
  V  V54  1  0.12498127  0.50293015  0.62552625  1
  V  V55  1  0.37733084  0.12702179  0.74624733  1
  V  V56  1  0.63105093  0.25117632  0.87817596  1
  V  V57  1  0.62774953  0.63143405  -0.00631524  1
  V  V58  1  0.62634835  0.74605917  0.36613622  1
  V  V59  1  0.87236113  0.48796515  0.88368414  1
  V  V60  1  0.12570471  0.25149925  0.37436751  1
  V  V61  1  -0.01748995  0.12984400  0.63180901  1
  V  V62  1  0.76027825  0.37842733  0.11873753  1
  V  V63  1  0.50362856  -0.00031997  0.50233903  1
  V  V64  1  0.74965893  0.12210660  0.36446029  1
  V  V65  1  0.87039073  -0.00127499  0.36389060  1
  V  V66  1  0.62812680  -0.00164416  0.14030419  1
  V  V67  1  0.24474558  0.62252940  0.37865800  1
  V  V68  1  0.12353418  0.87128162  0.75390634  1
  V  V69  1  0.62268240  0.86441610  0.75275164  1
  V  V70  1  0.64024208  0.02108736  0.65638492  1
  V  V71  1  -0.00191518  -0.00153535  0.49999879  1
  V  V72  1  0.37680366  0.63170599  0.25028971  1
  V  V73  1  0.24871500  0.37543905  0.12658947  1
  V  V74  1  0.24740282  0.51683786  0.75354125  1
  V  V75  1  0.25293756  -0.00055538  0.75037124  1
  V  V76  1  0.74915602  0.49669446  0.26393737  1
  V  V77  1  0.50471460  0.87024817  0.87939042  1
  V  V78  1  0.25154837  0.12342115  0.87673280  1
  V  V79  1  0.12303530  -0.00067622  0.62733797  1
  V  V80  1  0.00764413  0.50511053  0.49231045  1
  V  V81  1  0.37696031  0.87372349  0.50466118  1
  V  V82  1  0.37187330  0.51383953  0.86977307  1
  V  V83  1  0.38817836  -0.00066955  0.88070706  1
  V  V84  1  0.50023663  0.25127720  0.74357198  1
  Zn  Zn85  1  0.25143904  0.73673540  0.00389048  1
  Zn  Zn86  1  0.88210507  0.25721305  0.11428368  1
  Zn  Zn87  1  0.00054748  0.62611469  0.62335195  1
  Zn  Zn88  1  0.12339138  0.37697268  0.24678224  1
  Zn  Zn89  1  0.75669230  0.25509527  -0.00868073  1
  Zn  Zn90  1  0.75344361  0.37055874  0.62890086  1
  Zn  Zn91  1  0.12895093  0.25078055  0.86334544  1
  Zn  Zn92  1  0.87149091  0.12453340  0.24399283  1
  Zn  Zn93  1  -0.00579664  0.25713091  0.74621621  1
  Zn  Zn94  1  0.87251246  0.73682082  0.63851037  1
  Zn  Zn95  1  0.50013393  0.75653528  0.24406135  1
  Zn  Zn96  1  -0.00600134  0.73598805  0.75220346  1
  Zn  Zn97  1  0.25203106  0.87352201  0.62822071  1
  Zn  Zn98  1  0.24883365  0.50055642  0.25109974  1
  Zn  Zn99  1  -0.00297258  0.49595368  0.00159270  1
  Zn  Zn100  1  0.12624716  -0.00268210  0.12237353  1
  Zn  Zn101  1  0.62255025  0.61947718  0.49460188  1
  Zn  Zn102  1  0.24995404  -0.00058187  0.24892309  1
  Zn  Zn103  1  0.25043343  0.24878245  -0.00124264  1
  Zn  Zn104  1  0.62751335  0.37723697  0.74897775  1
  Zn  Zn105  1  -0.00123922  0.00103966  -0.00204511  1
  Zn  Zn106  1  0.74425544  0.75482192  -0.00195043  1
  Zn  Zn107  1  0.18568323  0.18835520  0.18555039  1
  Zn  Zn108  1  0.18078476  0.18831319  0.68975888  1
  Zn  Zn109  1  0.18729585  0.68712489  0.18991299  1
  Zn  Zn110  1  0.17771954  0.68695603  0.68706875  1
  Zn  Zn111  1  0.68566008  0.19283971  0.18483248  1
  Zn  Zn112  1  0.68693837  0.19142338  0.68890117  1
  Zn  Zn113  1  0.68931220  0.68365850  0.18753752  1
  Zn  Zn114  1  0.68501171  0.68604293  0.68671079  1
  Zn  Zn115  1  0.31458564  0.31349265  0.31319181  1
  Zn  Zn116  1  0.31592605  0.31009859  0.81493790  1
  Zn  Zn117  1  0.31296604  0.81123579  0.31523817  1
  Zn  Zn118  1  0.31138186  0.81078497  0.81599895  1
  Zn  Zn119  1  0.81286704  0.31355007  0.30890739  1
  Zn  Zn120  1  0.82005803  0.30878520  0.80146266  1
  Zn  Zn121  1  0.81096757  0.80827621  0.31430862  1
  Zn  Zn122  1  0.81232245  0.81885004  0.81155455  1
  Zn  Zn123  1  0.18821307  0.43343762  0.43920891  1
  Zn  Zn124  1  0.18852768  0.56145865  0.93777710  1
  Zn  Zn125  1  0.18936020  0.93431112  0.43834736  1
  Zn  Zn126  1  0.19060512  0.93782963  0.93879066  1
  Zn  Zn127  1  0.68976998  0.43460950  0.44308481  1
  Zn  Zn128  1  0.68736481  0.44250684  0.93662841  1
  Zn  Zn129  1  0.68676887  0.93511544  0.43321546  1
  Zn  Zn130  1  0.68663031  0.93820784  0.93928285  1
  Zn  Zn131  1  0.31150538  0.05411140  0.06230326  1
  Zn  Zn132  1  0.31125688  0.06154445  0.56412318  1
  Zn  Zn133  1  0.31816789  0.56186573  0.06670855  1
  Zn  Zn134  1  0.31219114  0.56071623  0.56455185  1
  Zn  Zn135  1  0.81266869  0.06238317  0.06061946  1
  Zn  Zn136  1  0.80794700  0.05898905  0.55496029  1
  Zn  Zn137  1  0.81121496  0.56537691  0.06253647  1
  Zn  Zn138  1  0.81727913  0.55677742  0.55698971  1
  Zn  Zn139  1  0.43710592  0.44341765  0.19080291  1
  Zn  Zn140  1  0.43483509  0.44131078  0.68878252  1
  Zn  Zn141  1  0.43723266  0.94196356  0.18410996  1
  Zn  Zn142  1  0.44663840  0.93814476  0.69002698  1
  Zn  Zn143  1  0.93735398  0.44258689  0.19103595  1
  Zn  Zn144  1  0.94179691  0.44379721  0.69287503  1
  Zn  Zn145  1  0.93991582  0.93645355  0.18505120  1
  Zn  Zn146  1  0.93641642  0.93082822  0.68845283  1
  Zn  Zn147  1  0.06001952  0.06150839  0.31162022  1
  Zn  Zn148  1  0.05866533  0.06209196  0.81226405  1
  Zn  Zn149  1  0.06303209  0.55971093  0.30702090  1
  Zn  Zn150  1  0.05502567  0.55507870  0.80622789  1
  Zn  Zn151  1  0.55748776  0.06644098  0.31081725  1
  Zn  Zn152  1  0.57638709  0.06619024  0.81048558  1
  Zn  Zn153  1  0.56456006  0.56242922  0.31143619  1
  Zn  Zn154  1  0.56857701  0.56220583  0.80946877  1
  Zn  Zn155  1  0.43721068  0.19215358  0.43521905  1
  Zn  Zn156  1  0.44166246  0.18883352  0.93622995  1
  Zn  Zn157  1  0.43774857  0.68983521  0.43840995  1
  Zn  Zn158  1  0.43640290  0.68908716  0.94266493  1
  Zn  Zn159  1  0.93691852  0.18566432  0.43919134  1
  Zn  Zn160  1  0.93236449  0.19055250  0.93288671  1
  Zn  Zn161  1  0.92441659  0.67645383  0.46251187  1
  Zn  Zn162  1  0.93325310  0.69181316  0.93324137  1
  Zn  Zn163  1  0.06411222  0.31344570  0.05329968  1
  Zn  Zn164  1  0.06757200  0.31185757  0.56642226  1
  Zn  Zn165  1  0.06106306  0.81044655  0.06274483  1
  Zn  Zn166  1  0.06102283  0.81142157  0.56578677  1
  Zn  Zn167  1  0.56754631  0.31422534  0.06138582  1
  Zn  Zn168  1  0.56629122  0.31406183  0.56062541  1
  Zn  Zn169  1  0.56452847  0.81596592  0.06238476  1
  Zn  Zn170  1  0.56228354  0.81027764  0.56437803  1
  O  O171  1  0.11713216  0.12334043  0.11753734  1
  O  O172  1  0.12291583  0.11063045  0.61841876  1
  O  O173  1  0.11170079  0.61944657  0.13564736  1
  O  O174  1  0.12902792  0.60754208  0.61967872  1
  O  O175  1  0.62088538  0.11868152  0.11923682  1
  O  O176  1  0.61723505  0.12538909  0.60521170  1
  O  O177  1  0.62141138  0.61517234  0.11879499  1
  O  O178  1  0.61628754  0.61829920  0.62202107  1
  O  O179  1  0.38031769  0.38216420  0.38281099  1
  O  O180  1  0.38354023  0.37873665  0.88323105  1
  O  O181  1  0.38150639  0.87905674  0.38483570  1
  O  O182  1  0.38275119  0.88165945  0.87935166  1
  O  O183  1  0.88794361  0.36857419  0.38071712  1
  O  O184  1  0.86528912  0.38831566  0.87808939  1
  O  O185  1  0.87765522  0.88204500  0.37761195  1
  O  O186  1  0.88140432  0.88110058  0.88462288  1
  O  O187  1  0.25691988  0.00681793  0.37538427  1
  O  O188  1  0.26105117  0.00794226  0.86937265  1
  O  O189  1  0.25604305  0.50610391  0.37564568  1
  O  O190  1  0.25537983  0.50096077  0.86172072  1
  O  O191  1  0.75731361  0.00935851  0.37773646  1
  O  O192  1  0.76159520  -0.00296594  0.87694573  1
  O  O193  1  0.74523282  0.49657270  0.36295766  1
  O  O194  1  0.75766563  0.50709686  0.86887650  1
  O  O195  1  0.24494527  0.49208475  0.12792817  1
  O  O196  1  0.24769615  0.49238883  0.63530025  1
  O  O197  1  0.24596715  0.98614278  0.13016849  1
  O  O198  1  0.24220079  0.99654528  0.63178408  1
  O  O199  1  0.74575162  0.49348314  0.13094551  1
  O  O200  1  0.74739531  0.50247143  0.63149826  1
  O  O201  1  0.73699935  0.99550234  0.12414039  1
  O  O202  1  0.73554266  0.99247077  0.61652134  1
  O  O203  1  0.00098114  0.36804363  0.25679463  1
  O  O204  1  -0.00623423  0.37877956  0.77031615  1
  O  O205  1  0.00593837  0.86654404  0.25565056  1
  O  O206  1  0.01391515  0.87675039  0.75810469  1
  O  O207  1  0.49333683  0.36526131  0.25863948  1
  O  O208  1  0.49762092  0.36771260  0.75712311  1
  O  O209  1  0.49196738  0.87505959  0.26245881  1
  O  O210  1  0.49972770  0.85830900  0.75917300  1
  O  O211  1  0.49502101  0.13758038  0.24101499  1
  O  O212  1  0.49618519  0.13217466  0.74414485  1
  O  O213  1  0.49497746  0.62590069  0.24333529  1
  O  O214  1  0.50464124  0.63441155  0.74281887  1
  O  O215  1  1.00104595  0.13252018  0.24139142  1
  O  O216  1  0.99857921  0.11686779  0.73177047  1
  O  O217  1  0.98689336  0.62751476  0.24631745  1
  O  O218  1  1.00085389  0.62163931  0.73805812  1
  O  O219  1  0.37774764  0.25785971  0.00630144  1
  O  O220  1  0.36285794  0.25820893  0.49386965  1
  O  O221  1  0.37001178  0.76485803  -0.00457936  1
  O  O222  1  0.36785792  0.75632199  0.50960789  1
  O  O223  1  0.86726180  0.24532792  0.00354458  1
  O  O224  1  0.86697887  0.25761450  0.49456008  1
  O  O225  1  0.87239676  0.76224321  0.00683863  1
  O  O226  1  0.85869459  0.76839480  0.48568150  1
  O  O227  1  0.13485922  0.24440824  0.49256759  1
  O  O228  1  0.13107286  0.23567100  0.99441371  1
  O  O229  1  0.14006898  0.75906374  0.49662657  1
  O  O230  1  0.12597853  0.75247854  0.98601352  1
  O  O231  1  0.63011918  0.24346278  0.48675224  1
  O  O232  1  0.62905241  0.24285711  0.99470098  1
  O  O233  1  0.63002438  0.74967918  0.49186378  1
  O  O234  1  0.62443273  0.73539828  1.00379167  1
  O  O235  1  0.49797720  0.24721734  0.13219041  1
  O  O236  1  0.50539852  0.24581256  0.63573614  1
  O  O237  1  0.50721846  0.73691735  0.12663596  1
  O  O238  1  0.49115740  0.74255242  0.63284754  1
  O  O239  1  1.00367741  0.24433005  0.13118335  1
  O  O240  1  1.00326263  0.23140591  0.61790854  1
  O  O241  1  0.99297077  0.74433743  0.13434421  1
  O  O242  1  0.99758457  0.74702230  0.62838140  1
  O  O243  1  0.00759824  0.25236849  0.36850343  1
  O  O244  1  0.00379490  0.26280205  0.87676824  1
  O  O245  1  0.00394249  0.75403411  0.37414230  1
  O  O246  1  0.00975506  0.76000571  0.87552931  1
  O  O247  1  0.50675398  0.25906715  0.36750553  1
  O  O248  1  0.50705571  0.25804783  0.86730983  1
  O  O249  1  0.50877645  0.75916413  0.37501814  1
  O  O250  1  0.49484809  0.75559910  0.86750561  1
  O  O251  1  0.24568168  0.13120199  0.49540727  1
  O  O252  1  0.24667935  0.12286452  0.99216808  1
  O  O253  1  0.25574495  0.63387843  0.49197521  1
  O  O254  1  0.25565008  0.62407862  1.00119280  1
  O  O255  1  0.74227278  0.13146981  0.48793826  1
  O  O256  1  0.73518131  0.13069155  1.00727534  1
  O  O257  1  0.74630503  0.63829904  0.50020952  1
  O  O258  1  0.74319277  0.62800544  0.99044692  1
  O  O259  1  0.26630436  0.37200012  0.01179100  1
  O  O260  1  0.25791738  0.36684135  0.50765408  1
  O  O261  1  0.25740265  0.87277989  0.00883147  1
  O  O262  1  0.26362124  0.86818262  0.50202091  1
  O  O263  1  0.74304102  0.37770635  0.01606232  1
  O  O264  1  0.76323648  0.36703859  0.50151543  1
  O  O265  1  0.75486498  0.87348016  0.00923952  1
  O  O266  1  0.75044932  0.87026671  0.50924072  1
  O  O267  1  0.12872803  0.49495260  0.23766206  1
  O  O268  1  0.14021381  0.49816706  0.74359310  1
  O  O269  1  0.12530606  0.98457067  0.25377919  1
  O  O270  1  0.13065193  0.99414640  0.74403702  1
  O  O271  1  0.64087602  0.50845287  0.24306460  1
  O  O272  1  0.63765354  0.49945247  0.73983289  1
  O  O273  1  0.62511757  1.00639107  0.23923577  1
  O  O274  1  0.59527702  0.97208008  0.74567155  1
  O  O275  1  0.37465329  0.00845838  0.25805973  1
  O  O276  1  0.37530781  0.00872212  0.75643213  1
  O  O277  1  0.37325248  0.50877870  0.26501999  1
  O  O278  1  0.35957321  0.49452640  0.75834028  1
  O  O279  1  0.88096363  0.00244527  0.26079417  1
  O  O280  1  0.87317180  -0.00955135  0.76187441  1
  O  O281  1  0.86546484  0.51197131  0.25165295  1
  O  O282  1  0.86406805  0.50163982  0.76019909  1
  O  O283  1  0.12102933  0.36085867  0.37385204  1
  O  O284  1  0.11679493  0.37368445  0.87671588  1
  O  O285  1  0.11978615  0.86797797  0.37033764  1
  O  O286  1  0.11936096  0.87097224  0.87071999  1
  O  O287  1  0.61599480  0.36884493  0.38135601  1
  O  O288  1  0.61239673  0.37215328  0.87625053  1
  O  O289  1  0.61360257  0.86463182  0.37866882  1
  O  O290  1  0.61422468  0.87608303  0.87024027  1
  O  O291  1  0.38263640  0.12726332  0.12720829  1
  O  O292  1  0.38271017  0.11943547  0.63433255  1
  O  O293  1  0.38876946  0.61642537  0.13858212  1
  O  O294  1  0.38195971  0.63278860  0.62329945  1
  O  O295  1  0.88797242  0.12379309  0.12566614  1
  O  O296  1  0.88474944  0.11676571  0.61573495  1
  O  O297  1  0.87962503  0.63165865  0.13242262  1
  O  O298  1  0.89015826  0.64013918  0.57662638  1
  O  O299  1  0.25850176  0.25647202  0.12338199  1
  O  O300  1  0.24504013  0.25472358  0.61574638  1
  O  O301  1  0.24542424  0.76240639  0.12501633  1
  O  O302  1  0.25517206  0.75035877  0.62073818  1
  O  O303  1  0.74871165  0.27226968  0.13221394  1
  O  O304  1  0.74168500  0.24944715  0.60886040  1
  O  O305  1  0.75408545  0.75775971  0.12437008  1
  O  O306  1  0.74935839  0.75699428  0.61651014  1
  O  O307  1  0.24354582  0.24551762  0.38051959  1
  O  O308  1  0.25310768  0.23484699  0.87656185  1
  O  O309  1  0.24642404  0.74221626  0.38489794  1
  O  O310  1  0.23300483  0.75165842  0.87683852  1
  O  O311  1  0.74364218  0.24660888  0.38005962  1
  O  O312  1  0.73353834  0.26010122  0.87102372  1
  O  O313  1  0.73272559  0.75761019  0.38187800  1
  O  O314  1  0.75231879  0.73850142  0.87628054  1
  O  O315  1  0.00834620  0.12379987  0.00551907  1
  O  O316  1  0.00636131  0.11658647  0.50511099  1
  O  O317  1  -0.00788046  0.62681854  0.01335601  1
  O  O318  1  0.01360868  0.60563745  0.48536560  1
  O  O319  1  0.50943882  0.13303340  0.01408041  1
  O  O320  1  0.50515696  0.12275139  0.49954661  1
  O  O321  1  0.50560263  0.61904620  0.00688104  1
  O  O322  1  0.50041596  0.62881847  0.51380628  1
  O  O323  1  0.48965355  0.36578152  0.49020670  1
  O  O324  1  0.49345208  0.38025345  0.99456058  1
  O  O325  1  0.49101045  0.87792445  0.49551538  1
  O  O326  1  0.49385270  0.87010306  0.98952438  1
  O  O327  1  0.99751862  0.37408537  0.49263551  1
  O  O328  1  1.00092432  0.37917967  0.98457294  1
  O  O329  1  0.98914720  0.87899821  0.49559955  1
  O  O330  1  0.99185183  0.87621170  0.99453284  1
  O  O331  1  0.49505553  0.48905991  0.37157559  1
  O  O332  1  0.49493224  0.49242133  0.87528233  1
  O  O333  1  0.49522478  0.99411694  0.38123591  1
  O  O334  1  0.49178823  0.99225547  0.86975997  1
  O  O335  1  1.01284479  0.48510507  0.38247252  1
  O  O336  1  0.98690013  0.49209777  0.87803209  1
  O  O337  1  0.99264450  0.99336003  0.38119682  1
  O  O338  1  0.99697634  0.98580968  0.87661771  1
  O  O339  1  0.00542020  0.00859583  0.12280805  1
  O  O340  1  0.00551189  0.00302614  0.61861438  1
  O  O341  1  0.00559895  0.50853222  0.12442653  1
  O  O342  1  0.00914698  0.49754265  0.61258251  1
  O  O343  1  0.51332586  0.01034829  0.12906076  1
  O  O344  1  0.51411054  0.00994715  0.61979104  1
  O  O345  1  0.50883398  0.50737435  0.12261408  1
  O  O346  1  0.50927301  0.50936620  0.63358769  1
  O  O347  1  0.25165355  0.37476133  0.23775033  1
  O  O348  1  0.25844963  0.37171777  0.73829850  1
  O  O349  1  0.24305734  0.87343027  0.24649899  1
  O  O350  1  0.24025626  0.88113023  0.75174683  1
  O  O351  1  0.75604807  0.39131838  0.24249007  1
  O  O352  1  0.74820300  0.38632279  0.74673767  1
  O  O353  1  0.75461925  0.87439386  0.23848513  1
  O  O354  1  0.73663521  0.87092078  0.73834223  1
  O  O355  1  0.25522451  0.12481885  0.25597154  1
  O  O356  1  0.25956664  0.11990549  0.75524571  1
  O  O357  1  0.25930449  0.62452417  0.25937805  1
  O  O358  1  0.24998245  0.61517151  0.74629525  1
  O  O359  1  0.75128211  0.13311650  0.26077825  1
  O  O360  1  0.67652732  0.08868003  0.73433852  1
  O  O361  1  0.76249363  0.61428184  0.24786752  1
  O  O362  1  0.74530796  0.62043369  0.76200537  1
  O  O363  1  0.37079317  0.12101818  0.36959012  1
  O  O364  1  0.37320300  0.11687045  0.87142799  1
  O  O365  1  0.36947441  0.61816156  0.37375010  1
  O  O366  1  0.38290779  0.61225000  0.87593949  1
  O  O367  1  0.86647411  0.11673947  0.37393844  1
  O  O368  1  0.88332530  0.10412180  0.87616044  1
  O  O369  1  0.87648264  0.62978810  0.36457030  1
  O  O370  1  0.86014319  0.61799215  0.87927119  1
  O  O371  1  0.13528333  0.38016588  0.12234450  1
  O  O372  1  0.13787640  0.38476492  0.62132374  1
  O  O373  1  0.12962935  0.87389297  0.13487528  1
  O  O374  1  0.12640109  0.88471500  0.63333349  1
  O  O375  1  0.62963466  0.39000639  0.12517128  1
  O  O376  1  0.62841382  0.38382011  0.62652183  1
  O  O377  1  0.62933103  0.89078595  0.12264196  1
  O  O378  1  0.62952221  0.87947142  0.63235672  1
  O  O379  1  0.11571919  0.25153558  0.25710317  1
  O  O380  1  0.10987425  0.24415038  0.75151714  1
  O  O381  1  0.11952902  0.75843801  0.25919155  1
  O  O382  1  0.12353205  0.75723474  0.76178526  1
  O  O383  1  0.61693098  0.24858152  0.26166436  1
  O  O384  1  0.61550022  0.25472320  0.75813804  1
  O  O385  1  0.62343290  0.74706793  0.26225425  1
  O  O386  1  0.61306845  0.75722756  0.74617068  1
  O  O387  1  0.38271983  0.24527789  0.24438297  1
  O  O388  1  0.38552211  0.23526404  0.75684255  1
  O  O389  1  0.37990185  0.73611487  0.25899967  1
  O  O390  1  0.37884929  0.75254259  0.74069196  1
  O  O391  1  0.88806976  0.24783499  0.24568184  1
  O  O392  1  0.88245546  0.24259311  0.74411736  1
  O  O393  1  0.87657271  0.73893123  0.24671625  1
  O  O394  1  0.88132802  0.76118134  0.74779090  1
  O  O395  1  0.37143890  0.49154108  0.48911595  1
  O  O396  1  0.38305711  0.49199210  0.99242817  1
  O  O397  1  0.38145208  0.99247357  0.49773380  1
  O  O398  1  0.37348178  0.98801009  0.98950012  1
  O  O399  1  0.89485615  0.48741754  0.49622506  1
  O  O400  1  0.87363879  0.50344991  0.98689369  1
  O  O401  1  0.87571759  0.98933187  0.48838040  1
  O  O402  1  0.87611058  0.98822749  0.99772309  1
  O  O403  1  0.12462495  0.01176967  -0.00016090  1
  O  O404  1  0.12088039  0.00065263  0.50745433  1
  O  O405  1  0.12099831  0.50469353  0.01452618  1
  O  O406  1  0.11480007  0.48887550  0.50708253  1
  O  O407  1  0.62535301  0.01485264  0.00637731  1
  O  O408  1  0.61906676  0.01124221  0.49238770  1
  O  O409  1  0.61961486  0.50927618  0.00726032  1
  O  O410  1  0.63109740  0.50218247  0.51453961  1
  O  O411  1  0.37311588  0.37319498  0.11965019  1
  O  O412  1  0.36939864  0.38015767  0.61277708  1
  O  O413  1  0.36872953  0.87950183  0.11667455  1
  O  O414  1  0.37725414  0.86848158  0.61953444  1
  O  O415  1  0.86379468  0.37971730  0.12569927  1
  O  O416  1  0.87743308  0.37943187  0.61537467  1
  O  O417  1  0.86775230  0.87069833  0.12062811  1
  O  O418  1  0.86213190  0.87854852  0.61465795  1
  O  O419  1  0.12809432  0.13316578  0.38005634  1
  O  O420  1  0.13546848  0.12119862  0.87986518  1
  O  O421  1  0.13834706  0.62920111  0.36720915  1
  O  O422  1  0.11840298  0.63325685  0.87497240  1
  O  O423  1  0.62895657  0.13251189  0.37783248  1
  O  O424  1  0.61565084  0.13473355  0.89272188  1
  O  O425  1  0.61620024  0.64123524  0.37838906  1
  O  O426  1  0.64019266  0.61662239  0.88357353  1
