# generated using pymatgen
data_V85Zn86O256
_symmetry_space_group_name_H-M   'P 1'
_cell_length_a   16.91680715
_cell_length_b   16.91089257
_cell_length_c   16.91850076
_cell_angle_alpha   89.98479663
_cell_angle_beta   89.98888178
_cell_angle_gamma   90.01637879
_symmetry_Int_Tables_number   1
_chemical_formula_structural   V85Zn86O256
_chemical_formula_sum   'V85 Zn86 O256'
_cell_volume   4840.01562089
_cell_formula_units_Z   1
loop_
 _symmetry_equiv_pos_site_id
 _symmetry_equiv_pos_as_xyz
  1  'x, y, z'
loop_
 _atom_site_type_symbol
 _atom_site_label
 _atom_site_symmetry_multiplicity
 _atom_site_fract_x
 _atom_site_fract_y
 _atom_site_fract_z
 _atom_site_occupancy
  V  V0  1  0.63985264  0.87851783  0.24707701  1
  V  V1  1  0.62333549  0.12677420  0.49273514  1
  V  V2  1  0.24916725  0.87389830  0.62682726  1
  V  V3  1  -0.00081603  0.62633217  0.12630280  1
  V  V4  1  0.37494495  0.87700577  0.49605916  1
  V  V5  1  0.25301345  0.87750834  0.12256112  1
  V  V6  1  0.87256830  0.87675009  0.50119073  1
  V  V7  1  0.62335058  0.50269398  0.12540786  1
  V  V8  1  0.51335756  0.87075884  0.87944612  1
  V  V9  1  0.13082846  0.12991447  0.49974552  1
  V  V10  1  0.62138233  0.25127853  0.87890950  1
  V  V11  1  0.37415631  0.62585437  0.25100450  1
  V  V12  1  0.12620533  0.74837723  0.37406327  1
  V  V13  1  0.12652957  0.37595489  0.24900502  1
  V  V14  1  -0.01418470  0.37777262  0.37712424  1
  V  V15  1  0.00094719  0.00169627  0.00079665  1
  V  V16  1  0.62947080  0.62626421  -0.01292065  1
  V  V17  1  -0.00259673  0.12765620  0.62363684  1
  V  V18  1  -0.00092177  0.87309495  0.87446566  1
  V  V19  1  0.62186695  0.37405184  0.74804414  1
  V  V20  1  0.13305159  0.25173467  0.37601828  1
  V  V21  1  0.87554971  0.37051482  0.00418366  1
  V  V22  1  0.86339260  0.74990180  0.12788465  1
  V  V23  1  0.61456295  0.36195014  0.25035099  1
  V  V24  1  0.75103717  0.37210262  0.12621672  1
  V  V25  1  0.74664915  0.74685498  -0.01345266  1
  V  V26  1  0.25475529  0.00839098  0.75015644  1
  V  V27  1  0.12519823  0.62179763  0.50056159  1
  V  V28  1  -0.01042450  0.12770458  0.12798985  1
  V  V29  1  0.86691377  0.00702171  0.36127018  1
  V  V30  1  0.25676436  0.49878879  0.75262321  1
  V  V31  1  0.49762936  0.00355979  0.50146943  1
  V  V32  1  0.75039547  0.50310249  0.75404876  1
  V  V33  1  0.87769640  0.63157130  0.75554603  1
  V  V34  1  -0.00233469  0.00087233  0.50013481  1
  V  V35  1  -0.00975631  0.24589045  0.24832834  1
  V  V36  1  -0.00354308  0.25154057  0.74923476  1
  V  V37  1  -0.01569658  0.49886514  0.49761991  1
  V  V38  1  0.00039446  0.49905498  0.00044127  1
  V  V39  1  0.38407306  0.13070555  0.25812178  1
  V  V40  1  0.87267971  0.00174391  0.87650846  1
  V  V41  1  0.74960511  0.24694398  0.00242858  1
  V  V42  1  0.12214310  0.74789384  0.86979826  1
  V  V43  1  0.49817681  0.87959487  0.37173425  1
  V  V44  1  0.37804068  0.62477681  0.75805344  1
  V  V45  1  0.12775403  0.24482274  0.87480534  1
  V  V46  1  0.87222322  0.25444436  0.61638144  1
  V  V47  1  0.50356311  0.50771118  0.49601579  1
  V  V48  1  0.75259697  0.37395827  0.61891633  1
  V  V49  1  0.74603518  0.25028328  0.49358421  1
  V  V50  1  0.87376787  0.62098982  0.25929808  1
  V  V51  1  0.49365938  -0.00465585  0.00546302  1
  V  V52  1  0.12576889  0.62514214  -0.00075220  1
  V  V53  1  0.87169958  0.50231619  0.87745803  1
  V  V54  1  0.37145101  0.38005041  -0.00291103  1
  V  V55  1  0.12636936  0.87618634  0.24988366  1
  V  V56  1  0.74370110  -0.00356274  0.75288582  1
  V  V57  1  0.25353748  0.75485438  -0.00395615  1
  V  V58  1  0.49470969  0.38297793  0.87160064  1
  V  V59  1  0.37589255  0.75671207  0.12093696  1
  V  V60  1  0.62046364  0.00017962  0.62653828  1
  V  V61  1  0.63322584  0.00008841  0.12413508  1
  V  V62  1  0.74650724  0.74430151  0.50193635  1
  V  V63  1  0.50201979  0.13074091  0.12090238  1
  V  V64  1  0.37914161  0.23648350  0.61725909  1
  V  V65  1  0.62493320  0.74393583  0.37625391  1
  V  V66  1  0.86990771  0.87517411  0.00611947  1
  V  V67  1  0.74592994  0.87379031  0.63048489  1
  V  V68  1  0.75020232  0.49847400  0.25866954  1
  V  V69  1  0.25767630  0.00326095  0.25910525  1
  V  V70  1  0.37589639  0.74913830  0.62857463  1
  V  V71  1  0.37542976  0.49739325  0.37973813  1
  V  V72  1  0.11917265  0.87359344  0.74998786  1
  V  V73  1  0.62586843  0.50610532  0.61793809  1
  V  V74  1  0.12787830  0.00553830  0.12589234  1
  V  V75  1  0.74472932  0.12614428  0.87814809  1
  V  V76  1  0.50032815  0.62772109  0.12209341  1
  V  V77  1  0.49863612  0.36288942  0.37901869  1
  V  V78  1  0.00026529  0.62923762  0.63008986  1
  V  V79  1  0.37722572  -0.00276538  0.87408665  1
  V  V80  1  -0.00011610  0.87614631  0.37471678  1
  V  V81  1  0.12290458  0.00075086  0.62592701  1
  V  V82  1  0.25945447  0.37072604  0.61063717  1
  V  V83  1  0.12783279  0.37536642  0.74675053  1
  V  V84  1  0.51485123  0.75624908  0.75106000  1
  Zn  Zn85  1  0.12529727  0.49785400  0.62268182  1
  Zn  Zn86  1  0.47812800  0.22423490  0.75297973  1
  Zn  Zn87  1  0.50482430  0.62842351  0.62141562  1
  Zn  Zn88  1  0.25199197  0.74705056  0.50055677  1
  Zn  Zn89  1  0.25101981  0.49850145  0.24962010  1
  Zn  Zn90  1  0.25172565  0.37483745  0.12618893  1
  Zn  Zn91  1  0.25108346  0.62298157  0.37652007  1
  Zn  Zn92  1  0.26630438  0.12959810  0.87515560  1
  Zn  Zn93  1  0.87799444  0.75250759  0.63130375  1
  Zn  Zn94  1  0.37414673  0.25204026  0.12574366  1
  Zn  Zn95  1  -0.00082345  0.75005068  0.24875866  1
  Zn  Zn96  1  0.86627787  0.12896942  0.74767284  1
  Zn  Zn97  1  0.50114044  0.75398359  0.24901233  1
  Zn  Zn98  1  -0.00000789  0.37352172  0.87593723  1
  Zn  Zn99  1  0.74897601  0.61856911  0.38322657  1
  Zn  Zn100  1  0.74527119  0.12540870  0.36361154  1
  Zn  Zn101  1  0.12889568  0.50087437  0.12595111  1
  Zn  Zn102  1  0.25766983  0.12640543  0.38032179  1
  Zn  Zn103  1  0.12960742  0.12690645  -0.00030854  1
  Zn  Zn104  1  0.49426959  0.50585061  -0.00744874  1
  Zn  Zn105  1  0.25244794  0.24735642  0.00217416  1
  Zn  Zn106  1  0.25469288  0.62034678  0.87720746  1
  Zn  Zn107  1  0.19042165  0.19037928  0.18900766  1
  Zn  Zn108  1  0.19126181  0.19170079  0.68496945  1
  Zn  Zn109  1  0.18973754  0.68708556  0.18704579  1
  Zn  Zn110  1  0.18910774  0.68573757  0.68813851  1
  Zn  Zn111  1  0.69115727  0.18235094  0.19028697  1
  Zn  Zn112  1  0.65009663  0.16886547  0.70357763  1
  Zn  Zn113  1  0.68698706  0.68789807  0.18962320  1
  Zn  Zn114  1  0.69209989  0.68472518  0.68950602  1
  Zn  Zn115  1  0.31489348  0.31127703  0.31335683  1
  Zn  Zn116  1  0.31356354  0.31220344  0.80921100  1
  Zn  Zn117  1  0.31243547  0.81186717  0.31150457  1
  Zn  Zn118  1  0.31584262  0.81809010  0.81414037  1
  Zn  Zn119  1  0.80769535  0.30587365  0.30717224  1
  Zn  Zn120  1  0.81137669  0.31589742  0.81128397  1
  Zn  Zn121  1  0.81346958  0.81134078  0.31608815  1
  Zn  Zn122  1  0.81083087  0.81420543  0.81547405  1
  Zn  Zn123  1  0.18264081  0.44062616  0.43231019  1
  Zn  Zn124  1  0.18774708  0.43588025  0.93348328  1
  Zn  Zn125  1  0.18784259  0.93793609  0.43981982  1
  Zn  Zn126  1  0.18979480  0.93895840  0.93708687  1
  Zn  Zn127  1  0.68174086  0.43246395  0.43606663  1
  Zn  Zn128  1  0.68585622  0.43843338  0.93808396  1
  Zn  Zn129  1  0.68641906  0.93483586  0.43698355  1
  Zn  Zn130  1  0.68611096  0.93637531  0.94551215  1
  Zn  Zn131  1  0.31575879  0.06573254  0.06172144  1
  Zn  Zn132  1  0.31350779  0.06134162  0.56399252  1
  Zn  Zn133  1  0.31118278  0.56070517  0.06339865  1
  Zn  Zn134  1  0.31340761  0.55976146  0.56472906  1
  Zn  Zn135  1  0.81088028  0.06478632  0.06705935  1
  Zn  Zn136  1  0.80781217  0.06560524  0.56089492  1
  Zn  Zn137  1  0.81097561  0.56229277  0.06636938  1
  Zn  Zn138  1  0.81282642  0.56392316  0.56816051  1
  Zn  Zn139  1  0.43644623  0.43935072  0.18652580  1
  Zn  Zn140  1  0.43774207  0.43466048  0.68362772  1
  Zn  Zn141  1  0.43835916  0.94004871  0.19077343  1
  Zn  Zn142  1  0.43853809  0.93557562  0.68968024  1
  Zn  Zn143  1  0.93669855  0.43729277  0.18904722  1
  Zn  Zn144  1  0.93732455  0.43962169  0.68516368  1
  Zn  Zn145  1  0.93950283  0.93614222  0.18600453  1
  Zn  Zn146  1  0.93334850  0.93947659  0.68947195  1
  Zn  Zn147  1  0.06179100  0.06388969  0.31358924  1
  Zn  Zn148  1  0.06076901  0.06404187  0.81030156  1
  Zn  Zn149  1  0.05994863  0.55979081  0.31363655  1
  Zn  Zn150  1  0.06282408  0.55902764  0.81307776  1
  Zn  Zn151  1  0.56294047  0.05951033  0.31103311  1
  Zn  Zn152  1  0.56258673  0.05988205  0.81887628  1
  Zn  Zn153  1  0.56017227  0.56209827  0.30922802  1
  Zn  Zn154  1  0.56166387  0.56316958  0.80682865  1
  Zn  Zn155  1  0.43437610  0.18756675  0.44507849  1
  Zn  Zn156  1  0.43886012  0.18741167  0.94073511  1
  Zn  Zn157  1  0.43943390  0.68920890  0.43767203  1
  Zn  Zn158  1  0.44012401  0.69206404  0.93722196  1
  Zn  Zn159  1  0.93915990  0.18905781  0.43616430  1
  Zn  Zn160  1  0.93740428  0.18706571  0.93864617  1
  Zn  Zn161  1  0.93825807  0.68962267  0.44064824  1
  Zn  Zn162  1  0.93740160  0.68802487  0.93769175  1
  Zn  Zn163  1  0.06402656  0.31028576  0.06457594  1
  Zn  Zn164  1  0.06301903  0.31510700  0.55984230  1
  Zn  Zn165  1  0.06219501  0.81269414  0.06144578  1
  Zn  Zn166  1  0.06129088  0.80922989  0.56186655  1
  Zn  Zn167  1  0.56044862  0.31601896  0.05887494  1
  Zn  Zn168  1  0.55852172  0.31219018  0.56148741  1
  Zn  Zn169  1  0.56698690  0.81423992  0.06212918  1
  Zn  Zn170  1  0.56362078  0.81503927  0.56180670  1
  O  O171  1  0.12023501  0.11405035  0.12724352  1
  O  O172  1  0.11893271  0.12282951  0.61874316  1
  O  O173  1  0.11601214  0.62643333  0.11917619  1
  O  O174  1  0.11848327  0.62366474  0.61835633  1
  O  O175  1  0.61250902  0.10983638  0.13355906  1
  O  O176  1  0.63682420  0.10509220  0.60786217  1
  O  O177  1  0.61757794  0.62096684  0.12111003  1
  O  O178  1  0.62485660  0.61015917  0.63125868  1
  O  O179  1  0.38991550  0.38290631  0.36718712  1
  O  O180  1  0.38282159  0.37169656  0.88390006  1
  O  O181  1  0.38281545  0.86812299  0.38509128  1
  O  O182  1  0.38938422  0.88787415  0.87063672  1
  O  O183  1  0.88761621  0.37058462  0.37006511  1
  O  O184  1  0.87630877  0.38522336  0.88291684  1
  O  O185  1  0.88015431  0.88189697  0.38296567  1
  O  O186  1  0.87932720  0.88029807  0.88519207  1
  O  O187  1  0.24439251  0.00197680  0.36214720  1
  O  O188  1  0.26008997  -0.00159259  0.86725051  1
  O  O189  1  0.26043489  0.50183149  0.37222055  1
  O  O190  1  0.24625371  0.50156313  0.85803936  1
  O  O191  1  0.76474826  -0.00204158  0.38004380  1
  O  O192  1  0.74983742  0.00593231  0.87324557  1
  O  O193  1  0.74228898  0.50011215  0.36317014  1
  O  O194  1  0.75827569  0.49444825  0.86652722  1
  O  O195  1  0.24689759  0.49483728  0.13035594  1
  O  O196  1  0.24717697  0.49070125  0.63347540  1
  O  O197  1  0.24438555  0.99640035  0.13053747  1
  O  O198  1  0.24309064  0.99344057  0.63231647  1
  O  O199  1  0.74191079  0.49024985  0.13184902  1
  O  O200  1  0.74459787  0.49265072  0.62952985  1
  O  O201  1  0.73261108  1.00046042  0.11771370  1
  O  O202  1  0.74720570  0.99282845  0.63400001  1
  O  O203  1  0.00441474  0.36867890  0.25823078  1
  O  O204  1  0.00658962  0.36585027  0.74767290  1
  O  O205  1  0.00871574  0.87220403  0.25577689  1
  O  O206  1  0.01124323  0.87999299  0.75438158  1
  O  O207  1  0.50903494  0.37931112  0.25727690  1
  O  O208  1  0.50892908  0.37540516  0.75521477  1
  O  O209  1  0.50438474  0.87378817  0.25900822  1
  O  O210  1  0.50126443  0.86285648  0.75854457  1
  O  O211  1  0.48972404  0.11697539  0.24100637  1
  O  O212  1  0.54406771  0.13622009  0.74175912  1
  O  O213  1  0.49094491  0.62996900  0.24087934  1
  O  O214  1  0.49487135  0.63725961  0.74703973  1
  O  O215  1  1.00370933  0.13820679  0.24579430  1
  O  O216  1  0.99688498  0.13746425  0.74286619  1
  O  O217  1  0.99267704  0.62580381  0.24305440  1
  O  O218  1  0.99135733  0.61618591  0.74190440  1
  O  O219  1  0.37637453  0.26347321  0.00157577  1
  O  O220  1  0.36977452  0.24829627  0.51492714  1
  O  O221  1  0.36572242  0.74543211  0.00821108  1
  O  O222  1  0.37603528  0.75917233  0.50889567  1
  O  O223  1  0.86757529  0.26337346  -0.00500515  1
  O  O224  1  0.86784023  0.24585276  0.51009019  1
  O  O225  1  0.86540237  0.75389599  0.00510764  1
  O  O226  1  0.86871941  0.76284492  0.50130378  1
  O  O227  1  0.11702712  0.24051507  0.49039913  1
  O  O228  1  0.12531880  0.25107922  0.98798830  1
  O  O229  1  0.12483166  0.73910544  0.49279488  1
  O  O230  1  0.13132647  0.74566262  0.99102023  1
  O  O231  1  0.63189112  0.23787057  0.50897600  1
  O  O232  1  0.63462020  0.26074110  0.98640821  1
  O  O233  1  0.63433801  0.75718365  0.49055624  1
  O  O234  1  0.63961830  0.74330514  1.00523043  1
  O  O235  1  0.50488591  0.23332705  0.11813277  1
  O  O236  1  0.48321648  0.25750437  0.62695984  1
  O  O237  1  0.49400844  0.74278911  0.12277246  1
  O  O238  1  0.49620123  0.75279584  0.63599464  1
  O  O239  1  1.00665962  0.24207865  0.13939886  1
  O  O240  1  0.99148180  0.24950992  0.62900596  1
  O  O241  1  0.99090514  0.73892639  0.12242507  1
  O  O242  1  0.99686898  0.73471471  0.62171546  1
  O  O243  1  0.00517874  0.25816189  0.36674458  1
  O  O244  1  0.00372388  0.25192936  0.86482239  1
  O  O245  1  0.01062002  0.75663550  0.37490643  1
  O  O246  1  0.01055664  0.75896985  0.88142715  1
  O  O247  1  0.49682738  0.26411637  0.38152754  1
  O  O248  1  0.50799145  0.25728586  0.87152952  1
  O  O249  1  0.50844509  0.76094379  0.37567991  1
  O  O250  1  0.49888450  0.76153363  0.86522925  1
  O  O251  1  0.23501847  0.11408522  0.49749755  1
  O  O252  1  0.24819161  0.12678878  0.99346354  1
  O  O253  1  0.24007988  0.62580596  0.49976954  1
  O  O254  1  0.24369191  0.63482451  0.99843623  1
  O  O255  1  0.74260250  0.13251607  0.49176130  1
  O  O256  1  0.75536752  0.14000959  0.99725400  1
  O  O257  1  0.75645717  0.63927875  0.50129486  1
  O  O258  1  0.74454508  0.63656965  1.00525274  1
  O  O259  1  0.26173972  0.37427947  -0.00242258  1
  O  O260  1  0.23946102  0.38160147  0.51372558  1
  O  O261  1  0.24468312  0.86298834  0.00657403  1
  O  O262  1  0.25743505  0.87373807  0.50735615  1
  O  O263  1  0.75564327  0.36993465  0.00667866  1
  O  O264  1  0.74136819  0.36856055  0.51124765  1
  O  O265  1  0.75778035  0.86099409  -0.00214711  1
  O  O266  1  0.75667318  0.86829110  0.50775355  1
  O  O267  1  0.12541722  0.49053699  0.25037917  1
  O  O268  1  0.13060368  0.49035557  0.74664065  1
  O  O269  1  0.13165952  0.99656303  0.24335144  1
  O  O270  1  0.12922362  0.99275643  0.74485891  1
  O  O271  1  0.63027720  0.49680555  0.23887855  1
  O  O272  1  0.63251988  0.49199446  0.74439411  1
  O  O273  1  0.62164102  0.98683933  0.24027468  1
  O  O274  1  0.63659393  0.99772645  0.74249880  1
  O  O275  1  0.36650249  0.01238718  0.24548298  1
  O  O276  1  0.36480246  -0.00521404  0.75514737  1
  O  O277  1  0.37773815  0.50924796  0.25996073  1
  O  O278  1  0.36978169  0.51188635  0.74127332  1
  O  O279  1  0.87858775  -0.00628923  0.26311152  1
  O  O280  1  0.86258575  0.00336043  0.75838442  1
  O  O281  1  0.86330295  0.50834054  0.24470936  1
  O  O282  1  0.86941566  0.50427421  0.75857383  1
  O  O283  1  0.11610415  0.36866644  0.36678352  1
  O  O284  1  0.12323170  0.36495128  0.86227332  1
  O  O285  1  0.12061207  0.86863120  0.37156055  1
  O  O286  1  0.12048908  0.86993948  0.86780572  1
  O  O287  1  0.61304861  0.37725074  0.35887328  1
  O  O288  1  0.61829502  0.37144098  0.86877180  1
  O  O289  1  0.62016479  0.86981469  0.36368071  1
  O  O290  1  0.61267385  0.87852638  0.87528163  1
  O  O291  1  0.38858622  0.12615293  0.13282296  1
  O  O292  1  0.37192059  0.13565090  0.62559862  1
  O  O293  1  0.38204192  0.63292653  0.12906241  1
  O  O294  1  0.37764984  0.63765908  0.63030571  1
  O  O295  1  0.89023754  0.12188993  0.12303174  1
  O  O296  1  0.87900713  0.13389021  0.62642348  1
  O  O297  1  0.88019959  0.63154922  0.13343854  1
  O  O298  1  0.88243724  0.62654209  0.63709749  1
  O  O299  1  0.25285485  0.25598478  0.12120185  1
  O  O300  1  0.25733605  0.26383952  0.62587363  1
  O  O301  1  0.25675541  0.75594293  0.11776082  1
  O  O302  1  0.25831205  0.75618442  0.62484510  1
  O  O303  1  0.73752861  0.26405823  0.11535251  1
  O  O304  1  0.75719246  0.25809265  0.61759314  1
  O  O305  1  0.76093242  0.74674482  0.11946508  1
  O  O306  1  0.75186757  0.75711722  0.62096354  1
  O  O307  1  0.23718675  0.24798398  0.37342172  1
  O  O308  1  0.24139282  0.24708368  0.87306423  1
  O  O309  1  0.23751120  0.74926466  0.37751143  1
  O  O310  1  0.24409449  0.75095329  0.88141926  1
  O  O311  1  0.75122603  0.25495821  0.39046621  1
  O  O312  1  0.74645766  0.24531796  0.88161660  1
  O  O313  1  0.74277286  0.74949340  0.38458994  1
  O  O314  1  0.75218484  0.74618158  0.88756654  1
  O  O315  1  0.00378313  0.11969385  0.00837937  1
  O  O316  1  0.00781152  0.11992433  0.50533012  1
  O  O317  1  0.00458165  0.62011005  0.00693776  1
  O  O318  1  0.00438162  0.61844027  0.50540017  1
  O  O319  1  0.49892245  0.11383659  0.01366924  1
  O  O320  1  0.50474077  0.11060013  0.49677694  1
  O  O321  1  0.50816496  0.62556469  0.00503242  1
  O  O322  1  0.49971591  0.61384170  0.50166799  1
  O  O323  1  0.50903221  0.38588306  0.48332463  1
  O  O324  1  0.49189604  0.37985569  0.99020221  1
  O  O325  1  0.49344803  0.88130424  0.49395328  1
  O  O326  1  0.50201016  0.87624849  0.98760934  1
  O  O327  1  1.00246707  0.38250109  0.48624415  1
  O  O328  1  0.99131296  0.37990493  1.00252508  1
  O  O329  1  0.99223763  0.87928465  0.49670624  1
  O  O330  1  0.99236439  0.88166252  0.99548570  1
  O  O331  1  0.49586132  0.49622368  0.37949442  1
  O  O332  1  0.50469124  0.48753999  0.87357363  1
  O  O333  1  0.50390473  0.98658054  0.38432481  1
  O  O334  1  0.49986985  0.98934115  0.88255549  1
  O  O335  1  0.99939399  0.48613845  0.38048888  1
  O  O336  1  0.99306301  0.49511766  0.88369930  1
  O  O337  1  0.99307087  0.99401031  0.38098306  1
  O  O338  1  0.99357925  0.99592725  0.88035230  1
  O  O339  1  0.00857864  0.00649622  0.12188780  1
  O  O340  1  0.00332134  0.00662224  0.62172808  1
  O  O341  1  -0.00084086  0.51207014  0.11929276  1
  O  O342  1  0.00218976  0.50758899  0.61547188  1
  O  O343  1  0.50429873  0.00397474  0.11932173  1
  O  O344  1  0.51038447  -0.01092533  0.61686413  1
  O  O345  1  0.50585128  0.51289944  0.12255571  1
  O  O346  1  0.50864187  0.49847812  0.61448130  1
  O  O347  1  0.23999327  0.37522233  0.25165137  1
  O  O348  1  0.24383714  0.38151251  0.74237976  1
  O  O349  1  0.24660085  0.88334233  0.24375626  1
  O  O350  1  0.23801820  0.88218931  0.74619495  1
  O  O351  1  0.73869569  0.37859157  0.24429765  1
  O  O352  1  0.74591463  0.38599579  0.74108608  1
  O  O353  1  0.73855394  0.87346119  0.25194249  1
  O  O354  1  0.75501724  0.88172413  0.74224368  1
  O  O355  1  0.26236016  0.11859367  0.25171766  1
  O  O356  1  0.24131195  0.11099104  0.75252359  1
  O  O357  1  0.26340562  0.62495753  0.25112878  1
  O  O358  1  0.25978571  0.61756389  0.74947432  1
  O  O359  1  0.76065925  0.13328248  0.25532699  1
  O  O360  1  0.74579481  0.11691905  0.76064470  1
  O  O361  1  0.75646261  0.61546339  0.25031107  1
  O  O362  1  0.76010010  0.61081146  0.74619871  1
  O  O363  1  0.37731586  0.12636972  0.36283171  1
  O  O364  1  0.38459468  0.10737755  0.87491526  1
  O  O365  1  0.37569545  0.62103989  0.36686537  1
  O  O366  1  0.37545015  0.63025674  0.86230601  1
  O  O367  1  0.87821370  0.10795100  0.38117154  1
  O  O368  1  0.86270975  0.12019772  0.87481676  1
  O  O369  1  0.87305762  0.63226314  0.36252693  1
  O  O370  1  0.88139975  0.61132906  0.87107964  1
  O  O371  1  0.12102024  0.37731516  0.13929324  1
  O  O372  1  0.13174098  0.37275681  0.63470225  1
  O  O373  1  0.12871154  0.88504384  0.13003303  1
  O  O374  1  0.12677275  0.87763994  0.63180619  1
  O  O375  1  0.62521515  0.38421962  0.13241064  1
  O  O376  1  0.63044482  0.38206034  0.63238401  1
  O  O377  1  0.62049222  0.88320113  0.13892637  1
  O  O378  1  0.63849271  0.88419331  0.61989021  1
  O  O379  1  0.11686581  0.25644274  0.25876726  1
  O  O380  1  0.11730095  0.25566283  0.75303043  1
  O  O381  1  0.12429850  0.75549906  0.25701464  1
  O  O382  1  0.13011128  0.75693271  0.76152403  1
  O  O383  1  0.62086945  0.26449190  0.24122832  1
  O  O384  1  0.63980003  0.26808722  0.76365169  1
  O  O385  1  0.62377236  0.76200784  0.25439078  1
  O  O386  1  0.61339202  0.74613805  0.74750404  1
  O  O387  1  0.37444264  0.23453241  0.24680411  1
  O  O388  1  0.37183706  0.25421289  0.73254511  1
  O  O389  1  0.37668855  0.74321303  0.24125978  1
  O  O390  1  0.38179641  0.74600165  0.74413398  1
  O  O391  1  0.89157795  0.25512569  0.24877309  1
  O  O392  1  0.88084106  0.25095267  0.74138407  1
  O  O393  1  0.87620992  0.74466732  0.24286277  1
  O  O394  1  0.87082506  0.73545589  0.75470296  1
  O  O395  1  0.38309601  0.50515269  0.48691656  1
  O  O396  1  0.37651960  0.48699737  1.00000885  1
  O  O397  1  0.38213243  0.98630617  0.50750334  1
  O  O398  1  0.38679379  0.99677660  0.99552550  1
  O  O399  1  0.88457873  0.50563595  0.50019350  1
  O  O400  1  0.87740667  0.49320598  0.99556209  1
  O  O401  1  0.87841603  0.98957136  0.49956981  1
  O  O402  1  0.87696701  0.99175788  0.99757941  1
  O  O403  1  0.11954517  0.00014160  0.00852756  1
  O  O404  1  0.11658030  0.00422641  0.50699959  1
  O  O405  1  0.11851755  0.50581994  -0.00071282  1
  O  O406  1  0.11514788  0.51191818  0.49803967  1
  O  O407  1  0.61291948  -0.00897682  0.01695146  1
  O  O408  1  0.61701542  0.00055942  0.50545985  1
  O  O409  1  0.62660611  0.50721476  0.01227671  1
  O  O410  1  0.61943959  0.49937290  0.50694906  1
  O  O411  1  0.37918655  0.37318854  0.11218686  1
  O  O412  1  0.36180788  0.37646067  0.61990464  1
  O  O413  1  0.37196731  0.86300825  0.13027039  1
  O  O414  1  0.37112457  0.86454820  0.62088080  1
  O  O415  1  0.86328123  0.37977772  0.11740395  1
  O  O416  1  0.86445316  0.36851381  0.62809389  1
  O  O417  1  0.88152521  0.86593595  0.11386105  1
  O  O418  1  0.86650161  0.87342384  0.61953729  1
  O  O419  1  0.12414873  0.13376498  0.38282668  1
  O  O420  1  0.12245935  0.13736640  0.87373805  1
  O  O421  1  0.12427054  0.63208594  0.38097002  1
  O  O422  1  0.12636891  0.63329905  0.87908165  1
  O  O423  1  0.62547106  0.11676369  0.38753934  1
  O  O424  1  0.63736407  0.13451048  0.88192495  1
  O  O425  1  0.62626253  0.64031680  0.36540563  1
  O  O426  1  0.62287155  0.61743868  0.88798391  1
