# generated using pymatgen
data_V85Zn86O256
_symmetry_space_group_name_H-M   'P 1'
_cell_length_a   16.92275808
_cell_length_b   16.92517620
_cell_length_c   16.92408983
_cell_angle_alpha   89.95075205
_cell_angle_beta   89.96767452
_cell_angle_gamma   90.00466142
_symmetry_Int_Tables_number   1
_chemical_formula_structural   V85Zn86O256
_chemical_formula_sum   'V85 Zn86 O256'
_cell_volume   4847.40643908
_cell_formula_units_Z   1
loop_
 _symmetry_equiv_pos_site_id
 _symmetry_equiv_pos_as_xyz
  1  'x, y, z'
loop_
 _atom_site_type_symbol
 _atom_site_label
 _atom_site_symmetry_multiplicity
 _atom_site_fract_x
 _atom_site_fract_y
 _atom_site_fract_z
 _atom_site_occupancy
  V  V0  1  0.88504711  0.50245877  0.87725977  1
  V  V1  1  0.62501293  0.37467701  0.74775499  1
  V  V2  1  0.14009828  0.12633909  0.49521066  1
  V  V3  1  0.25327215  0.37239505  0.60961752  1
  V  V4  1  0.13800728  0.24828348  0.37842359  1
  V  V5  1  0.24722388  0.00319158  0.25445368  1
  V  V6  1  0.37111668  -0.00196126  0.86250237  1
  V  V7  1  0.50516378  0.50005847  0.49700908  1
  V  V8  1  -0.00191342  0.86794063  0.85609042  1
  V  V9  1  0.62632658  0.73622207  0.38071002  1
  V  V10  1  0.62316522  0.74984324  0.88831890  1
  V  V11  1  0.75180993  0.37453115  0.62738492  1
  V  V12  1  -0.00231507  0.37181284  0.37414524  1
  V  V13  1  0.75034792  0.25023220  0.00285650  1
  V  V14  1  0.50003615  0.37401375  0.87495682  1
  V  V15  1  0.74810351  0.73592896  0.50028841  1
  V  V16  1  0.87375864  -0.00567920  0.87908683  1
  V  V17  1  0.37511077  0.62586491  0.24820141  1
  V  V18  1  0.62868466  0.87341762  0.25054534  1
  V  V19  1  0.12570764  0.00622949  0.12046149  1
  V  V20  1  0.50283603  0.74827121  0.75045455  1
  V  V21  1  0.37208593  0.87396201  0.49992559  1
  V  V22  1  0.75005783  0.87568425  0.61933512  1
  V  V23  1  0.12711855  0.37142236  0.75226746  1
  V  V24  1  0.88212860  0.37759627  0.00072012  1
  V  V25  1  0.50139035  0.87266070  0.37728658  1
  V  V26  1  0.74956879  0.25063512  0.50571549  1
  V  V27  1  0.49024573  -0.00948628  0.00385932  1
  V  V28  1  0.87227203  -0.00140516  0.38087676  1
  V  V29  1  0.12735269  0.49943955  0.62424475  1
  V  V30  1  0.00176996  0.63089452  0.62869713  1
  V  V31  1  0.62247713  -0.00134887  0.62979175  1
  V  V32  1  0.87746618  0.63153145  0.75163339  1
  V  V33  1  0.49759684  -0.00040659  0.50126846  1
  V  V34  1  0.87133618  0.51063586  0.37273110  1
  V  V35  1  0.37989514  0.74611583  0.62447321  1
  V  V36  1  0.25119777  0.62563092  0.37340088  1
  V  V37  1  0.36767675  0.74977089  0.11108364  1
  V  V38  1  0.12424946  0.87351213  0.24896522  1
  V  V39  1  0.62279529  0.24909429  0.87504391  1
  V  V40  1  0.37172807  -0.00001555  0.37495840  1
  V  V41  1  0.74529575  0.62488908  0.87964598  1
  V  V42  1  0.12807057  -0.00047244  0.63535213  1
  V  V43  1  -0.00136710  0.12594084  0.11224539  1
  V  V44  1  0.12970517  0.75759243  0.86167428  1
  V  V45  1  0.24997004  0.62587489  0.88088836  1
  V  V46  1  0.50163160  0.74920007  0.25192549  1
  V  V47  1  0.24798765  0.37749947  0.12071092  1
  V  V48  1  0.37768127  0.62300424  0.74728243  1
  V  V49  1  0.49184774  0.12530869  0.63095746  1
  V  V50  1  0.37481159  0.37496878  -0.00023938  1
  V  V51  1  0.24385816  0.23833912  0.00045473  1
  V  V52  1  -0.00215957  0.87470129  0.37858664  1
  V  V53  1  0.87972518  0.75965023  0.62315774  1
  V  V54  1  0.25023772  0.75094210  0.50011353  1
  V  V55  1  -0.00146118  0.50060357  0.49951280  1
  V  V56  1  0.62243115  0.12672223  0.50155529  1
  V  V57  1  0.74804243  0.12628825  0.37633734  1
  V  V58  1  -0.00914108  0.63898602  0.12506418  1
  V  V59  1  0.76332365  0.87420848  0.12384246  1
  V  V60  1  0.62726069  0.49966896  0.11868207  1
  V  V61  1  0.48723696  0.24808142  0.75129952  1
  V  V62  1  0.87539874  0.13022530  0.74411343  1
  V  V63  1  0.74870412  0.12150668  0.87642934  1
  V  V64  1  0.38009565  0.48888885  0.37857692  1
  V  V65  1  0.37182887  0.12588000  0.25444786  1
  V  V66  1  0.87536532  0.12666732  0.24946154  1
  V  V67  1  0.76867269  0.75386441  0.00253596  1
  V  V68  1  0.11386022  0.50061962  0.11764996  1
  V  V69  1  0.87616609  0.36991567  0.50368112  1
  V  V70  1  0.51064327  0.62589724  0.11838877  1
  V  V71  1  0.24699025  0.87679086  0.63962822  1
  V  V72  1  0.37581888  0.49898764  0.87341058  1
  V  V73  1  -0.00059640  0.00386899  0.50016071  1
  V  V74  1  0.00008143  -0.01627445  0.00051336  1
  V  V75  1  0.12503130  0.62621240  0.49914086  1
  V  V76  1  0.12388414  0.37565699  0.24839575  1
  V  V77  1  0.62190890  0.51526446  0.62323169  1
  V  V78  1  0.11987651  0.62574866  -0.00295926  1
  V  V79  1  0.24988665  0.12197047  0.85332363  1
  V  V80  1  0.75217837  0.51387138  0.25271780  1
  V  V81  1  0.50141725  0.12632488  0.12529105  1
  V  V82  1  0.50013756  0.25556347  0.25637957  1
  V  V83  1  0.37209272  0.25290832  0.60963848  1
  V  V84  1  0.62586697  0.37721449  0.25842415  1
  Zn  Zn85  1  0.62525383  0.87259430  0.75412258  1
  Zn  Zn86  1  0.11848084  0.23987947  0.87548096  1
  Zn  Zn87  1  0.74726807  0.00108073  0.24773429  1
  Zn  Zn88  1  0.75183292  0.37520689  0.12766213  1
  Zn  Zn89  1  0.26203053  0.87932265  0.11488732  1
  Zn  Zn90  1  0.49324068  0.87121718  0.88065809  1
  Zn  Zn91  1  0.25289907  0.49763934  0.74735716  1
  Zn  Zn92  1  0.50619812  0.50113423  -0.00317071  1
  Zn  Zn93  1  0.62032396  0.25700209  0.38024036  1
  Zn  Zn94  1  -0.00445365  0.25493729  0.74598898  1
  Zn  Zn95  1  0.75071031  0.50158274  0.75098824  1
  Zn  Zn96  1  0.87546521  0.25158510  0.12579431  1
  Zn  Zn97  1  -0.01174883  0.74803259  0.25133984  1
  Zn  Zn98  1  0.37497856  0.25166232  0.12560360  1
  Zn  Zn99  1  0.00083298  0.24709254  0.24870917  1
  Zn  Zn100  1  -0.00128716  0.13193036  0.62145955  1
  Zn  Zn101  1  0.74953422  -0.00395316  0.75179249  1
  Zn  Zn102  1  0.62150146  0.12287483  0.00060154  1
  Zn  Zn103  1  0.62518613  -0.00440883  0.12179975  1
  Zn  Zn104  1  0.12190011  0.74792534  0.37184012  1
  Zn  Zn105  1  0.25086357  0.50026854  0.24665198  1
  Zn  Zn106  1  0.00420513  0.37385566  0.87618382  1
  Zn  Zn107  1  0.18650722  0.18808108  0.18738239  1
  Zn  Zn108  1  0.18395493  0.19151343  0.68120687  1
  Zn  Zn109  1  0.18334744  0.68780855  0.18686145  1
  Zn  Zn110  1  0.19340582  0.68632057  0.68893560  1
  Zn  Zn111  1  0.68504869  0.18769383  0.18898404  1
  Zn  Zn112  1  0.68563713  0.18702241  0.68958596  1
  Zn  Zn113  1  0.81352870  0.69075618  0.18740101  1
  Zn  Zn114  1  0.69184210  0.69112879  0.69308868  1
  Zn  Zn115  1  0.31087058  0.31214494  0.30829703  1
  Zn  Zn116  1  0.30741691  0.31079686  0.81082347  1
  Zn  Zn117  1  0.31066670  0.81266675  0.30728084  1
  Zn  Zn118  1  0.31442428  0.81245149  0.81799916  1
  Zn  Zn119  1  0.80930030  0.31405375  0.31476054  1
  Zn  Zn120  1  0.81231824  0.31268137  0.81669306  1
  Zn  Zn121  1  0.81139271  0.81476984  0.32009216  1
  Zn  Zn122  1  0.81111906  0.81261749  0.80982154  1
  Zn  Zn123  1  0.18792450  0.44063450  0.43349390  1
  Zn  Zn124  1  0.18785676  0.43952659  0.93621667  1
  Zn  Zn125  1  0.18536203  0.93792096  0.43845918  1
  Zn  Zn126  1  0.18913101  0.94262066  0.93652590  1
  Zn  Zn127  1  0.68758997  0.44332082  0.43877801  1
  Zn  Zn128  1  0.69323494  0.43643299  0.93648549  1
  Zn  Zn129  1  0.68685976  0.93507900  0.44084534  1
  Zn  Zn130  1  0.68121034  0.93484100  0.94194446  1
  Zn  Zn131  1  0.31649767  0.06112615  0.06704061  1
  Zn  Zn132  1  0.31168642  0.06159441  0.56802237  1
  Zn  Zn133  1  0.31115798  0.56180760  0.06171515  1
  Zn  Zn134  1  0.31721701  0.56023898  0.55935063  1
  Zn  Zn135  1  0.81329777  0.05877755  0.06157964  1
  Zn  Zn136  1  0.81023240  0.06040697  0.56225565  1
  Zn  Zn137  1  0.81104667  0.56123823  0.05829483  1
  Zn  Zn138  1  0.81448202  0.56012513  0.56586187  1
  Zn  Zn139  1  0.43870095  0.43874948  0.18791459  1
  Zn  Zn140  1  0.43938648  0.43620081  0.68205025  1
  Zn  Zn141  1  0.43740583  0.93448259  0.18805199  1
  Zn  Zn142  1  0.43680966  0.93155966  0.68900440  1
  Zn  Zn143  1  0.93492454  0.43895688  0.18717413  1
  Zn  Zn144  1  0.93844485  0.44110903  0.68906751  1
  Zn  Zn145  1  0.93892848  0.94025887  0.19325280  1
  Zn  Zn146  1  0.93586026  0.94522499  0.68669878  1
  Zn  Zn147  1  0.06129038  0.06538036  0.31257488  1
  Zn  Zn148  1  0.06055231  0.06347729  0.81678548  1
  Zn  Zn149  1  0.06015626  0.56126552  0.30828875  1
  Zn  Zn150  1  0.06483085  0.56213530  0.80776931  1
  Zn  Zn151  1  0.56169055  0.06223519  0.31299906  1
  Zn  Zn152  1  0.55766572  0.06155965  0.81491057  1
  Zn  Zn153  1  0.56134242  0.56053463  0.30883381  1
  Zn  Zn154  1  0.56355547  0.56362038  0.81010167  1
  Zn  Zn155  1  0.43621172  0.18587271  0.43531335  1
  Zn  Zn156  1  0.43022853  0.18329127  0.93802603  1
  Zn  Zn157  1  0.44170186  0.67963948  0.44067647  1
  Zn  Zn158  1  0.43909146  0.68430316  0.93764283  1
  Zn  Zn159  1  0.93954103  0.18827081  0.43907012  1
  Zn  Zn160  1  0.93582938  0.18928810  0.93281895  1
  Zn  Zn161  1  0.93486786  0.69317901  0.44151447  1
  Zn  Zn162  1  0.94504214  0.68815176  0.93881159  1
  Zn  Zn163  1  0.06172920  0.30918572  0.06057917  1
  Zn  Zn164  1  0.06324816  0.30758661  0.56637578  1
  Zn  Zn165  1  0.10509115  0.82793487  0.04178470  1
  Zn  Zn166  1  0.06449647  0.81661691  0.56136907  1
  Zn  Zn167  1  0.56372813  0.31304635  0.06645186  1
  Zn  Zn168  1  0.55966591  0.31791472  0.56144728  1
  Zn  Zn169  1  0.56545450  0.81082813  0.06707918  1
  Zn  Zn170  1  0.56371241  0.80957957  0.56320353  1
  O  O171  1  0.11386599  0.11412574  0.13293119  1
  O  O172  1  0.12693742  0.11587226  0.61239940  1
  O  O173  1  0.12166220  0.61910306  0.11448198  1
  O  O174  1  0.12079886  0.62143470  0.62077184  1
  O  O175  1  0.61177474  0.12057028  0.12714044  1
  O  O176  1  0.61533164  0.11868178  0.62131732  1
  O  O177  1  0.61043091  0.61771757  0.12897070  1
  O  O178  1  0.63042443  0.61313344  0.63273776  1
  O  O179  1  0.37192556  0.39146846  0.36371474  1
  O  O180  1  0.37884195  0.37799608  0.88006666  1
  O  O181  1  0.38082269  0.87805960  0.37915078  1
  O  O182  1  0.37334858  0.89083068  0.87716354  1
  O  O183  1  0.88184961  0.38064058  0.38245348  1
  O  O184  1  0.87505026  0.38580089  0.88012389  1
  O  O185  1  0.88207348  0.89106489  0.37495970  1
  O  O186  1  0.88761577  0.87983941  0.86835833  1
  O  O187  1  0.25552915  -0.00606696  0.36226579  1
  O  O188  1  0.25963229  0.00992822  0.87568492  1
  O  O189  1  0.26069732  0.50965138  0.37248534  1
  O  O190  1  0.25917246  0.50738286  0.87086988  1
  O  O191  1  0.75656191  0.00676422  0.37874857  1
  O  O192  1  0.75479879  0.00386158  0.87759441  1
  O  O193  1  0.75595282  0.49918028  0.36304106  1
  O  O194  1  0.75742997  0.51068191  0.87343068  1
  O  O195  1  0.23931008  0.49350275  0.12480354  1
  O  O196  1  0.24711631  0.48986515  0.62350377  1
  O  O197  1  0.24216236  0.99999357  0.13377015  1
  O  O198  1  0.23782193  0.99212050  0.62263351  1
  O  O199  1  0.74382551  0.50058355  0.13476337  1
  O  O200  1  0.73933995  0.49332152  0.62592828  1
  O  O201  1  0.74509352  0.99068928  0.12460591  1
  O  O202  1  0.73956468  0.99373954  0.62584940  1
  O  O203  1  0.00532565  0.37318221  0.25740574  1
  O  O204  1  0.01404306  0.37850380  0.74831213  1
  O  O205  1  0.00557155  0.87718970  0.26379520  1
  O  O206  1  0.00074277  0.87867697  0.75811854  1
  O  O207  1  0.50912774  0.36642963  0.24374823  1
  O  O208  1  0.50484470  0.36729930  0.75479348  1
  O  O209  1  0.50459926  0.86830462  0.25710840  1
  O  O210  1  0.49931827  0.85975045  0.75444888  1
  O  O211  1  0.49408027  0.12988921  0.24413222  1
  O  O212  1  0.50471863  0.13506118  0.74114019  1
  O  O213  1  0.49335141  0.62917210  0.24018019  1
  O  O214  1  0.48741277  0.63487192  0.75551022  1
  O  O215  1  0.99043119  0.12545555  0.24194882  1
  O  O216  1  0.98301386  0.12223710  0.75251036  1
  O  O217  1  1.00807651  0.62760968  0.23099553  1
  O  O218  1  0.99480434  0.62273558  0.73574657  1
  O  O219  1  0.36523338  0.25997336  0.00127163  1
  O  O220  1  0.38118243  0.25070397  0.51011375  1
  O  O221  1  0.37597192  0.74613789  0.01223413  1
  O  O222  1  0.37139401  0.75197570  0.50797178  1
  O  O223  1  0.86557024  0.25660010  -0.00074711  1
  O  O224  1  0.86783560  0.26255602  0.49691805  1
  O  O225  1  0.86657660  0.75530645  -0.00774585  1
  O  O226  1  0.86082714  0.74979718  0.51035091  1
  O  O227  1  0.12306482  0.23509248  0.49329974  1
  O  O228  1  0.14046332  0.25554121  0.99425067  1
  O  O229  1  0.13292114  0.74356778  0.49715408  1
  O  O230  1  0.11779809  0.73176042  0.97933894  1
  O  O231  1  0.62988491  0.24595583  0.50046400  1
  O  O232  1  0.63059998  0.24794673  0.99326725  1
  O  O233  1  0.63585865  0.75008400  0.49652487  1
  O  O234  1  0.62669587  0.74871177  0.99053621  1
  O  O235  1  0.49838346  0.24210048  0.13464267  1
  O  O236  1  0.49427200  0.24434811  0.63123586  1
  O  O237  1  0.49421028  0.73899923  0.12917151  1
  O  O238  1  0.48784418  0.75329425  0.63227786  1
  O  O239  1  0.99791438  0.23987576  0.12677240  1
  O  O240  1  0.99993034  0.24461023  0.63161152  1
  O  O241  1  1.00380948  0.73767708  0.12313468  1
  O  O242  1  0.99120563  0.74485369  0.61574315  1
  O  O243  1  0.00657957  0.26201013  0.37519179  1
  O  O244  1  0.00234127  0.25337579  0.86708402  1
  O  O245  1  0.00149655  0.76136155  0.37773219  1
  O  O246  1  0.00650860  0.76244847  0.87223360  1
  O  O247  1  0.50197995  0.24514601  0.36111682  1
  O  O248  1  0.50139440  0.25152005  0.86874962  1
  O  O249  1  0.50513818  0.75368738  0.37524807  1
  O  O250  1  0.50612070  0.74885190  0.87039382  1
  O  O251  1  0.23887000  0.11959007  0.49709201  1
  O  O252  1  0.25458188  0.13811687  1.00556217  1
  O  O253  1  0.24659703  0.62951273  0.49226166  1
  O  O254  1  0.24418674  0.62112174  0.98660165  1
  O  O255  1  0.74437588  0.13349378  0.49891620  1
  O  O256  1  0.74799619  0.13063823  0.99280689  1
  O  O257  1  0.75156561  0.63698697  0.50583556  1
  O  O258  1  0.75585990  0.63990881  0.99110039  1
  O  O259  1  0.25679891  0.36801422  0.00253439  1
  O  O260  1  0.24550983  0.37710842  0.51072422  1
  O  O261  1  0.21164611  0.86856888  0.01559384  1
  O  O262  1  0.25501769  0.86813250  0.50405062  1
  O  O263  1  0.75881124  0.36515378  0.00081936  1
  O  O264  1  0.75529074  0.37004027  0.50585634  1
  O  O265  1  0.74520136  0.86231195  0.00830354  1
  O  O266  1  0.74606923  0.86843479  0.51485120  1
  O  O267  1  0.12695932  0.48762375  0.24399082  1
  O  O268  1  0.12943828  0.49449267  0.73897057  1
  O  O269  1  0.13202328  0.99800280  0.24712150  1
  O  O270  1  0.12005789  1.00715011  0.73322660  1
  O  O271  1  0.63415569  0.49587214  0.24357435  1
  O  O272  1  0.62654190  0.49343711  0.74002202  1
  O  O273  1  0.62402701  0.98618443  0.25115854  1
  O  O274  1  0.62284296  0.99904153  0.73979829  1
  O  O275  1  0.36776721  0.00519218  0.25299958  1
  O  O276  1  0.38222136  0.00105509  0.76364162  1
  O  O277  1  0.37617894  0.51134241  0.25646582  1
  O  O278  1  0.37746664  0.50717100  0.75349690  1
  O  O279  1  0.87208062  0.01256148  0.26051962  1
  O  O280  1  0.87136518  0.00835265  0.76254795  1
  O  O281  1  0.86051586  0.49521939  0.25713232  1
  O  O282  1  0.87255343  0.51341948  0.75522356  1
  O  O283  1  0.11861300  0.37170276  0.36805811  1
  O  O284  1  0.12552840  0.37564243  0.86456696  1
  O  O285  1  0.11843185  0.87604144  0.36458651  1
  O  O286  1  0.11664024  0.86364760  0.87057236  1
  O  O287  1  0.62711031  0.37790815  0.36347517  1
  O  O288  1  0.61998141  0.37059823  0.86916067  1
  O  O289  1  0.61673681  0.87074623  0.37330586  1
  O  O290  1  0.61861038  0.86474336  0.87339038  1
  O  O291  1  0.38544642  0.12608186  0.13692020  1
  O  O292  1  0.38475306  0.13277655  0.62175241  1
  O  O293  1  0.38167162  0.63014889  0.13050134  1
  O  O294  1  0.36628366  0.63430918  0.63478822  1
  O  O295  1  0.88089347  0.12469901  0.13293063  1
  O  O296  1  0.87272961  0.11609623  0.64169605  1
  O  O297  1  0.88607910  0.62382677  0.12165233  1
  O  O298  1  0.88266287  0.63234375  0.63115690  1
  O  O299  1  0.24974940  0.25705706  0.11473290  1
  O  O300  1  0.25761649  0.26223048  0.62417768  1
  O  O301  1  0.26604384  0.74520098  0.12890610  1
  O  O302  1  0.25818433  0.75640498  0.62041847  1
  O  O303  1  0.74951705  0.24822080  0.11264396  1
  O  O304  1  0.74558640  0.25713528  0.61435338  1
  O  O305  1  0.75368199  0.75509621  0.10974720  1
  O  O306  1  0.75471854  0.75564293  0.61799672  1
  O  O307  1  0.23740269  0.25539739  0.37367516  1
  O  O308  1  0.25321956  0.23455140  0.88284328  1
  O  O309  1  0.25074481  0.73865194  0.37821870  1
  O  O310  1  0.23754006  0.74357032  0.87091822  1
  O  O311  1  0.74657579  0.24528797  0.38873742  1
  O  O312  1  0.74446190  0.24185523  0.88457621  1
  O  O313  1  0.74159571  0.75648818  0.39374865  1
  O  O314  1  0.74411607  0.74742373  0.88427076  1
  O  O315  1  -0.00782732  0.11795947  0.00942772  1
  O  O316  1  0.00709677  0.11574391  0.49985111  1
  O  O317  1  0.00623568  0.62259172  0.01204589  1
  O  O318  1  0.00459432  0.62164335  0.50929106  1
  O  O319  1  0.49747624  0.11938541  0.01009725  1
  O  O320  1  0.50386408  0.11886853  0.50790383  1
  O  O321  1  0.49690291  0.61979483  0.01417072  1
  O  O322  1  0.48914298  0.60308862  0.50835289  1
  O  O323  1  0.49772766  0.39639656  0.50873078  1
  O  O324  1  0.49170867  0.37414819  0.99443086  1
  O  O325  1  0.49272541  0.87990674  0.49765057  1
  O  O326  1  0.50097641  0.88741567  1.00295115  1
  O  O327  1  0.99353149  0.37899535  0.49543829  1
  O  O328  1  0.98656636  0.37028552  0.99739977  1
  O  O329  1  1.00929620  0.88934183  0.48729789  1
  O  O330  1  1.00782199  0.88225907  0.99260857  1
  O  O331  1  0.48986750  0.50278542  0.38055680  1
  O  O332  1  0.49524835  0.49379661  0.87656329  1
  O  O333  1  0.49294243  0.99338949  0.38175275  1
  O  O334  1  0.48737040  1.00130489  0.88586223  1
  O  O335  1  0.99553157  0.48952136  0.37891020  1
  O  O336  1  0.98812036  0.50073079  0.87090284  1
  O  O337  1  0.99248068  0.99772198  0.38096952  1
  O  O338  1  0.99520453  0.98866789  0.88002845  1
  O  O339  1  0.00311666  0.00528050  0.11781863  1
  O  O340  1  0.00994554  0.00343629  0.61657870  1
  O  O341  1  0.01132513  0.50454956  0.12889567  1
  O  O342  1  0.00560286  0.50879699  0.61718002  1
  O  O343  1  0.49737746  0.00506167  0.11658069  1
  O  O344  1  0.50209615  0.00639543  0.62338029  1
  O  O345  1  0.50747746  0.50965993  0.12433901  1
  O  O346  1  0.51658792  0.49868268  0.62287796  1
  O  O347  1  0.24143424  0.37612928  0.23853325  1
  O  O348  1  0.24061859  0.37665663  0.74195462  1
  O  O349  1  0.24171524  0.88252772  0.24330586  1
  O  O350  1  0.25232708  0.86948230  0.73859213  1
  O  O351  1  0.74132059  0.38042791  0.24763349  1
  O  O352  1  0.74575014  0.37550405  0.74313297  1
  O  O353  1  0.74235757  0.87668728  0.24485564  1
  O  O354  1  0.74547567  0.87567655  0.73774785  1
  O  O355  1  0.25946820  0.11717948  0.24457621  1
  O  O356  1  0.25303732  0.13005574  0.75538515  1
  O  O357  1  0.25624585  0.62329603  0.25628880  1
  O  O358  1  0.26208644  0.62294886  0.76010852  1
  O  O359  1  0.75486787  0.12356364  0.25730821  1
  O  O360  1  0.75636035  0.12148367  0.75807533  1
  O  O361  1  0.74780816  0.61213223  0.24690810  1
  O  O362  1  0.76006507  0.62613819  0.76144748  1
  O  O363  1  0.37895099  0.11705446  0.36235800  1
  O  O364  1  0.36091899  0.11275958  0.87781159  1
  O  O365  1  0.36898183  0.61932509  0.36644885  1
  O  O366  1  0.36891295  0.62015719  0.87012123  1
  O  O367  1  0.86942112  0.11955461  0.37083636  1
  O  O368  1  0.86358730  0.11720724  0.86941024  1
  O  O369  1  0.88392827  0.60911370  0.38184504  1
  O  O370  1  0.87258266  0.62249683  0.86905509  1
  O  O371  1  0.12621730  0.38077077  0.12892870  1
  O  O372  1  0.13661824  0.37896316  0.62803303  1
  O  O373  1  0.11216585  0.89127774  0.14170473  1
  O  O374  1  0.13227470  0.88993023  0.61964758  1
  O  O375  1  0.62747466  0.38411603  0.13504017  1
  O  O376  1  0.63634576  0.37967824  0.63005425  1
  O  O377  1  0.63259119  0.87342513  0.13624921  1
  O  O378  1  0.62863328  0.88300695  0.62806993  1
  O  O379  1  0.12307596  0.26029370  0.25619989  1
  O  O380  1  0.12589543  0.25881390  0.75356270  1
  O  O381  1  0.12094755  0.76066074  0.25155333  1
  O  O382  1  0.12287369  0.74013686  0.76357232  1
  O  O383  1  0.61848343  0.25945951  0.25268834  1
  O  O384  1  0.61690148  0.25641999  0.75602021  1
  O  O385  1  0.61717494  0.76291846  0.26474514  1
  O  O386  1  0.61637700  0.74833377  0.75920160  1
  O  O387  1  0.38080325  0.24303333  0.24790365  1
  O  O388  1  0.38502737  0.25557505  0.74159728  1
  O  O389  1  0.38178701  0.73801773  0.24806733  1
  O  O390  1  0.38039827  0.74330292  0.74490918  1
  O  O391  1  0.87445509  0.23841913  0.25122228  1
  O  O392  1  0.86997911  0.23325438  0.75603588  1
  O  O393  1  0.87489055  0.74989611  0.25730473  1
  O  O394  1  0.87142907  0.73911145  0.73978170  1
  O  O395  1  0.37878233  0.49866997  0.48388984  1
  O  O396  1  0.37577237  0.48819051  0.99394850  1
  O  O397  1  0.37806364  0.99492927  0.49576747  1
  O  O398  1  0.38560411  1.00195574  0.99582097  1
  O  O399  1  0.87764845  0.48913226  0.49429761  1
  O  O400  1  0.86843853  0.49011668  0.98972575  1
  O  O401  1  0.88493217  1.00693074  0.49309900  1
  O  O402  1  0.88333727  1.00193436  0.98642790  1
  O  O403  1  0.11315297  0.00455350  0.00983069  1
  O  O404  1  0.11977938  0.01146348  0.50169661  1
  O  O405  1  0.12751603  0.51069040  0.00551253  1
  O  O406  1  0.11908262  0.50649498  0.50405994  1
  O  O407  1  0.60713124  0.00410186  0.00013639  1
  O  O408  1  0.61783677  0.00422127  0.51230639  1
  O  O409  1  0.62763783  0.49358026  0.01426692  1
  O  O410  1  0.62023129  0.50199828  0.51175264  1
  O  O411  1  0.36839257  0.37583462  0.11680715  1
  O  O412  1  0.36099293  0.36980025  0.62722126  1
  O  O413  1  0.37655775  0.85501771  0.13034821  1
  O  O414  1  0.36697749  0.86815277  0.61943189  1
  O  O415  1  0.87202697  0.37270585  0.11665879  1
  O  O416  1  0.86154339  0.38412603  0.61847750  1
  O  O417  1  0.86277795  0.88143860  0.13163448  1
  O  O418  1  0.86885369  0.86692369  0.63078442  1
  O  O419  1  0.12183159  0.13356383  0.38538120  1
  O  O420  1  0.14391404  0.12156161  0.87134319  1
  O  O421  1  0.13360815  0.62301091  0.37862109  1
  O  O422  1  0.13144622  0.62685185  0.87699517  1
  O  O423  1  0.63100449  0.12502121  0.38412471  1
  O  O424  1  0.63518552  0.12848958  0.87415609  1
  O  O425  1  0.61943553  0.63705368  0.37165433  1
  O  O426  1  0.63731711  0.63127911  0.87061295  1
