# generated using pymatgen
data_V85Zn86O256
_symmetry_space_group_name_H-M   'P 1'
_cell_length_a   16.94895796
_cell_length_b   16.94439787
_cell_length_c   16.93828618
_cell_angle_alpha   90.00009610
_cell_angle_beta   89.99097416
_cell_angle_gamma   89.98299858
_symmetry_Int_Tables_number   1
_chemical_formula_structural   V85Zn86O256
_chemical_formula_sum   'V85 Zn86 O256'
_cell_volume   4864.50422104
_cell_formula_units_Z   1
loop_
 _symmetry_equiv_pos_site_id
 _symmetry_equiv_pos_as_xyz
  1  'x, y, z'
loop_
 _atom_site_type_symbol
 _atom_site_label
 _atom_site_symmetry_multiplicity
 _atom_site_fract_x
 _atom_site_fract_y
 _atom_site_fract_z
 _atom_site_occupancy
  V  V0  1  0.88434313  0.24585246  0.12871221  1
  V  V1  1  0.37358504  0.50003273  0.87524036  1
  V  V2  1  0.75057547  0.37204085  0.12255274  1
  V  V3  1  0.24866181  -0.01200084  0.74744592  1
  V  V4  1  0.01771350  0.00564043  0.00322523  1
  V  V5  1  0.37461780  0.12754760  0.25712012  1
  V  V6  1  -0.00066963  0.62734579  0.62524647  1
  V  V7  1  0.74944484  0.00480416  0.24815222  1
  V  V8  1  0.50684444  0.73601756  0.24881766  1
  V  V9  1  -0.00013040  0.49763565  0.49946424  1
  V  V10  1  0.24758940  0.12964128  0.87447208  1
  V  V11  1  0.24850484  0.62523151  0.87397493  1
  V  V12  1  0.25026218  0.75731202  0.50357672  1
  V  V13  1  0.19510834  0.19453993  0.04162091  1
  V  V14  1  0.75107263  0.63148846  0.36691459  1
  V  V15  1  0.12773595  0.74915176  0.37383373  1
  V  V16  1  0.74803434  0.62149703  0.87051851  1
  V  V17  1  -0.00369579  0.74701944  0.25041721  1
  V  V18  1  0.50591696  0.87411008  0.36974306  1
  V  V19  1  0.50741521  0.11825269  0.62475091  1
  V  V20  1  0.50188558  0.12465170  0.13186068  1
  V  V21  1  0.11735201  0.24490747  0.37646535  1
  V  V22  1  0.37500857  0.25160999  0.62539573  1
  V  V23  1  0.26003369  0.50639202  0.25643605  1
  V  V24  1  0.12416994  0.50251087  0.12665832  1
  V  V25  1  0.38103058  0.00172986  0.87966128  1
  V  V26  1  0.37574995  0.75558928  0.62857785  1
  V  V27  1  0.62932225  0.38039026  0.74812966  1
  V  V28  1  0.60137932  0.16186083  0.47760989  1
  V  V29  1  0.61822974  0.12482191  -0.00075107  1
  V  V30  1  -0.00147106  0.87614833  0.37640144  1
  V  V31  1  0.12575527  0.12159981  0.50541723  1
  V  V32  1  0.87651693  0.50395682  0.37183101  1
  V  V33  1  0.51246091  -0.00652867  0.50336833  1
  V  V34  1  0.37810787  0.73701657  0.13351598  1
  V  V35  1  0.87555562  0.74996572  0.12442372  1
  V  V36  1  0.00053976  0.76294060  0.74780741  1
  V  V37  1  0.75544151  0.50109197  0.24777868  1
  V  V38  1  0.75060037  0.87647004  0.12345197  1
  V  V39  1  0.44120711  0.54476573  0.44070149  1
  V  V40  1  0.74739780  0.00358492  0.74339827  1
  V  V41  1  0.12530323  0.88219733  0.24638833  1
  V  V42  1  0.62908832  0.50003579  0.62437832  1
  V  V43  1  0.75043686  0.74978009  -0.00192140  1
  V  V44  1  0.87446705  0.49606678  0.87148182  1
  V  V45  1  0.37494393  0.12384236  0.74977453  1
  V  V46  1  0.24774316  0.24542193  0.49545970  1
  V  V47  1  0.87433875  0.00125766  0.37349522  1
  V  V48  1  0.38375114  0.87608031  0.00539257  1
  V  V49  1  0.37358219  0.36912941  0.00025197  1
  V  V50  1  -0.00697299  0.62512822  0.12716947  1
  V  V51  1  0.75591002  0.12312318  0.87496496  1
  V  V52  1  0.87185553  0.62398694  0.74784129  1
  V  V53  1  0.62100291  0.74872199  0.87064620  1
  V  V54  1  0.24734271  0.37557068  0.62801446  1
  V  V55  1  0.50027327  0.87225794  0.87381048  1
  V  V56  1  0.76232441  0.25076650  0.52189556  1
  V  V57  1  0.62238600  0.50215617  0.12561821  1
  V  V58  1  0.37785773  0.62782555  0.75131860  1
  V  V59  1  0.11832758  0.37466730  0.25385593  1
  V  V60  1  -0.00161282  0.49757195  -0.00658667  1
  V  V61  1  0.25104852  0.75019608  0.00252941  1
  V  V62  1  0.61980186  -0.00183060  0.12057875  1
  V  V63  1  0.62788767  0.61783107  0.49177449  1
  V  V64  1  0.62338914  0.24996349  0.87556501  1
  V  V65  1  0.37052480  -0.00025098  0.37817733  1
  V  V66  1  0.12829673  -0.01971897  0.62838087  1
  V  V67  1  0.24863388  0.37533881  0.12362174  1
  V  V68  1  0.87828695  0.88020068  -0.00514525  1
  V  V69  1  0.49989296  0.25073019  0.74819938  1
  V  V70  1  0.62170233  0.87520546  0.74222313  1
  V  V71  1  0.38278977  0.25137459  0.13009621  1
  V  V72  1  0.11680449  0.25182115  0.86891318  1
  V  V73  1  0.12518933  0.75853171  0.86898968  1
  V  V74  1  0.38252119  0.37403946  0.48834382  1
  V  V75  1  -0.01709737  0.25062330  0.74084201  1
  V  V76  1  0.49915549  0.37532014  0.87504095  1
  V  V77  1  0.25040665  0.88040101  0.12731806  1
  V  V78  1  0.49871360  0.50654633  0.00514301  1
  V  V79  1  0.74562960  0.74962740  0.49924893  1
  V  V80  1  0.12723428  0.62443450  0.49721905  1
  V  V81  1  0.61628225  0.36260463  0.26149090  1
  V  V82  1  0.12354806  0.62759138  -0.00041428  1
  V  V83  1  0.74937948  0.13826770  0.37406638  1
  V  V84  1  0.49974044  0.62077111  0.62905066  1
  Zn  Zn85  1  0.37430468  0.87886644  0.50572200  1
  Zn  Zn86  1  0.87085541  0.75674851  0.62551356  1
  Zn  Zn87  1  0.87980583  0.00650402  0.87457111  1
  Zn  Zn88  1  0.89098505  0.13118940  0.25167464  1
  Zn  Zn89  1  0.12505767  0.49973006  0.62869309  1
  Zn  Zn90  1  0.62585402  0.87082639  0.24949024  1
  Zn  Zn91  1  0.76182310  0.38435763  0.63353547  1
  Zn  Zn92  1  0.02096509  0.12187779  0.12668236  1
  Zn  Zn93  1  0.75222422  0.24905638  -0.00030733  1
  Zn  Zn94  1  0.74506462  0.87797334  0.62012440  1
  Zn  Zn95  1  0.62140367  0.62667476  0.00211410  1
  Zn  Zn96  1  0.26464235  0.62397554  0.37424252  1
  Zn  Zn97  1  0.00544737  0.88425781  0.86869304  1
  Zn  Zn98  1  -0.00983198  0.12757833  0.62748837  1
  Zn  Zn99  1  -0.00446450  0.37196422  0.37071234  1
  Zn  Zn100  1  0.87930148  0.37133829  0.50358287  1
  Zn  Zn101  1  0.24618927  0.49980793  0.75065785  1
  Zn  Zn102  1  0.24929481  0.00228708  0.25357118  1
  Zn  Zn103  1  0.11768002  0.37950715  0.75454402  1
  Zn  Zn104  1  0.86884633  0.87277478  0.49882122  1
  Zn  Zn105  1  0.87673632  0.37199344  -0.00450239  1
  Zn  Zn106  1  -0.00553225  0.00139897  0.50484193  1
  Zn  Zn107  1  0.19293791  0.18960206  0.20672900  1
  Zn  Zn108  1  0.18598421  0.18371284  0.68797334  1
  Zn  Zn109  1  0.18689284  0.68925854  0.18888605  1
  Zn  Zn110  1  0.18789016  0.68967811  0.68703803  1
  Zn  Zn111  1  0.69124339  0.18909163  0.18725521  1
  Zn  Zn112  1  0.68387771  0.18547762  0.68597502  1
  Zn  Zn113  1  0.68734688  0.68464647  0.18495078  1
  Zn  Zn114  1  0.68549259  0.68823893  0.68621100  1
  Zn  Zn115  1  0.30649159  0.31242849  0.31162652  1
  Zn  Zn116  1  0.30810089  0.31049630  0.81363464  1
  Zn  Zn117  1  0.31618971  0.81255996  0.31421703  1
  Zn  Zn118  1  0.31607056  0.80976752  0.81381854  1
  Zn  Zn119  1  0.81370772  0.31783043  0.30913717  1
  Zn  Zn120  1  0.80898621  0.31133257  0.81331925  1
  Zn  Zn121  1  0.81220980  0.81356522  0.30993843  1
  Zn  Zn122  1  0.81102445  0.81417071  0.80965968  1
  Zn  Zn123  1  0.18958602  0.43503607  0.43816561  1
  Zn  Zn124  1  0.18646088  0.43593257  0.93856658  1
  Zn  Zn125  1  0.18643870  0.93697508  0.43782590  1
  Zn  Zn126  1  0.19540269  0.93716082  0.93576818  1
  Zn  Zn127  1  0.69141390  0.43406531  0.43864170  1
  Zn  Zn128  1  0.68761115  0.43876381  0.93721534  1
  Zn  Zn129  1  0.68671774  0.94027415  0.43299683  1
  Zn  Zn130  1  0.68582699  0.93893686  0.93747784  1
  Zn  Zn131  1  0.32072096  0.05713865  0.06721566  1
  Zn  Zn132  1  0.31290637  0.06105178  0.56302614  1
  Zn  Zn133  1  0.31083098  0.55930664  0.06278778  1
  Zn  Zn134  1  0.30560059  0.56621205  0.56731909  1
  Zn  Zn135  1  0.81210415  0.06443449  0.05896540  1
  Zn  Zn136  1  0.80471120  0.06593772  0.55887690  1
  Zn  Zn137  1  0.81107645  0.56312849  0.05937625  1
  Zn  Zn138  1  0.81383017  0.55995439  0.56211619  1
  Zn  Zn139  1  0.44083408  0.43651547  0.19187594  1
  Zn  Zn140  1  0.43870691  0.43989085  0.68450650  1
  Zn  Zn141  1  0.43861295  0.93779047  0.19032092  1
  Zn  Zn142  1  0.43965044  0.93801778  0.69180254  1
  Zn  Zn143  1  0.93523674  0.43643696  0.18382267  1
  Zn  Zn144  1  0.94122084  0.43509086  0.69051188  1
  Zn  Zn145  1  0.93915598  0.94238277  0.18479388  1
  Zn  Zn146  1  0.91522162  0.96652856  0.66717842  1
  Zn  Zn147  1  0.06338513  0.06555536  0.31489666  1
  Zn  Zn148  1  0.06320183  0.06725008  0.81066210  1
  Zn  Zn149  1  0.06494288  0.56207702  0.31177064  1
  Zn  Zn150  1  0.06153969  0.56628122  0.81031605  1
  Zn  Zn151  1  0.56095102  0.06076713  0.31168188  1
  Zn  Zn152  1  0.56337127  0.05925165  0.81291365  1
  Zn  Zn153  1  0.57064976  0.55733939  0.30756451  1
  Zn  Zn154  1  0.56041960  0.56167201  0.81193259  1
  Zn  Zn155  1  0.43147624  0.18523171  0.43964950  1
  Zn  Zn156  1  0.43813477  0.18704907  0.94146095  1
  Zn  Zn157  1  0.44280991  0.70699396  0.43990186  1
  Zn  Zn158  1  0.43711479  0.68966330  0.93939581  1
  Zn  Zn159  1  0.93984519  0.18282280  0.43935531  1
  Zn  Zn160  1  0.94070008  0.18680019  0.94421473  1
  Zn  Zn161  1  0.93314131  0.68569538  0.43628954  1
  Zn  Zn162  1  0.93772049  0.68837182  0.93459822  1
  Zn  Zn163  1  0.05769562  0.31820615  0.06369739  1
  Zn  Zn164  1  0.06081049  0.31182124  0.56649966  1
  Zn  Zn165  1  0.06270556  0.81734523  0.06041314  1
  Zn  Zn166  1  0.06047986  0.81288539  0.56136315  1
  Zn  Zn167  1  0.56343486  0.31508666  0.06542593  1
  Zn  Zn168  1  0.56135804  0.31570014  0.55488068  1
  Zn  Zn169  1  0.56170604  0.80949250  0.06330822  1
  Zn  Zn170  1  0.56193361  0.80396023  0.55882110  1
  O  O171  1  0.14066270  0.14208869  0.11410470  1
  O  O172  1  0.12376382  0.12150449  0.61432338  1
  O  O173  1  0.11660492  0.62321973  0.11885115  1
  O  O174  1  0.11799280  0.62675709  0.61298054  1
  O  O175  1  0.61923514  0.12099200  0.12068718  1
  O  O176  1  0.60853664  0.13716191  0.60881965  1
  O  O177  1  0.63125393  0.60754120  0.12019225  1
  O  O178  1  0.61647801  0.61982798  0.61874851  1
  O  O179  1  0.37146771  0.36801912  0.38923068  1
  O  O180  1  0.37623482  0.37828151  0.88352833  1
  O  O181  1  0.38727146  0.88186881  0.37671371  1
  O  O182  1  0.38210789  0.87901802  0.88283756  1
  O  O183  1  0.87712412  0.38855177  0.37793449  1
  O  O184  1  0.86406065  0.39251696  0.87490838  1
  O  O185  1  0.88282961  0.88129418  0.37292097  1
  O  O186  1  0.87663201  0.87191211  0.88784332  1
  O  O187  1  0.26633953  -0.00798824  0.37564019  1
  O  O188  1  0.25947181  0.00964609  0.87000699  1
  O  O189  1  0.24769786  0.50129676  0.36097377  1
  O  O190  1  0.25690156  0.50746149  0.87713413  1
  O  O191  1  0.75515606  0.00743131  0.36537258  1
  O  O192  1  0.74645771  0.00965679  0.87021908  1
  O  O193  1  0.75769187  0.50631036  0.36692975  1
  O  O194  1  0.75528009  0.51491369  0.87978320  1
  O  O195  1  0.24310985  0.49405804  0.13236492  1
  O  O196  1  0.24711989  0.49012281  0.62710006  1
  O  O197  1  0.25739878  0.98411676  0.12988912  1
  O  O198  1  0.24194315  1.00374579  0.63514695  1
  O  O199  1  0.74775539  0.49378407  0.12987603  1
  O  O200  1  0.73380998  0.50465525  0.62403663  1
  O  O201  1  0.74448852  0.99754027  0.13086358  1
  O  O202  1  0.73982399  0.99970365  0.63988110  1
  O  O203  1  0.01438404  0.38228964  0.24874409  1
  O  O204  1  0.00240697  0.35803551  0.75102206  1
  O  O205  1  0.00655450  0.87039599  0.25673434  1
  O  O206  1  -0.00771530  0.86328751  0.75025239  1
  O  O207  1  0.51646750  0.37604463  0.24871998  1
  O  O208  1  0.50481325  0.37000173  0.75541660  1
  O  O209  1  0.50215433  0.86712568  0.25507522  1
  O  O210  1  0.50601758  0.87788213  0.76532944  1
  O  O211  1  0.49261856  0.12489617  0.24005814  1
  O  O212  1  0.49593405  0.12801099  0.74269229  1
  O  O213  1  0.50509011  0.63705646  0.25362664  1
  O  O214  1  0.49084308  0.62347959  0.74215200  1
  O  O215  1  1.00300715  0.11724350  0.23804091  1
  O  O216  1  1.00756081  0.14536933  0.74789360  1
  O  O217  1  1.00717716  0.63512181  0.23987209  1
  O  O218  1  0.99391119  0.63365406  0.73974852  1
  O  O219  1  0.37859422  0.26288350  0.00767831  1
  O  O220  1  0.36697821  0.25793045  0.50635569  1
  O  O221  1  0.37124922  0.75613054  0.01081528  1
  O  O222  1  0.36697582  0.75246314  0.50988200  1
  O  O223  1  0.87263731  0.25399959  0.00897770  1
  O  O224  1  0.86457427  0.24926970  0.49648592  1
  O  O225  1  0.87140820  0.75659035  0.00516815  1
  O  O226  1  0.85917822  0.74888398  0.49864455  1
  O  O227  1  0.13064448  0.24385039  0.49776755  1
  O  O228  1  0.12595328  0.25545283  0.99133993  1
  O  O229  1  0.13120484  0.74448285  0.49493892  1
  O  O230  1  0.13154282  0.74616496  0.99434810  1
  O  O231  1  0.65012453  0.25377015  0.51308552  1
  O  O232  1  0.62459762  0.24377884  0.99393733  1
  O  O233  1  0.63336785  0.73150228  0.50072181  1
  O  O234  1  0.63065922  0.74799266  0.99098904  1
  O  O235  1  0.48855766  0.24475828  0.12289705  1
  O  O236  1  0.49089364  0.24528948  0.62793149  1
  O  O237  1  0.48818835  0.75143185  0.13484694  1
  O  O238  1  0.48925966  0.73067958  0.61330175  1
  O  O239  1  0.98764868  0.24672908  0.11918561  1
  O  O240  1  0.99478295  0.24794902  0.63521215  1
  O  O241  1  0.99700644  0.74468779  0.13017491  1
  O  O242  1  0.99763524  0.74230803  0.62900659  1
  O  O243  1  0.01233523  0.25398578  0.38236348  1
  O  O244  1  0.01358279  0.24557826  0.87219978  1
  O  O245  1  0.00258909  0.75502966  0.36728550  1
  O  O246  1  0.00918561  0.75101127  0.86614234  1
  O  O247  1  0.53273886  0.23314553  0.43713312  1
  O  O248  1  0.50341975  0.25550270  0.86978727  1
  O  O249  1  0.49777893  0.75871452  0.35790731  1
  O  O250  1  0.50819694  0.75856573  0.87985686  1
  O  O251  1  0.24603784  0.13846611  0.50622219  1
  O  O252  1  0.25756427  0.12410709  0.99435846  1
  O  O253  1  0.24191868  0.63194582  0.49577641  1
  O  O254  1  0.24518743  0.63062273  0.99466198  1
  O  O255  1  0.74288561  0.13881878  0.49336122  1
  O  O256  1  0.73523989  0.12611908  0.99273711  1
  O  O257  1  0.74399481  0.62793671  0.49010031  1
  O  O258  1  0.74851073  0.63425691  0.99097596  1
  O  O259  1  0.25876797  0.38365573  0.01520502  1
  O  O260  1  0.25714880  0.36795877  0.51070140  1
  O  O261  1  0.26100050  0.86828756  0.00704373  1
  O  O262  1  0.25277068  0.86072535  0.49575133  1
  O  O263  1  0.75083695  0.37615535  0.01161911  1
  O  O264  1  0.75439111  0.35978335  0.50496768  1
  O  O265  1  0.75680904  0.86975768  0.00398185  1
  O  O266  1  0.74168522  0.86280476  0.49660739  1
  O  O267  1  0.13290349  0.49409806  0.24361172  1
  O  O268  1  0.12690033  0.49722247  0.74912967  1
  O  O269  1  0.13013659  0.98533754  0.25865661  1
  O  O270  1  0.13451966  1.00291160  0.73797688  1
  O  O271  1  0.63734547  0.49153407  0.24120903  1
  O  O272  1  0.61741381  0.49054439  0.74137738  1
  O  O273  1  0.63194381  1.00016603  0.23760480  1
  O  O274  1  0.63294499  0.98622936  0.75823159  1
  O  O275  1  0.37742242  0.00782547  0.26023631  1
  O  O276  1  0.36971604  0.00635473  0.75747366  1
  O  O277  1  0.35834070  0.49607373  0.24388302  1
  O  O278  1  0.37371387  0.50993733  0.75699259  1
  O  O279  1  0.86657350  0.00046432  0.25653042  1
  O  O280  1  0.84967119  -0.01114853  0.76237826  1
  O  O281  1  0.86368751  0.49577942  0.25345675  1
  O  O282  1  0.88341710  0.51570858  0.75806695  1
  O  O283  1  0.12246901  0.36963701  0.36858189  1
  O  O284  1  0.13710089  0.35637262  0.87329984  1
  O  O285  1  0.11769242  0.86819958  0.36921748  1
  O  O286  1  0.12698565  0.86188268  0.87867932  1
  O  O287  1  0.63327167  0.37736306  0.35987167  1
  O  O288  1  0.61912356  0.37154325  0.86809343  1
  O  O289  1  0.61079679  0.88138487  0.36893786  1
  O  O290  1  0.61669088  0.86795977  0.87312165  1
  O  O291  1  0.38413600  0.13141515  0.13043313  1
  O  O292  1  0.38289855  0.13554231  0.62763841  1
  O  O293  1  0.37103199  0.63906977  0.12080426  1
  O  O294  1  0.38016169  0.62736285  0.63349382  1
  O  O295  1  0.86861178  0.14039042  0.12555784  1
  O  O296  1  0.88993881  0.07506650  0.62783670  1
  O  O297  1  0.88684552  0.63065533  0.12001014  1
  O  O298  1  0.88186351  0.62725833  0.63154353  1
  O  O299  1  0.25502379  0.25457506  0.11728241  1
  O  O300  1  0.25789200  0.25485395  0.62050823  1
  O  O301  1  0.26201728  0.75679130  0.12466280  1
  O  O302  1  0.26205495  0.74163549  0.61616225  1
  O  O303  1  0.75711805  0.25853021  0.12117759  1
  O  O304  1  0.76164440  0.24570180  0.62324701  1
  O  O305  1  0.75549962  0.75486014  0.11924888  1
  O  O306  1  0.74914051  0.75072499  0.61299145  1
  O  O307  1  0.23713909  0.25670637  0.38767250  1
  O  O308  1  0.24671896  0.23676459  0.87755619  1
  O  O309  1  0.24790999  0.74370225  0.38100976  1
  O  O310  1  0.24474588  0.74417952  0.88035291  1
  O  O311  1  0.75633034  0.23924083  0.37354925  1
  O  O312  1  0.73930399  0.24144302  0.87564660  1
  O  O313  1  0.75403498  0.73751349  0.37564835  1
  O  O314  1  0.74322331  0.74263114  0.87976250  1
  O  O315  1  0.00202951  0.11024906  0.00612625  1
  O  O316  1  0.01007437  0.11905669  0.50490899  1
  O  O317  1  0.00452217  0.61970698  0.00692013  1
  O  O318  1  0.00561028  0.62038058  0.50536247  1
  O  O319  1  0.51034003  0.12857592  0.01253818  1
  O  O320  1  0.49950996  0.11007445  0.50819506  1
  O  O321  1  0.49929224  0.61052162  -0.00445496  1
  O  O322  1  0.50237822  0.61475727  0.49738732  1
  O  O323  1  0.48094101  0.37983811  0.50475872  1
  O  O324  1  0.49225907  0.38251885  0.99519877  1
  O  O325  1  0.49921712  0.87654788  0.49202453  1
  O  O326  1  0.49021142  0.87042105  0.99277276  1
  O  O327  1  1.00365250  0.38964556  0.49838386  1
  O  O328  1  0.99746017  0.39337009  1.00235231  1
  O  O329  1  0.99836539  0.87546570  0.48574433  1
  O  O330  1  0.99421811  0.88504150  0.99577796  1
  O  O331  1  0.49648305  0.49663830  0.37444708  1
  O  O332  1  0.49260345  0.49340864  0.88215808  1
  O  O333  1  0.49285285  0.99362000  0.38286722  1
  O  O334  1  0.48736834  0.99354005  0.87377537  1
  O  O335  1  0.99336358  0.50213179  0.38073738  1
  O  O336  1  0.98867108  0.51166568  0.88337092  1
  O  O337  1  0.99167653  0.99169615  0.37604749  1
  O  O338  1  0.99966957  1.00157255  0.88353423  1
  O  O339  1  0.00296040  -0.00219905  0.10842212  1
  O  O340  1  0.02260769  -0.00929344  0.62302201  1
  O  O341  1  0.00395700  0.50943056  0.12003835  1
  O  O342  1  0.00343479  0.51391508  0.61713946  1
  O  O343  1  0.50803680  0.00967919  0.12839443  1
  O  O344  1  0.49508437  0.00735169  0.61820803  1
  O  O345  1  0.50895627  0.49381423  0.11710197  1
  O  O346  1  0.50769503  0.51186615  0.62415969  1
  O  O347  1  0.24215986  0.38302373  0.24044099  1
  O  O348  1  0.25339269  0.37581710  0.73721656  1
  O  O349  1  0.24321835  0.87189825  0.24390769  1
  O  O350  1  0.25615718  0.88914417  0.75834087  1
  O  O351  1  0.74543181  0.38223374  0.23795998  1
  O  O352  1  0.73349315  0.36986723  0.74847266  1
  O  O353  1  0.74749457  0.88563086  0.24317338  1
  O  O354  1  0.73727976  0.88188191  0.74977623  1
  O  O355  1  0.26837367  0.11810694  0.24779185  1
  O  O356  1  0.25767353  0.11937781  0.75845960  1
  O  O357  1  0.24582690  0.61162565  0.25285667  1
  O  O358  1  0.25696491  0.62365449  0.75827943  1
  O  O359  1  0.75079155  0.11551132  0.25581908  1
  O  O360  1  0.73505205  0.11134173  0.75915305  1
  O  O361  1  0.74616175  0.61563952  0.25607036  1
  O  O362  1  0.75854868  0.63141435  0.75810740  1
  O  O363  1  0.38140148  0.11650851  0.36767280  1
  O  O364  1  0.37236499  0.11814205  0.87294855  1
  O  O365  1  0.38501310  0.61406220  0.39003337  1
  O  O366  1  0.37019456  0.62243474  0.86972208  1
  O  O367  1  0.86846430  0.11784204  0.37090834  1
  O  O368  1  0.85868967  0.12691560  0.88322888  1
  O  O369  1  0.86677429  0.61356732  0.37295549  1
  O  O370  1  0.86657315  0.62101499  0.86811266  1
  O  O371  1  0.13204514  0.37943128  0.13060364  1
  O  O372  1  0.13492094  0.37607830  0.62759739  1
  O  O373  1  0.13693797  0.86573229  0.13483386  1
  O  O374  1  0.13307264  0.88160298  0.62104085  1
  O  O375  1  0.63347323  0.38359478  0.12878535  1
  O  O376  1  0.62306354  0.38431931  0.63136337  1
  O  O377  1  0.63123135  0.88311729  0.12238306  1
  O  O378  1  0.61881153  0.86485305  0.63959307  1
  O  O379  1  0.13083787  0.26107395  0.26432149  1
  O  O380  1  0.12650126  0.25279505  0.76173875  1
  O  O381  1  0.11577912  0.75765045  0.25534973  1
  O  O382  1  0.11547771  0.74457329  0.75798228  1
  O  O383  1  0.62895660  0.26349151  0.24559307  1
  O  O384  1  0.61651804  0.25575138  0.75418132  1
  O  O385  1  0.61068881  0.75224442  0.23838744  1
  O  O386  1  0.62892681  0.75738491  0.76399738  1
  O  O387  1  0.36830912  0.24335636  0.24145601  1
  O  O388  1  0.37955671  0.24444995  0.74343701  1
  O  O389  1  0.38386629  0.74993631  0.23927787  1
  O  O390  1  0.37158688  0.73682706  0.74443738  1
  O  O391  1  0.87262398  0.25117761  0.23370099  1
  O  O392  1  0.88478644  0.24910163  0.75626112  1
  O  O393  1  0.88899932  0.75666596  0.24162724  1
  O  O394  1  0.88226757  0.74025474  0.74979011  1
  O  O395  1  0.37136585  0.49108683  0.49900398  1
  O  O396  1  0.38063980  0.49005786  0.99807530  1
  O  O397  1  0.38281066  0.99743492  0.49506322  1
  O  O398  1  0.37232348  0.98820122  0.99187888  1
  O  O399  1  0.88568123  0.50531824  0.48903435  1
  O  O400  1  0.88242611  0.50215888  0.99072677  1
  O  O401  1  0.86930730  0.99519735  0.48156478  1
  O  O402  1  0.87855122  0.99275046  0.99635687  1
  O  O403  1  0.11641784  -0.00544957  -0.00358397  1
  O  O404  1  0.13102967  0.00482501  0.51190827  1
  O  O405  1  0.11805950  0.50653722  0.00496723  1
  O  O406  1  0.11879031  0.50888139  0.49928094  1
  O  O407  1  0.62718470  0.00803379  0.01249942  1
  O  O408  1  0.61280810  0.00227095  0.49787562  1
  O  O409  1  0.61488030  0.49903094  0.00602698  1
  O  O410  1  0.62921079  0.50866720  0.50607815  1
  O  O411  1  0.36927159  0.36731457  0.12269196  1
  O  O412  1  0.37067942  0.36539599  0.62001228  1
  O  O413  1  0.37204000  0.86758746  0.11990457  1
  O  O414  1  0.38392455  0.85898652  0.62878116  1
  O  O415  1  0.86862251  0.36526626  0.12191221  1
  O  O416  1  0.87172113  0.39465434  0.61532800  1
  O  O417  1  0.87041367  0.87132250  0.11428834  1
  O  O418  1  0.86600563  0.87499099  0.61686325  1
  O  O419  1  0.12468471  0.13158949  0.38973712  1
  O  O420  1  0.13551925  0.13783096  0.87573099  1
  O  O421  1  0.12294216  0.63172483  0.38599173  1
  O  O422  1  0.13006829  0.63463685  0.88117420  1
  O  O423  1  0.63384498  0.11919284  0.38210614  1
  O  O424  1  0.62385789  0.12994406  0.88398829  1
  O  O425  1  0.63709880  0.61689765  0.38083764  1
  O  O426  1  0.63052784  0.63104488  0.87480588  1
