# generated using pymatgen
data_V85Zn86O256
_symmetry_space_group_name_H-M   'P 1'
_cell_length_a   16.93300135
_cell_length_b   16.92275398
_cell_length_c   16.93026255
_cell_angle_alpha   89.97480287
_cell_angle_beta   90.01187507
_cell_angle_gamma   89.95395804
_symmetry_Int_Tables_number   1
_chemical_formula_structural   V85Zn86O256
_chemical_formula_sum   'V85 Zn86 O256'
_cell_volume   4851.41565537
_cell_formula_units_Z   1
loop_
 _symmetry_equiv_pos_site_id
 _symmetry_equiv_pos_as_xyz
  1  'x, y, z'
loop_
 _atom_site_type_symbol
 _atom_site_label
 _atom_site_symmetry_multiplicity
 _atom_site_fract_x
 _atom_site_fract_y
 _atom_site_fract_z
 _atom_site_occupancy
  V  V0  1  0.62233859  0.63739330  -0.00943245  1
  V  V1  1  0.12722326  0.62507642  0.00073733  1
  V  V2  1  0.12411771  0.25541744  0.37659811  1
  V  V3  1  0.37925376  0.12077422  0.24241671  1
  V  V4  1  -0.01033866  0.49868842  -0.00456962  1
  V  V5  1  0.23490645  0.37773946  0.62201783  1
  V  V6  1  0.00149922  0.12466904  0.62880768  1
  V  V7  1  0.86852712  0.13149812  0.74745457  1
  V  V8  1  0.87567865  0.87559252  0.50101823  1
  V  V9  1  0.25081092  0.00063289  0.75155299  1
  V  V10  1  0.37420861  -0.00339298  0.87851055  1
  V  V11  1  -0.00060108  0.11671814  0.12283293  1
  V  V12  1  0.25614030  0.25153862  0.49698586  1
  V  V13  1  0.87287811  0.25278162  0.12012541  1
  V  V14  1  0.62442447  0.87737528  0.25129460  1
  V  V15  1  0.74484902  0.87476695  0.12207340  1
  V  V16  1  0.50166925  0.87764692  0.38321363  1
  V  V17  1  0.25185791  0.87357381  0.62708216  1
  V  V18  1  0.61959031  0.12236005  0.49266354  1
  V  V19  1  0.74149347  0.25482670  0.49239559  1
  V  V20  1  0.50465418  0.74636972  0.75529177  1
  V  V21  1  0.12244415  0.74662823  0.37634861  1
  V  V22  1  0.50733104  0.62457805  0.61890819  1
  V  V23  1  0.49783057  0.00632488  0.00410142  1
  V  V24  1  0.11974263  0.12178548  -0.00260646  1
  V  V25  1  0.62816819  0.87387222  0.75617546  1
  V  V26  1  0.74925258  0.49863638  0.24951100  1
  V  V27  1  0.37549039  0.62240686  0.25230986  1
  V  V28  1  0.62661470  0.13038436  -0.02124376  1
  V  V29  1  0.90393683  0.26962480  0.59895081  1
  V  V30  1  0.61959391  0.37069672  0.25745479  1
  V  V31  1  0.87554774  0.00566824  0.37483471  1
  V  V32  1  0.24638811  0.13086344  0.87363611  1
  V  V33  1  0.75142737  0.36897550  0.62791405  1
  V  V34  1  0.50430555  0.36539073  0.87359020  1
  V  V35  1  0.37120368  0.37942400  -0.00542054  1
  V  V36  1  0.25907030  0.62063219  0.87632624  1
  V  V37  1  0.00192547  0.25792911  0.24888476  1
  V  V38  1  0.61862164  -0.00050517  0.62012747  1
  V  V39  1  0.38502036  0.24759973  0.12285031  1
  V  V40  1  0.00072206  0.00425895  0.49901562  1
  V  V41  1  0.25470661  0.76404467  0.00549279  1
  V  V42  1  0.25077295  0.49775864  0.25044000  1
  V  V43  1  0.62503431  0.74663965  0.37872619  1
  V  V44  1  0.14027636  0.87874558  0.24869446  1
  V  V45  1  0.49831024  0.62400209  0.12707682  1
  V  V46  1  0.37749851  0.49096575  0.38320265  1
  V  V47  1  0.74849316  0.25003480  -0.01987260  1
  V  V48  1  -0.00285198  0.62663247  0.12401850  1
  V  V49  1  0.01763411  0.24977823  0.75897267  1
  V  V50  1  0.50189284  0.48994483  0.50524125  1
  V  V51  1  0.74634347  0.62268950  0.37945479  1
  V  V52  1  0.37139707  -0.00224455  0.37002195  1
  V  V53  1  0.87554044  0.12792393  0.25194543  1
  V  V54  1  0.88226562  0.87854574  0.00039502  1
  V  V55  1  0.24393806  0.25059223  0.00106379  1
  V  V56  1  0.62196094  0.01473470  0.12560103  1
  V  V57  1  0.10499514  0.60589121  0.51421402  1
  V  V58  1  0.00051597  0.87792290  0.37031926  1
  V  V59  1  0.74932250  0.00238246  0.25093188  1
  V  V60  1  0.25022687  0.12190858  0.36839737  1
  V  V61  1  0.50019672  0.87480642  0.87812340  1
  V  V62  1  0.87353322  0.01001848  0.88031963  1
  V  V63  1  0.76228033  0.62686619  0.87180896  1
  V  V64  1  0.49558425  0.50276416  -0.01274642  1
  V  V65  1  0.12246023  0.87477126  0.75206439  1
  V  V66  1  0.24912819  0.74477396  0.50290089  1
  V  V67  1  0.37684586  0.87925458  0.50279871  1
  V  V68  1  0.24574695  0.48806253  0.75747148  1
  V  V69  1  0.00793324  0.37895033  0.86665628  1
  V  V70  1  0.12639179  -0.00022413  0.62456108  1
  V  V71  1  0.12426895  0.49751601  0.12476130  1
  V  V72  1  0.75190350  0.87808497  0.62644382  1
  V  V73  1  0.62436810  0.49881443  0.12162061  1
  V  V74  1  0.12334365  0.74886817  0.87555514  1
  V  V75  1  0.37623982  0.74631851  0.62777516  1
  V  V76  1  0.14016047  -0.00334176  0.12633162  1
  V  V77  1  0.87384778  0.62655568  0.25113547  1
  V  V78  1  0.37749111  0.26127056  0.62484168  1
  V  V79  1  0.63136659  0.49992737  0.62692591  1
  V  V80  1  0.88506967  0.48519152  0.38344661  1
  V  V81  1  0.74724143  0.74625436  0.50293676  1
  V  V82  1  0.24890052  0.62179597  0.38047133  1
  V  V83  1  0.49397778  0.12082944  0.62053213  1
  V  V84  1  0.49940857  0.74787749  0.25403435  1
  Zn  Zn85  1  0.25011579  0.37328304  0.12569319  1
  Zn  Zn86  1  0.12633660  0.12583932  0.49770440  1
  Zn  Zn87  1  0.87057775  0.37749681  -0.00883921  1
  Zn  Zn88  1  -0.00025059  0.88010359  0.87971150  1
  Zn  Zn89  1  0.12115846  0.37885168  0.25457078  1
  Zn  Zn90  1  0.74764312  0.37232117  0.11961552  1
  Zn  Zn91  1  0.49987318  0.36248299  0.38558007  1
  Zn  Zn92  1  0.87981087  0.74154132  0.62951043  1
  Zn  Zn93  1  0.87087820  0.75127089  0.12280092  1
  Zn  Zn94  1  0.37740530  0.61753550  0.75300219  1
  Zn  Zn95  1  0.74975789  0.00577746  0.75197391  1
  Zn  Zn96  1  0.50546992  0.24091354  0.25370749  1
  Zn  Zn97  1  0.00136955  0.74471336  0.73814479  1
  Zn  Zn98  1  0.63266702  0.36752059  0.75750542  1
  Zn  Zn99  1  0.37458815  0.12640499  0.74875818  1
  Zn  Zn100  1  0.89021324  0.61893404  0.74582522  1
  Zn  Zn101  1  0.74346008  0.75815207  -0.00778307  1
  Zn  Zn102  1  0.50401209  0.24367652  0.75245459  1
  Zn  Zn103  1  0.76239452  0.49606827  0.75768982  1
  Zn  Zn104  1  0.36239359  0.76252126  0.13020209  1
  Zn  Zn105  1  0.74438513  0.12853941  0.37409354  1
  Zn  Zn106  1  -0.00078318  0.75230408  0.24787883  1
  Zn  Zn107  1  0.19024901  0.18729426  0.18677173  1
  Zn  Zn108  1  0.18959639  0.18844792  0.68389270  1
  Zn  Zn109  1  0.18606469  0.68651258  0.18917155  1
  Zn  Zn110  1  0.18477660  0.68094557  0.69125803  1
  Zn  Zn111  1  0.69120512  0.19097904  0.18501870  1
  Zn  Zn112  1  0.68282007  0.19148423  0.68591703  1
  Zn  Zn113  1  0.68350072  0.68799464  0.18668204  1
  Zn  Zn114  1  0.69200868  0.68696363  0.68904323  1
  Zn  Zn115  1  0.31664621  0.31055657  0.30916494  1
  Zn  Zn116  1  0.31577930  0.31205042  0.81135811  1
  Zn  Zn117  1  0.31327646  0.80853758  0.31577848  1
  Zn  Zn118  1  0.31429523  0.81075684  0.81629935  1
  Zn  Zn119  1  0.80765173  0.31210596  0.30989503  1
  Zn  Zn120  1  0.82835843  0.31717802  0.80534892  1
  Zn  Zn121  1  0.81227903  0.81270976  0.31228679  1
  Zn  Zn122  1  0.81428292  0.80724637  0.81564426  1
  Zn  Zn123  1  0.19117475  0.43324427  0.43935640  1
  Zn  Zn124  1  0.18159355  0.43668648  0.93511459  1
  Zn  Zn125  1  0.18918626  0.93688274  0.43784993  1
  Zn  Zn126  1  0.18524633  0.94129460  0.93972497  1
  Zn  Zn127  1  0.68745739  0.44105929  0.44131086  1
  Zn  Zn128  1  0.68683996  0.44140365  0.93804941  1
  Zn  Zn129  1  0.68860213  0.94009803  0.43955823  1
  Zn  Zn130  1  0.69044839  0.94481017  0.93635530  1
  Zn  Zn131  1  0.31261496  0.06351631  0.05975397  1
  Zn  Zn132  1  0.31314537  0.06379087  0.55881654  1
  Zn  Zn133  1  0.31337951  0.56569642  0.06325780  1
  Zn  Zn134  1  0.31194598  0.55827216  0.56758962  1
  Zn  Zn135  1  0.80772877  0.06635539  0.06014173  1
  Zn  Zn136  1  0.81111723  0.06828278  0.56333884  1
  Zn  Zn137  1  0.80768903  0.56628370  0.06069775  1
  Zn  Zn138  1  0.81769178  0.55837047  0.56195532  1
  Zn  Zn139  1  0.43671115  0.43604251  0.18329720  1
  Zn  Zn140  1  0.43278969  0.44018036  0.69157643  1
  Zn  Zn141  1  0.43391589  0.93787926  0.18920672  1
  Zn  Zn142  1  0.43876122  0.93801293  0.69114905  1
  Zn  Zn143  1  0.93412029  0.43838528  0.18638143  1
  Zn  Zn144  1  0.94408463  0.46936621  0.67645017  1
  Zn  Zn145  1  0.93714434  0.93817332  0.18624369  1
  Zn  Zn146  1  0.93684699  0.93583278  0.69115401  1
  Zn  Zn147  1  0.06455318  0.06593999  0.30687649  1
  Zn  Zn148  1  0.05817675  0.06002537  0.81565885  1
  Zn  Zn149  1  0.06050543  0.56255979  0.31528584  1
  Zn  Zn150  1  0.06779697  0.56027213  0.80881040  1
  Zn  Zn151  1  0.55450581  0.05931047  0.31392092  1
  Zn  Zn152  1  0.56047811  0.06006538  0.80546536  1
  Zn  Zn153  1  0.56341703  0.55710490  0.31686543  1
  Zn  Zn154  1  0.56751744  0.55899807  0.80799934  1
  Zn  Zn155  1  0.43830770  0.18714402  0.43633822  1
  Zn  Zn156  1  0.43354126  0.18462509  0.93956506  1
  Zn  Zn157  1  0.43668858  0.68307402  0.44150641  1
  Zn  Zn158  1  0.43637700  0.69207410  0.93936499  1
  Zn  Zn159  1  0.94160985  0.20139440  0.44131438  1
  Zn  Zn160  1  0.93684848  0.18900260  0.93557389  1
  Zn  Zn161  1  0.93266644  0.68700397  0.43788012  1
  Zn  Zn162  1  0.93745816  0.69423732  0.93834869  1
  Zn  Zn163  1  0.06077943  0.31303998  0.05978469  1
  Zn  Zn164  1  0.03499419  0.38465096  0.55733535  1
  Zn  Zn165  1  0.06499143  0.81341112  0.06329930  1
  Zn  Zn166  1  0.06435008  0.81171342  0.55840534  1
  Zn  Zn167  1  0.56375033  0.31217758  0.05841591  1
  Zn  Zn168  1  0.56629353  0.30968768  0.56917984  1
  Zn  Zn169  1  0.53275130  0.82876307  0.07827008  1
  Zn  Zn170  1  0.56524127  0.81072444  0.56530161  1
  O  O171  1  0.12050310  0.11449725  0.12208918  1
  O  O172  1  0.11810016  0.11713612  0.62409188  1
  O  O173  1  0.11677401  0.61588611  0.12336673  1
  O  O174  1  0.12638152  0.62901116  0.60954404  1
  O  O175  1  0.62682879  0.11628518  0.12408924  1
  O  O176  1  0.61613944  0.11595754  0.61707540  1
  O  O177  1  0.62141713  0.61348929  0.11839987  1
  O  O178  1  0.61863536  0.61571932  0.63120140  1
  O  O179  1  0.37770956  0.38825305  0.37004940  1
  O  O180  1  0.38229915  0.37230819  0.88873419  1
  O  O181  1  0.38052134  0.87729643  0.38206860  1
  O  O182  1  0.38371880  0.88724101  0.87224077  1
  O  O183  1  0.87156326  0.38667181  0.36577709  1
  O  O184  1  0.89915705  0.36908845  0.87889866  1
  O  O185  1  0.88270768  0.88252719  0.37809616  1
  O  O186  1  0.87511042  0.88369550  0.88504410  1
  O  O187  1  0.26149355  0.00542584  0.37872582  1
  O  O188  1  0.25660272  0.00729735  0.87337312  1
  O  O189  1  0.25760348  0.50278643  0.37007617  1
  O  O190  1  0.24819080  0.50399756  0.86743482  1
  O  O191  1  0.75716934  0.00221570  0.36826331  1
  O  O192  1  0.76678333  -0.00174734  0.86834087  1
  O  O193  1  0.75244927  0.50645916  0.36590574  1
  O  O194  1  0.74072272  0.52018602  0.87680101  1
  O  O195  1  0.24176312  0.50195692  0.13331040  1
  O  O196  1  0.24960820  0.48287837  0.62987617  1
  O  O197  1  0.23904039  1.00067721  0.12404287  1
  O  O198  1  0.24689576  0.99437302  0.62999498  1
  O  O199  1  0.74218965  0.49894636  0.13190055  1
  O  O200  1  0.74442324  0.48487427  0.61967959  1
  O  O201  1  0.74176467  0.99338622  0.13016775  1
  O  O202  1  0.74214573  0.99079969  0.62500223  1
  O  O203  1  0.00079322  0.36192182  0.24224885  1
  O  O204  1  0.00642455  0.36093515  0.76014406  1
  O  O205  1  0.00463814  0.87496175  0.25963059  1
  O  O206  1  0.01559895  0.87813447  0.75480765  1
  O  O207  1  0.51415837  0.38002910  0.24910058  1
  O  O208  1  0.49420541  0.37852621  0.76899251  1
  O  O209  1  0.50656950  0.86974023  0.26686954  1
  O  O210  1  0.50719366  0.86999076  0.75914122  1
  O  O211  1  0.48525507  0.12294833  0.24901616  1
  O  O212  1  0.49588592  0.12304912  0.73532007  1
  O  O213  1  0.49555993  0.62371338  0.24609549  1
  O  O214  1  0.49902945  0.63145293  0.74411396  1
  O  O215  1  0.99443856  0.13426866  0.24050377  1
  O  O216  1  0.99496248  0.12967813  0.74683641  1
  O  O217  1  0.99049877  0.62559995  0.24220882  1
  O  O218  1  1.00474005  0.63311940  0.75882242  1
  O  O219  1  0.36476327  0.25387414  0.00593471  1
  O  O220  1  0.36330423  0.24361137  0.50764653  1
  O  O221  1  0.35758641  0.74605388  0.00359503  1
  O  O222  1  0.36944851  0.75707592  0.50657208  1
  O  O223  1  0.86586126  0.24726768  0.00573405  1
  O  O224  1  0.84914518  0.22962646  0.50805769  1
  O  O225  1  0.86795161  0.76280537  0.00351589  1
  O  O226  1  0.86186767  0.75962298  0.49661460  1
  O  O227  1  0.14258511  0.24345852  0.48750851  1
  O  O228  1  0.13745719  0.23991225  1.00954037  1
  O  O229  1  0.13102829  0.74876449  0.48798515  1
  O  O230  1  0.13465369  0.74581311  0.99630566  1
  O  O231  1  0.63372312  0.23844875  0.50423005  1
  O  O232  1  0.63081439  0.23767983  0.99976767  1
  O  O233  1  0.63815044  0.75542207  0.49342413  1
  O  O234  1  0.61874426  0.73650030  1.00849845  1
  O  O235  1  0.48806451  0.25400155  0.12547886  1
  O  O236  1  0.48996932  0.24150582  0.62246918  1
  O  O237  1  0.51687857  0.72944016  0.13904113  1
  O  O238  1  0.49634838  0.74270848  0.63113326  1
  O  O239  1  0.99430958  0.24104341  0.12934100  1
  O  O240  1  1.00510899  0.23653954  0.64385396  1
  O  O241  1  1.00046547  0.73744864  0.12637948  1
  O  O242  1  0.98967480  0.77331716  0.62648707  1
  O  O243  1  0.01327954  0.24156557  0.36162324  1
  O  O244  1  0.00092272  0.25188188  0.86400560  1
  O  O245  1  0.00616206  0.75912597  0.37386688  1
  O  O246  1  0.01690700  0.75727662  0.88228593  1
  O  O247  1  0.49427936  0.25221317  0.36692205  1
  O  O248  1  0.49441092  0.26256517  0.87737580  1
  O  O249  1  0.50505973  0.75209313  0.37312723  1
  O  O250  1  0.49479798  0.76095835  0.86793664  1
  O  O251  1  0.25068515  0.13003468  0.48591496  1
  O  O252  1  0.24105861  0.13098288  0.99392025  1
  O  O253  1  0.24663128  0.62904171  0.49631406  1
  O  O254  1  0.24348257  0.62687919  0.99396297  1
  O  O255  1  0.73533331  0.12990895  0.49924380  1
  O  O256  1  0.73460189  0.13310224  0.99969688  1
  O  O257  1  0.75303907  0.63396075  0.48926867  1
  O  O258  1  0.73573532  0.62892273  0.99409272  1
  O  O259  1  0.25466878  0.36823953  -0.00051546  1
  O  O260  1  0.25172102  0.36689248  0.51235631  1
  O  O261  1  0.24830955  0.86276012  -0.00163835  1
  O  O262  1  0.25695120  0.86579676  0.50576130  1
  O  O263  1  0.75029826  0.36738748  -0.00010360  1
  O  O264  1  0.74275354  0.35996447  0.50350729  1
  O  O265  1  0.75285855  0.87739520  0.00806484  1
  O  O266  1  0.75481694  0.86994537  0.50669868  1
  O  O267  1  0.13206585  0.50036730  0.24481032  1
  O  O268  1  0.14594372  0.50128313  0.74890407  1
  O  O269  1  0.12451458  0.99332316  0.23746574  1
  O  O270  1  0.13182908  0.99374562  0.74672807  1
  O  O271  1  0.63224094  0.49507004  0.24258884  1
  O  O272  1  0.62973203  0.49233079  0.73814820  1
  O  O273  1  0.62727187  0.99733298  0.24398070  1
  O  O274  1  0.62861904  0.99279030  0.73820325  1
  O  O275  1  0.37479667  0.00476191  0.25700370  1
  O  O276  1  0.36656211  0.00074775  0.75827902  1
  O  O277  1  0.36905253  0.50432736  0.25471187  1
  O  O278  1  0.35514464  0.50419665  0.74365545  1
  O  O279  1  0.86993050  0.00830618  0.25378672  1
  O  O280  1  0.87401457  0.01154406  0.75630992  1
  O  O281  1  0.86456418  0.50848651  0.25175826  1
  O  O282  1  0.87637006  0.50278910  0.75246404  1
  O  O283  1  0.13085858  0.36073807  0.37237414  1
  O  O284  1  0.10694433  0.36443166  0.88823211  1
  O  O285  1  0.11938532  0.87031986  0.36831905  1
  O  O286  1  0.12623423  0.87036590  0.86879046  1
  O  O287  1  0.62326730  0.38362378  0.35970270  1
  O  O288  1  0.60757378  0.37933902  0.87826135  1
  O  O289  1  0.61764511  0.87164103  0.37396127  1
  O  O290  1  0.62087183  0.88486887  0.86118650  1
  O  O291  1  0.36917407  0.13288971  0.13134981  1
  O  O292  1  0.38021480  0.13049968  0.62417407  1
  O  O293  1  0.38430119  0.62887551  0.13308638  1
  O  O294  1  0.38278248  0.63329615  0.62689275  1
  O  O295  1  0.88101400  0.13258248  0.12851387  1
  O  O296  1  0.88943213  0.13052163  0.62858586  1
  O  O297  1  0.87983176  0.62690398  0.13161315  1
  O  O298  1  0.85930063  0.62990101  0.63220029  1
  O  O299  1  0.25795237  0.25255446  0.11664447  1
  O  O300  1  0.25730267  0.25509132  0.61810290  1
  O  O301  1  0.24669578  0.74720552  0.11216750  1
  O  O302  1  0.25674198  0.75418059  0.62397756  1
  O  O303  1  0.75971898  0.25160425  0.11614253  1
  O  O304  1  0.75034712  0.26016575  0.61456690  1
  O  O305  1  0.74562289  0.76579171  0.12559595  1
  O  O306  1  0.74671393  0.76224683  0.61714935  1
  O  O307  1  0.24985798  0.24358395  0.37871404  1
  O  O308  1  0.25635932  0.23737020  0.88261182  1
  O  O309  1  0.24269744  0.74219330  0.38154267  1
  O  O310  1  0.24334712  0.74469097  0.88521097  1
  O  O311  1  0.74850493  0.24842455  0.38768604  1
  O  O312  1  0.75968807  0.25533448  0.88169235  1
  O  O313  1  0.74530920  0.74357737  0.38051134  1
  O  O314  1  0.74446832  0.73465990  0.87791604  1
  O  O315  1  0.01230943  0.13293068  0.00709945  1
  O  O316  1  0.00278063  0.12057475  0.51007782  1
  O  O317  1  0.00516986  0.62033013  0.00579913  1
  O  O318  1  0.00880593  0.62756108  0.49615599  1
  O  O319  1  0.51374321  0.11898285  -0.00642432  1
  O  O320  1  0.50528447  0.12528389  0.51081066  1
  O  O321  1  0.50434885  0.62112434  0.00665776  1
  O  O322  1  0.49936089  0.61816529  0.51435909  1
  O  O323  1  0.50369439  0.38547698  0.50354342  1
  O  O324  1  0.49385856  0.38257823  0.99182757  1
  O  O325  1  0.49227538  0.86538519  0.49110527  1
  O  O326  1  0.51714358  0.89091539  0.98167968  1
  O  O327  1  0.97252163  0.30206389  0.51893226  1
  O  O328  1  0.99663368  0.38442805  0.99646800  1
  O  O329  1  0.99779592  0.88414462  0.48545458  1
  O  O330  1  0.98576976  0.87551564  1.00531088  1
  O  O331  1  0.49396970  0.49897912  0.38787462  1
  O  O332  1  0.49953054  0.49619374  0.88464461  1
  O  O333  1  0.48536188  0.98845730  0.37669239  1
  O  O334  1  0.49162939  0.99672237  0.87814333  1
  O  O335  1  0.98439817  0.49980014  0.36939424  1
  O  O336  1  1.01031862  0.48849539  0.88331642  1
  O  O337  1  0.99695636  0.99645653  0.37671387  1
  O  O338  1  0.98123039  0.99699798  0.87361653  1
  O  O339  1  0.00410204  0.01400760  0.12914079  1
  O  O340  1  0.00593603  0.00529915  0.62151386  1
  O  O341  1  0.00466423  0.50918257  0.12049988  1
  O  O342  1  0.01375204  0.48287178  0.59816184  1
  O  O343  1  0.50855039  -0.00078977  0.11180271  1
  O  O344  1  0.50653471  0.00490048  0.62641501  1
  O  O345  1  0.50540177  0.50920118  0.11838578  1
  O  O346  1  0.50544938  0.50523447  0.62253246  1
  O  O347  1  0.24983741  0.38781229  0.24741557  1
  O  O348  1  0.25188099  0.38011370  0.74192705  1
  O  O349  1  0.23988295  0.87057712  0.25319675  1
  O  O350  1  0.24273392  0.87959607  0.74781853  1
  O  O351  1  0.73824413  0.38281421  0.24475937  1
  O  O352  1  0.75210218  0.37576809  0.74184849  1
  O  O353  1  0.74391949  0.88230354  0.24497548  1
  O  O354  1  0.74289504  0.87390732  0.74245304  1
  O  O355  1  0.26088449  0.12905382  0.26144010  1
  O  O356  1  0.24989065  0.11892435  0.75806182  1
  O  O357  1  0.25327064  0.61487720  0.25746735  1
  O  O358  1  0.25236484  0.61797547  0.76103445  1
  O  O359  1  0.75600103  0.12131122  0.25263124  1
  O  O360  1  0.76530913  0.12669356  0.73608294  1
  O  O361  1  0.75474290  0.61817199  0.25330771  1
  O  O362  1  0.74631616  0.62296826  0.76631509  1
  O  O363  1  0.37022738  0.11357844  0.36870962  1
  O  O364  1  0.36623414  0.11443096  0.87377789  1
  O  O365  1  0.36939050  0.61556007  0.37097382  1
  O  O366  1  0.36253958  0.62887190  0.87609814  1
  O  O367  1  0.87655776  0.12193836  0.36782520  1
  O  O368  1  0.87723463  0.11758706  0.86591802  1
  O  O369  1  0.86455061  0.61994355  0.36640334  1
  O  O370  1  0.86334404  0.62669206  0.88108277  1
  O  O371  1  0.12574536  0.38857095  0.12590854  1
  O  O372  1  0.13847129  0.36161326  0.62191824  1
  O  O373  1  0.11905155  0.88880199  0.13312154  1
  O  O374  1  0.13417083  0.88027141  0.63212483  1
  O  O375  1  0.62270536  0.38779732  0.12873660  1
  O  O376  1  0.63431036  0.38154671  0.62805306  1
  O  O377  1  0.62763578  0.88629752  0.13171606  1
  O  O378  1  0.62938096  0.88152981  0.63247098  1
  O  O379  1  0.11840056  0.25194371  0.25318146  1
  O  O380  1  0.11596466  0.23984832  0.75526385  1
  O  O381  1  0.12327713  0.75576362  0.26122098  1
  O  O382  1  0.12907544  0.75897848  0.75965726  1
  O  O383  1  0.62448029  0.26715718  0.24127622  1
  O  O384  1  0.61580279  0.25570682  0.74491170  1
  O  O385  1  0.62095680  0.75695781  0.25970852  1
  O  O386  1  0.61214814  0.75920793  0.74381190  1
  O  O387  1  0.37516996  0.24149557  0.23785631  1
  O  O388  1  0.37990257  0.24621524  0.73977812  1
  O  O389  1  0.38137221  0.74103763  0.25081350  1
  O  O390  1  0.38704657  0.75033777  0.74421102  1
  O  O391  1  0.87950608  0.24517342  0.24236932  1
  O  O392  1  0.88918926  0.24220038  0.73834199  1
  O  O393  1  0.87511845  0.73868741  0.24730710  1
  O  O394  1  0.88152859  0.74567378  0.75075200  1
  O  O395  1  0.38522135  0.50515304  0.49318497  1
  O  O396  1  0.38406925  0.49193093  1.00804195  1
  O  O397  1  0.37029101  0.98368258  0.49444374  1
  O  O398  1  0.38652708  1.00591293  0.99288227  1
  O  O399  1  0.86827507  0.49592442  0.48182139  1
  O  O400  1  0.88689408  0.50133016  1.00614096  1
  O  O401  1  0.88033993  0.99669637  0.49481926  1
  O  O402  1  0.86853903  0.99792326  0.98904449  1
  O  O403  1  0.12587373  0.00736422  0.01454697  1
  O  O404  1  0.11924549  0.00145065  0.50558295  1
  O  O405  1  0.11812084  0.50651882  0.00914915  1
  O  O406  1  0.12645226  0.50920334  0.49221707  1
  O  O407  1  0.62235957  0.01447313  0.00512146  1
  O  O408  1  0.62611805  0.00471528  0.51212249  1
  O  O409  1  0.61446622  0.50860891  0.00690119  1
  O  O410  1  0.61640694  0.49943835  0.51340625  1
  O  O411  1  0.37316135  0.36781740  0.11314082  1
  O  O412  1  0.36960796  0.36361066  0.62708870  1
  O  O413  1  0.42473084  0.85467828  0.11899939  1
  O  O414  1  0.37316290  0.86834765  0.61978760  1
  O  O415  1  0.87425770  0.36229144  0.12118204  1
  O  O416  1  0.86906144  0.36369166  0.62608816  1
  O  O417  1  0.86374548  0.87792657  0.11919280  1
  O  O418  1  0.86306903  0.88104170  0.61852061  1
  O  O419  1  0.13536299  0.13188103  0.37101783  1
  O  O420  1  0.13331459  0.11431134  0.88647679  1
  O  O421  1  0.12885362  0.63222801  0.38069240  1
  O  O422  1  0.13653002  0.63323097  0.88207194  1
  O  O423  1  0.62175398  0.11415517  0.38879286  1
  O  O424  1  0.62630458  0.12030159  0.88061483  1
  O  O425  1  0.63810059  0.62967457  0.36892237  1
  O  O426  1  0.61800688  0.62631508  0.88937703  1
