# generated using pymatgen
data_V85Zn86O256
_symmetry_space_group_name_H-M   'P 1'
_cell_length_a   16.95671167
_cell_length_b   16.93607297
_cell_length_c   16.94656597
_cell_angle_alpha   90.00351130
_cell_angle_beta   89.98605154
_cell_angle_gamma   90.04390862
_symmetry_Int_Tables_number   1
_chemical_formula_structural   V85Zn86O256
_chemical_formula_sum   'V85 Zn86 O256'
_cell_volume   4866.71503120
_cell_formula_units_Z   1
loop_
 _symmetry_equiv_pos_site_id
 _symmetry_equiv_pos_as_xyz
  1  'x, y, z'
loop_
 _atom_site_type_symbol
 _atom_site_label
 _atom_site_symmetry_multiplicity
 _atom_site_fract_x
 _atom_site_fract_y
 _atom_site_fract_z
 _atom_site_occupancy
  V  V0  1  0.24950292  0.87618534  0.62094462  1
  V  V1  1  0.12367840  0.24379235  0.38596414  1
  V  V2  1  -0.00149440  0.75210443  0.74815072  1
  V  V3  1  0.37547211  0.24980520  0.12656334  1
  V  V4  1  0.50168753  0.24858004  0.25107376  1
  V  V5  1  0.43067705  0.68383121  0.79185188  1
  V  V6  1  0.87021508  0.36282827  0.50062944  1
  V  V7  1  0.12293409  0.25042720  0.87349086  1
  V  V8  1  0.38002457  0.00357218  0.87222220  1
  V  V9  1  0.37410625  0.87880351  0.00072834  1
  V  V10  1  0.51148462  0.76135321  0.26613287  1
  V  V11  1  0.50121993  0.37464376  0.87392034  1
  V  V12  1  0.38700689  -0.00363542  0.37804018  1
  V  V13  1  0.24688238  0.50440998  0.25625414  1
  V  V14  1  0.00032533  0.00378100  0.49276106  1
  V  V15  1  0.75281337  0.49483152  0.24466441  1
  V  V16  1  0.74472947  0.63703333  0.87357058  1
  V  V17  1  0.12411657  0.49798883  0.62416832  1
  V  V18  1  0.25145435  0.00522108  0.74904893  1
  V  V19  1  0.37514695  0.50338126  0.87247634  1
  V  V20  1  -0.00268865  0.38243492  0.87897871  1
  V  V21  1  0.75337560  0.12742492  0.86958008  1
  V  V22  1  0.00363707  0.74883982  0.24439045  1
  V  V23  1  0.24390974  0.74698297  0.00296146  1
  V  V24  1  0.87423536  0.00507605  0.86894539  1
  V  V25  1  -0.00022419  0.37204096  0.37401267  1
  V  V26  1  0.12825625  0.74381968  0.37517093  1
  V  V27  1  0.86803452  0.38007814  0.00648124  1
  V  V28  1  0.37263298  0.75148316  0.13207566  1
  V  V29  1  -0.00333995  0.87927363  0.87842102  1
  V  V30  1  0.37341871  0.62719627  0.26101813  1
  V  V31  1  0.75201807  -0.01200749  0.24087810  1
  V  V32  1  0.86225380  0.25026909  0.12651666  1
  V  V33  1  0.12367385  0.37433031  0.74769263  1
  V  V34  1  0.74904996  0.36680268  0.62380642  1
  V  V35  1  0.11559125  0.12779049  0.00288591  1
  V  V36  1  0.12145986  0.00488005  0.12865731  1
  V  V37  1  0.24849123  0.24988679  0.00087959  1
  V  V38  1  0.25310119  0.50511031  0.74653092  1
  V  V39  1  -0.00694104  0.12402161  0.62644589  1
  V  V40  1  0.49605211  0.37183979  0.37891552  1
  V  V41  1  0.49501225  0.13033801  0.62061574  1
  V  V42  1  0.86735237  0.87392107  0.01098959  1
  V  V43  1  -0.01065612  0.24668623  0.74999133  1
  V  V44  1  0.49936820  0.49617484  0.50198535  1
  V  V45  1  0.87482432  0.50646983  0.88759974  1
  V  V46  1  0.37046575  0.49764103  0.38121976  1
  V  V47  1  0.81989701  -0.06131187  0.42711458  1
  V  V48  1  0.88040702  0.62306831  0.24658476  1
  V  V49  1  0.37221926  0.12337076  0.25225040  1
  V  V50  1  0.62688154  -0.01708352  0.12553812  1
  V  V51  1  0.87290058  0.49722678  0.37601617  1
  V  V52  1  0.62498898  0.86064340  0.76233894  1
  V  V53  1  0.87295884  0.62610757  0.74873970  1
  V  V54  1  0.50061536  0.62476819  0.13381944  1
  V  V55  1  0.63098182  0.11273732  0.50427221  1
  V  V56  1  0.38236058  0.87829538  0.49900176  1
  V  V57  1  0.12383806  0.00755019  0.61720163  1
  V  V58  1  0.49653057  0.63514630  0.62366028  1
  V  V59  1  0.00013163  0.62737157  0.62141220  1
  V  V60  1  0.26440405  0.37155579  0.62194898  1
  V  V61  1  0.00229253  0.24563649  0.23771388  1
  V  V62  1  0.26901103  0.24819038  0.50242555  1
  V  V63  1  0.86550343  0.76079215  0.61037538  1
  V  V64  1  0.49887560  0.50037406  0.00284077  1
  V  V65  1  -0.00097312  0.49826388  0.50024067  1
  V  V66  1  0.87467133  0.12073623  0.25008542  1
  V  V67  1  0.00148157  0.87628352  0.37841645  1
  V  V68  1  0.12353805  0.75072137  0.87699037  1
  V  V69  1  0.62716354  0.37282366  0.25006521  1
  V  V70  1  0.24166377  0.62551008  0.87458027  1
  V  V71  1  0.37377455  0.37603795  0.00114602  1
  V  V72  1  0.62426000  0.63351220  -0.00361249  1
  V  V73  1  0.12477960  0.50222692  0.11022750  1
  V  V74  1  0.12276544  0.87901906  0.75022004  1
  V  V75  1  0.12580102  0.37542449  0.25039469  1
  V  V76  1  0.62839358  0.49972244  0.62327704  1
  V  V77  1  0.62615490  -0.00916604  0.63174986  1
  V  V78  1  0.63263421  0.63831945  0.49644136  1
  V  V79  1  0.50394340  0.12157810  0.12452005  1
  V  V80  1  0.00520782  0.62599007  0.11051951  1
  V  V81  1  0.24998540  0.74392606  0.49721206  1
  V  V82  1  0.62945280  0.49550970  0.12494345  1
  V  V83  1  0.62414816  0.24842508  0.87618828  1
  V  V84  1  0.63382965  0.24648643  0.38770104  1
  Zn  Zn85  1  0.50343490  -0.00229562  -0.00225477  1
  Zn  Zn86  1  0.25038687  -0.00413515  0.25291007  1
  Zn  Zn87  1  -0.00496996  0.00678292  0.00393681  1
  Zn  Zn88  1  0.49734563  0.86146459  0.86826545  1
  Zn  Zn89  1  0.62720990  0.37542882  0.75070021  1
  Zn  Zn90  1  0.49184196  0.25348343  0.74523456  1
  Zn  Zn91  1  0.75138567  0.50016441  0.74956398  1
  Zn  Zn92  1  0.12810629  0.87507408  0.24866183  1
  Zn  Zn93  1  0.86641299  0.24131121  0.62553646  1
  Zn  Zn94  1  0.75466687  0.12090054  0.37729911  1
  Zn  Zn95  1  0.25075159  0.37678641  0.12749158  1
  Zn  Zn96  1  0.74923178  0.62823619  0.37602202  1
  Zn  Zn97  1  0.25009094  0.12773024  0.87300641  1
  Zn  Zn98  1  0.75322482  -0.00179833  0.74606858  1
  Zn  Zn99  1  0.24858731  0.87801214  0.12657874  1
  Zn  Zn100  1  0.37461879  0.13286318  0.74533546  1
  Zn  Zn101  1  0.62883271  0.12153274  0.00231642  1
  Zn  Zn102  1  0.12973466  0.62031225  0.49529873  1
  Zn  Zn103  1  0.74635682  0.25256260  0.00286400  1
  Zn  Zn104  1  0.37456793  0.75161912  0.62559856  1
  Zn  Zn105  1  0.24623661  0.11807711  0.38313585  1
  Zn  Zn106  1  0.74449538  0.76175202  0.01486802  1
  Zn  Zn107  1  0.18812648  0.18670304  0.18784142  1
  Zn  Zn108  1  0.18494185  0.18871241  0.68142936  1
  Zn  Zn109  1  0.18640939  0.68392879  0.18829655  1
  Zn  Zn110  1  0.18609845  0.68911747  0.68604845  1
  Zn  Zn111  1  0.68677660  0.18035450  0.19373756  1
  Zn  Zn112  1  0.68211941  0.18862792  0.69262648  1
  Zn  Zn113  1  0.68811715  0.68963945  0.19380612  1
  Zn  Zn114  1  0.68757949  0.69013939  0.68177147  1
  Zn  Zn115  1  0.31088436  0.31300087  0.31563051  1
  Zn  Zn116  1  0.31295041  0.31367573  0.81104961  1
  Zn  Zn117  1  0.31162839  0.81636984  0.31516210  1
  Zn  Zn118  1  0.30598275  0.82179957  0.81544111  1
  Zn  Zn119  1  0.81252273  0.31153900  0.30928598  1
  Zn  Zn120  1  0.80972746  0.31659971  0.81354786  1
  Zn  Zn121  1  0.82367363  0.80825655  0.29367385  1
  Zn  Zn122  1  0.81006052  0.81574550  0.80927157  1
  Zn  Zn123  1  0.18854653  0.43083514  0.44001217  1
  Zn  Zn124  1  0.18948524  0.43444778  0.93392473  1
  Zn  Zn125  1  0.18885218  0.93594807  0.43407153  1
  Zn  Zn126  1  0.18839119  0.94073027  0.93932859  1
  Zn  Zn127  1  0.68743421  0.43638572  0.43854260  1
  Zn  Zn128  1  0.69014976  0.44386125  0.93700700  1
  Zn  Zn129  1  0.68443167  0.80182092  0.39498848  1
  Zn  Zn130  1  0.68712063  0.93891256  0.93519914  1
  Zn  Zn131  1  0.30841473  0.06391498  0.06286094  1
  Zn  Zn132  1  0.31184689  0.06398606  0.55696494  1
  Zn  Zn133  1  0.31018127  0.56497548  0.06559842  1
  Zn  Zn134  1  0.31504291  0.56241792  0.56377085  1
  Zn  Zn135  1  0.81250038  0.06596032  0.05967885  1
  Zn  Zn136  1  0.80834606  0.06310325  0.56427710  1
  Zn  Zn137  1  0.79686488  0.60334141  0.08197107  1
  Zn  Zn138  1  0.81247907  0.56212302  0.56256867  1
  Zn  Zn139  1  0.43686334  0.43709164  0.19211075  1
  Zn  Zn140  1  0.43909855  0.44215383  0.68976838  1
  Zn  Zn141  1  0.43740339  0.93828440  0.18900113  1
  Zn  Zn142  1  0.44501582  0.93952905  0.68444961  1
  Zn  Zn143  1  0.94249348  0.43840735  0.18326681  1
  Zn  Zn144  1  0.93385287  0.43763511  0.68910497  1
  Zn  Zn145  1  0.94332506  0.94050517  0.18908157  1
  Zn  Zn146  1  0.93549519  0.93821948  0.68637638  1
  Zn  Zn147  1  0.06015123  0.06582506  0.31010158  1
  Zn  Zn148  1  0.06228036  0.06515053  0.81241097  1
  Zn  Zn149  1  0.06191677  0.56226971  0.31250398  1
  Zn  Zn150  1  0.06142351  0.56276894  0.81145266  1
  Zn  Zn151  1  0.57314353  -0.05943849  0.32217552  1
  Zn  Zn152  1  0.56204223  0.06474686  0.80789253  1
  Zn  Zn153  1  0.56310686  0.56213332  0.31588634  1
  Zn  Zn154  1  0.56822920  0.55794953  0.81270546  1
  Zn  Zn155  1  0.44501606  0.17886663  0.43560334  1
  Zn  Zn156  1  0.43664113  0.18619216  0.93694788  1
  Zn  Zn157  1  0.43716923  0.68716974  0.44301467  1
  Zn  Zn158  1  0.43022256  0.68523648  0.95513710  1
  Zn  Zn159  1  0.93972940  0.18321716  0.43418857  1
  Zn  Zn160  1  0.93305873  0.19234503  0.93827883  1
  Zn  Zn161  1  0.93826729  0.68730951  0.43358908  1
  Zn  Zn162  1  0.93238236  0.69473126  0.93696599  1
  Zn  Zn163  1  0.05923817  0.31860343  0.06087484  1
  Zn  Zn164  1  0.06022488  0.31287520  0.56483091  1
  Zn  Zn165  1  0.06184362  0.81692829  0.06203052  1
  Zn  Zn166  1  0.06059589  0.81517669  0.55912075  1
  Zn  Zn167  1  0.56274496  0.31229164  0.06135899  1
  Zn  Zn168  1  0.55993250  0.31300436  0.56318896  1
  Zn  Zn169  1  0.55411328  0.81059045  0.06415627  1
  Zn  Zn170  1  0.59082208  0.85769334  0.51389038  1
  O  O171  1  0.12920283  0.11626647  0.11704630  1
  O  O172  1  0.11363433  0.11323620  0.62661073  1
  O  O173  1  0.11768383  0.61266671  0.12482829  1
  O  O174  1  0.11251865  0.61902297  0.62514113  1
  O  O175  1  0.61571703  0.11874886  0.12591809  1
  O  O176  1  0.62100423  0.12562435  0.61555503  1
  O  O177  1  0.61336720  0.61423915  0.12218311  1
  O  O178  1  0.61803002  0.61954276  0.61555763  1
  O  O179  1  0.38835830  0.38258016  0.36983786  1
  O  O180  1  0.38091469  0.38322721  0.88309807  1
  O  O181  1  0.37434522  0.88700849  0.38338050  1
  O  O182  1  0.37624318  0.88463826  0.88115985  1
  O  O183  1  0.87861655  0.37823175  0.38145314  1
  O  O184  1  0.88017585  0.38585914  0.87913847  1
  O  O185  1  0.88510219  0.87774798  0.36913421  1
  O  O186  1  0.88195791  0.88260495  0.87901898  1
  O  O187  1  0.25782662  0.00257377  0.37217525  1
  O  O188  1  0.25788523  0.00092735  0.86467722  1
  O  O189  1  0.25930113  0.49363213  0.37069068  1
  O  O190  1  0.25343822  0.50862465  0.86880631  1
  O  O191  1  0.76118027  -0.00320247  0.36252398  1
  O  O192  1  0.75786106  0.00916250  0.87361443  1
  O  O193  1  0.76190383  0.49977651  0.36949639  1
  O  O194  1  0.75951661  0.51052923  0.86966871  1
  O  O195  1  0.23908662  0.50099297  0.13346808  1
  O  O196  1  0.24525358  0.49560563  0.63033357  1
  O  O197  1  0.23762701  1.00021303  0.12691745  1
  O  O198  1  0.24165231  0.99741614  0.62732202  1
  O  O199  1  0.74004342  0.50734617  0.13213928  1
  O  O200  1  0.74296770  0.49247508  0.62536555  1
  O  O201  1  0.74034342  1.00694734  0.13374185  1
  O  O202  1  0.73197516  1.00953771  0.62960543  1
  O  O203  1  0.00558612  0.36809129  0.25633379  1
  O  O204  1  0.00399951  0.37000770  0.75750709  1
  O  O205  1  0.00392128  0.86611562  0.25616585  1
  O  O206  1  0.00399327  0.87269078  0.76002308  1
  O  O207  1  0.50701461  0.37010206  0.25911675  1
  O  O208  1  0.50157937  0.37879579  0.76425849  1
  O  O209  1  0.50190952  0.86558224  0.25332171  1
  O  O210  1  0.51675995  0.87840597  0.75093374  1
  O  O211  1  0.48578978  0.13354148  0.23736458  1
  O  O212  1  0.50044432  0.12882741  0.73443887  1
  O  O213  1  0.49326638  0.62783449  0.24724250  1
  O  O214  1  0.49983650  0.62086443  0.74021148  1
  O  O215  1  0.99110876  0.13580583  0.25110454  1
  O  O216  1  1.00451383  0.13551285  0.74108794  1
  O  O217  1  0.99864571  0.62971211  0.24280927  1
  O  O218  1  0.99373566  0.63140151  0.74259898  1
  O  O219  1  0.36635078  0.25492637  0.00444255  1
  O  O220  1  0.36689976  0.24920707  0.49194400  1
  O  O221  1  0.36320606  0.75765153  0.01053970  1
  O  O222  1  0.36590393  0.75692725  0.50204961  1
  O  O223  1  0.87274128  0.26001681  0.01050583  1
  O  O224  1  0.88119841  0.26002303  0.50161962  1
  O  O225  1  0.87334488  0.77013343  -0.00288050  1
  O  O226  1  0.88219466  0.74610292  0.51191207  1
  O  O227  1  0.12186015  0.25339200  0.48678996  1
  O  O228  1  0.13003468  0.24788291  0.99743442  1
  O  O229  1  0.13144613  0.74901560  0.49311785  1
  O  O230  1  0.13744235  0.75669103  0.99434398  1
  O  O231  1  0.62533768  0.25187151  0.48917419  1
  O  O232  1  0.62643808  0.25038091  0.98951296  1
  O  O233  1  0.62706239  0.73842300  0.50097518  1
  O  O234  1  0.62274781  0.73682767  1.00655770  1
  O  O235  1  0.49486369  0.24484453  0.13016435  1
  O  O236  1  0.50440703  0.23701380  0.62604384  1
  O  O237  1  0.49244462  0.74098766  0.13707133  1
  O  O238  1  0.49805271  0.73345956  0.62463564  1
  O  O239  1  0.99515223  0.25616587  0.13515698  1
  O  O240  1  0.99936014  0.24119456  0.63232901  1
  O  O241  1  1.01378668  0.73505295  0.13012068  1
  O  O242  1  0.99772731  0.74310717  0.62975414  1
  O  O243  1  0.01021864  0.25358854  0.36791860  1
  O  O244  1  0.00336280  0.25799781  0.86735725  1
  O  O245  1  0.00586480  0.75690690  0.36706337  1
  O  O246  1  0.00492310  0.75803066  0.86899287  1
  O  O247  1  0.50819092  0.25608164  0.37170127  1
  O  O248  1  0.50558944  0.26040110  0.87884684  1
  O  O249  1  0.49543738  0.74565747  0.36306362  1
  O  O250  1  0.48122847  0.73908591  0.86491437  1
  O  O251  1  0.24951709  0.14296292  0.50078473  1
  O  O252  1  0.24193390  0.13893429  0.99880490  1
  O  O253  1  0.24791465  0.63917458  0.50953501  1
  O  O254  1  0.25812967  0.63496918  0.98790319  1
  O  O255  1  0.73685849  0.12477639  0.49573543  1
  O  O256  1  0.74770120  0.13148152  0.98823807  1
  O  O257  1  0.73630954  0.61965186  0.49835035  1
  O  O258  1  0.73558306  0.61688673  0.98647664  1
  O  O259  1  0.25464279  0.36579320  0.00198682  1
  O  O260  1  0.24819961  0.36127516  0.50972882  1
  O  O261  1  0.25995862  0.86770288  -0.00048614  1
  O  O262  1  0.25465609  0.86701143  0.50719074  1
  O  O263  1  0.76419442  0.37463679  -0.00589630  1
  O  O264  1  0.76011463  0.37978559  0.50834731  1
  O  O265  1  0.76184635  0.87684771  -0.00052296  1
  O  O266  1  0.76075663  0.87956078  0.47684774  1
  O  O267  1  0.13343049  0.49564231  0.24942111  1
  O  O268  1  0.13111768  0.49395262  0.74446268  1
  O  O269  1  0.12637937  1.00280800  0.23868247  1
  O  O270  1  0.13085094  0.99634124  0.74277767  1
  O  O271  1  0.63304282  0.49625056  0.24526396  1
  O  O272  1  0.62653362  0.49869711  0.73439217  1
  O  O273  1  0.64214031  0.99408538  0.24450927  1
  O  O274  1  0.62701795  0.99408949  0.74074363  1
  O  O275  1  0.37359067  0.00695342  0.25891470  1
  O  O276  1  0.36760835  0.00268435  0.75521390  1
  O  O277  1  0.36863356  0.50625270  0.26002477  1
  O  O278  1  0.36392099  0.49800325  0.75855036  1
  O  O279  1  0.86672987  0.01044176  0.23805310  1
  O  O280  1  0.87369320  -0.00414980  0.76367860  1
  O  O281  1  0.87152016  0.49851460  0.25621912  1
  O  O282  1  0.87601852  0.51515597  0.75568415  1
  O  O283  1  0.12045848  0.36531854  0.36864612  1
  O  O284  1  0.11588041  0.37228773  0.86909256  1
  O  O285  1  0.11682953  0.86355530  0.37257973  1
  O  O286  1  0.11750895  0.87339497  0.87120947  1
  O  O287  1  0.61620071  0.36818141  0.37199017  1
  O  O288  1  0.61675327  0.37285843  0.87689597  1
  O  O289  1  0.60821241  0.87598063  0.40462901  1
  O  O290  1  0.61800906  0.87227582  0.86765555  1
  O  O291  1  0.37859843  0.13024129  0.13090953  1
  O  O292  1  0.39231667  0.11636020  0.62094706  1
  O  O293  1  0.38241778  0.62754399  0.13783618  1
  O  O294  1  0.39103336  0.62512952  0.62346765  1
  O  O295  1  0.87201834  0.13817499  0.13394357  1
  O  O296  1  0.88731896  0.12439836  0.62245372  1
  O  O297  1  0.89729152  0.60622831  0.13819709  1
  O  O298  1  0.88510673  0.62836291  0.63058184  1
  O  O299  1  0.25590122  0.25423527  0.11826365  1
  O  O300  1  0.24707072  0.25742997  0.61182047  1
  O  O301  1  0.25395218  0.74781126  0.11831908  1
  O  O302  1  0.24847438  0.76079157  0.61915739  1
  O  O303  1  0.75869679  0.25112524  0.12872462  1
  O  O304  1  0.74907862  0.26179050  0.63041971  1
  O  O305  1  0.76087016  0.71012224  0.11473679  1
  O  O306  1  0.76729845  0.74432475  0.62277277  1
  O  O307  1  0.24049340  0.25306751  0.38796726  1
  O  O308  1  0.24001993  0.25372535  0.88389071  1
  O  O309  1  0.24111861  0.75387110  0.38491281  1
  O  O310  1  0.24444432  0.74423375  0.88023494  1
  O  O311  1  0.73519665  0.25147240  0.36987422  1
  O  O312  1  0.74194014  0.24647318  0.87555003  1
  O  O313  1  0.76161988  0.73914527  0.35609899  1
  O  O314  1  0.75551005  0.73828210  0.88125206  1
  O  O315  1  0.01240299  0.12942160  -0.00387215  1
  O  O316  1  -0.00325720  0.11125783  0.50483643  1
  O  O317  1  -0.00472088  0.63071485  0.01206332  1
  O  O318  1  0.00162301  0.61713691  0.50729996  1
  O  O319  1  0.49843052  0.12363649  0.01451911  1
  O  O320  1  0.51566920  0.13057188  0.51065242  1
  O  O321  1  0.50322010  0.61930927  0.01264769  1
  O  O322  1  0.50860606  0.61776355  0.50812652  1
  O  O323  1  0.50298119  0.38737939  0.49389913  1
  O  O324  1  0.49442554  0.38166063  0.99188745  1
  O  O325  1  0.47833063  0.87192958  0.52124803  1
  O  O326  1  0.48486420  0.87183942  0.99342764  1
  O  O327  1  0.99198920  0.38012887  0.49496170  1
  O  O328  1  0.98944136  0.37212543  0.98533247  1
  O  O329  1  1.00106388  0.88403422  0.48708177  1
  O  O330  1  0.99451336  0.87782999  0.98806462  1
  O  O331  1  0.49443317  0.49207123  0.38222027  1
  O  O332  1  0.49483261  0.49572043  0.88149569  1
  O  O333  1  0.48550168  1.00321599  0.37005665  1
  O  O334  1  0.48799795  1.00281607  0.87620388  1
  O  O335  1  0.99114465  0.49182687  0.37773724  1
  O  O336  1  0.99058844  0.49313954  0.86973640  1
  O  O337  1  1.00719908  0.99216531  0.38145713  1
  O  O338  1  0.99427961  0.99508333  0.87721280  1
  O  O339  1  0.01605737  0.00170660  0.12119877  1
  O  O340  1  0.00494005  0.00433545  0.61833671  1
  O  O341  1  0.01763134  0.50925194  0.12730163  1
  O  O342  1  0.00288556  0.50659517  0.62118879  1
  O  O343  1  0.50865872  0.00601711  0.12614416  1
  O  O344  1  0.51710577  0.01454338  0.62758833  1
  O  O345  1  0.50333019  0.50797191  0.12469240  1
  O  O346  1  0.50659567  0.50503736  0.61750751  1
  O  O347  1  0.24585202  0.38619719  0.24889815  1
  O  O348  1  0.24260064  0.38521115  0.74448273  1
  O  O349  1  0.24599057  0.87595843  0.24490381  1
  O  O350  1  0.24330789  0.88794560  0.74221587  1
  O  O351  1  0.74366084  0.38679687  0.25309128  1
  O  O352  1  0.74878698  0.38085866  0.74005298  1
  O  O353  1  0.76303234  0.88870621  0.24080758  1
  O  O354  1  0.73233470  0.87922913  0.75520709  1
  O  O355  1  0.26427351  0.12832038  0.25280783  1
  O  O356  1  0.24831925  0.11446562  0.74685289  1
  O  O357  1  0.25843315  0.61325158  0.24913715  1
  O  O358  1  0.24386834  0.61340434  0.75465970  1
  O  O359  1  0.75755535  0.11400729  0.25521550  1
  O  O360  1  0.74530877  0.12452249  0.76492113  1
  O  O361  1  0.76344591  0.60964724  0.25252759  1
  O  O362  1  0.75655704  0.62544294  0.75478086  1
  O  O363  1  0.37458610  0.11523341  0.36914074  1
  O  O364  1  0.36917620  0.11643596  0.87401443  1
  O  O365  1  0.37974445  0.61542891  0.36694203  1
  O  O366  1  0.36956245  0.62511676  0.86623074  1
  O  O367  1  0.87156592  0.13542484  0.35700512  1
  O  O368  1  0.86795531  0.11799804  0.87966357  1
  O  O369  1  0.88222491  0.61265590  0.36241306  1
  O  O370  1  0.86973215  0.62269504  0.86854428  1
  O  O371  1  0.12480852  0.38780626  0.13088295  1
  O  O372  1  0.12996891  0.38102840  0.63053107  1
  O  O373  1  0.12668869  0.89036145  0.12347027  1
  O  O374  1  0.13232732  0.88428270  0.62866176  1
  O  O375  1  0.61670579  0.38863325  0.13120072  1
  O  O376  1  0.63179079  0.38227548  0.62424996  1
  O  O377  1  0.62042448  0.88322393  0.12164665  1
  O  O378  1  0.62259770  0.88970791  0.62116963  1
  O  O379  1  0.11952814  0.25616487  0.25361220  1
  O  O380  1  0.11846837  0.25718756  0.75361971  1
  O  O381  1  0.11851423  0.74834422  0.25640725  1
  O  O382  1  0.11954421  0.75875833  0.75576604  1
  O  O383  1  0.61824512  0.25295909  0.25847992  1
  O  O384  1  0.61730901  0.25601697  0.76456914  1
  O  O385  1  0.61107149  0.74387477  0.25484195  1
  O  O386  1  0.62644138  0.76241321  0.74548975  1
  O  O387  1  0.38070667  0.24593125  0.24766602  1
  O  O388  1  0.37785945  0.24645222  0.75407910  1
  O  O389  1  0.38026465  0.74268498  0.24990711  1
  O  O390  1  0.36641111  0.75052227  0.74512629  1
  O  O391  1  0.88262308  0.24870005  0.24150502  1
  O  O392  1  0.88692006  0.25661443  0.74809695  1
  O  O393  1  0.89483357  0.73588911  0.24296590  1
  O  O394  1  0.88037292  0.74042304  0.74569267  1
  O  O395  1  0.38271596  0.50576452  0.48876799  1
  O  O396  1  0.37878669  0.49780892  0.99518021  1
  O  O397  1  0.37114987  0.99441536  0.48656209  1
  O  O398  1  0.37353007  0.99355764  0.99269213  1
  O  O399  1  0.87991122  0.49392562  0.49169745  1
  O  O400  1  0.87306086  0.49729519  0.98948168  1
  O  O401  1  0.87744523  0.99774557  0.49410784  1
  O  O402  1  0.87711233  0.99259003  0.99044283  1
  O  O403  1  0.12502542  0.01172555  0.00697073  1
  O  O404  1  0.11531285  -0.00563574  0.50787177  1
  O  O405  1  0.13196235  0.49702544  0.01190655  1
  O  O406  1  0.11904349  0.49941926  0.50549494  1
  O  O407  1  0.62216390  0.00080461  0.00978966  1
  O  O408  1  0.62487359  0.01345605  0.50968788  1
  O  O409  1  0.61773373  0.50633656  0.00832823  1
  O  O410  1  0.61772822  0.50434116  0.50864409  1
  O  O411  1  0.37528189  0.36977542  0.11909762  1
  O  O412  1  0.36305467  0.38229156  0.62758298  1
  O  O413  1  0.37330198  0.87076199  0.11782654  1
  O  O414  1  0.36013481  0.87992271  0.62290671  1
  O  O415  1  0.88177010  0.36959904  0.11517711  1
  O  O416  1  0.86731096  0.37389999  0.61676991  1
  O  O417  1  0.88464450  0.88161145  0.10845886  1
  O  O418  1  0.87989815  0.85972431  0.62742399  1
  O  O419  1  0.12871557  0.14101275  0.36780630  1
  O  O420  1  0.12864392  0.13276717  0.88281650  1
  O  O421  1  0.11877054  0.63829497  0.37779160  1
  O  O422  1  0.13525832  0.63057447  0.87187542  1
  O  O423  1  0.62548863  0.13926485  0.38979337  1
  O  O424  1  0.62842254  0.13343125  0.87818200  1
  O  O425  1  0.62606192  0.61839927  0.39251447  1
  O  O426  1  0.63087487  0.62129903  0.88384264  1
