# generated using pymatgen
data_V85Zn86O256
_symmetry_space_group_name_H-M   'P 1'
_cell_length_a   16.94494899
_cell_length_b   16.94214229
_cell_length_c   16.93627450
_cell_angle_alpha   90.02583504
_cell_angle_beta   90.00203847
_cell_angle_gamma   90.04420889
_symmetry_Int_Tables_number   1
_chemical_formula_structural   V85Zn86O256
_chemical_formula_sum   'V85 Zn86 O256'
_cell_volume   4862.12702863
_cell_formula_units_Z   1
loop_
 _symmetry_equiv_pos_site_id
 _symmetry_equiv_pos_as_xyz
  1  'x, y, z'
loop_
 _atom_site_type_symbol
 _atom_site_label
 _atom_site_symmetry_multiplicity
 _atom_site_fract_x
 _atom_site_fract_y
 _atom_site_fract_z
 _atom_site_occupancy
  V  V0  1  0.62290393  -0.00406616  0.12956041  1
  V  V1  1  0.37599018  0.50399096  0.87619487  1
  V  V2  1  0.24400265  0.37416194  0.61938010  1
  V  V3  1  0.12085264  0.38165092  0.24929458  1
  V  V4  1  0.88331049  0.49682963  0.87233606  1
  V  V5  1  0.62896701  0.37873160  0.24803339  1
  V  V6  1  0.24740231  0.25022431  -0.00161642  1
  V  V7  1  -0.00134673  -0.00452116  0.00423210  1
  V  V8  1  0.87626871  0.12379671  0.25050305  1
  V  V9  1  0.75715547  0.87294472  0.62403347  1
  V  V10  1  0.12901651  0.00486795  0.63679644  1
  V  V11  1  0.74808139  0.86139298  0.12343329  1
  V  V12  1  0.62628414  0.48903613  0.62391605  1
  V  V13  1  0.37291366  0.38177343  -0.00086623  1
  V  V14  1  0.87028733  0.63085641  0.27366078  1
  V  V15  1  0.76246014  0.49725349  0.26953831  1
  V  V16  1  0.25266083  0.12124938  0.86172529  1
  V  V17  1  0.87300938  -0.00152753  0.87715294  1
  V  V18  1  0.11559539  0.88123135  0.24232737  1
  V  V19  1  0.37641895  0.75091245  0.62308037  1
  V  V20  1  0.74988005  0.62622180  0.87780760  1
  V  V21  1  0.13469803  0.25517782  0.37774917  1
  V  V22  1  0.62775570  0.24713340  0.37721702  1
  V  V23  1  0.12882405  0.62209548  0.49886704  1
  V  V24  1  0.00547362  0.64213776  0.62886715  1
  V  V25  1  0.75254082  0.38151129  0.12517136  1
  V  V26  1  0.56750103  0.57218475  0.09052191  1
  V  V27  1  -0.00480245  0.13004831  0.62531444  1
  V  V28  1  0.37512134  0.62420170  0.75020662  1
  V  V29  1  0.63374247  0.73495428  0.38527269  1
  V  V30  1  0.75255286  0.49207437  0.74585706  1
  V  V31  1  0.51048976  0.74385258  0.75146810  1
  V  V32  1  0.11690717  0.25564343  0.87608975  1
  V  V33  1  0.12557848  0.11787163  0.00093221  1
  V  V34  1  0.25349068  0.88141537  0.63069215  1
  V  V35  1  0.49393876  0.24714291  0.75021161  1
  V  V36  1  0.62466809  0.12552117  0.00067528  1
  V  V37  1  0.50094549  0.87195169  0.87992548  1
  V  V38  1  0.50350196  0.62245138  0.61981315  1
  V  V39  1  0.87846969  0.87491986  0.50162536  1
  V  V40  1  -0.00107031  0.24999869  0.25356583  1
  V  V41  1  0.49831556  -0.00184863  0.49790649  1
  V  V42  1  0.50546676  0.50156663  0.49457577  1
  V  V43  1  0.87888962  -0.00815332  0.37401927  1
  V  V44  1  0.37240664  0.36956864  0.50148171  1
  V  V45  1  0.74739867  -0.00490089  0.24924167  1
  V  V46  1  0.62918996  0.74206564  0.89356893  1
  V  V47  1  0.37013728  -0.00607023  0.37180659  1
  V  V48  1  0.62767473  0.86857258  0.74966762  1
  V  V49  1  0.24895798  0.50104480  0.73978834  1
  V  V50  1  0.50185429  0.24961533  0.24960947  1
  V  V51  1  0.50019757  0.37918544  0.87560738  1
  V  V52  1  0.12133297  0.38159683  0.75135806  1
  V  V53  1  0.24886779  0.88504196  0.12369916  1
  V  V54  1  0.74971936  0.25313031  0.00246560  1
  V  V55  1  0.12158541  0.50903520  0.12437606  1
  V  V56  1  -0.00567136  0.25524409  0.74986176  1
  V  V57  1  0.49886613  0.12829508  0.12218537  1
  V  V58  1  0.12070423  0.76136050  0.37405251  1
  V  V59  1  0.50034000  0.37588626  0.37511983  1
  V  V60  1  0.37349430  0.25052841  0.12234158  1
  V  V61  1  0.25030835  0.74814487  -0.00044914  1
  V  V62  1  -0.02368469  0.62866108  0.12096388  1
  V  V63  1  0.00411765  0.00085080  0.49738892  1
  V  V64  1  0.74707482  0.12433795  0.87715890  1
  V  V65  1  0.37771031  0.73788360  0.13660376  1
  V  V66  1  0.88258496  0.37790568  -0.00383323  1
  V  V67  1  -0.00869441  0.38282542  0.37693600  1
  V  V68  1  0.86939764  0.86188182  0.00321581  1
  V  V69  1  0.75151232  0.12392927  0.37582664  1
  V  V70  1  -0.00155335  0.86653007  0.87114573  1
  V  V71  1  0.87235226  0.37225359  0.51541431  1
  V  V72  1  0.36914887  0.24351392  0.62722163  1
  V  V73  1  0.12462227  0.86637554  0.75013031  1
  V  V74  1  0.62569869  0.12296955  0.50032082  1
  V  V75  1  0.36992930  0.12758619  0.25089208  1
  V  V76  1  0.74730801  0.00138564  0.75341266  1
  V  V77  1  0.00406146  0.12247991  0.12574642  1
  V  V78  1  0.87426816  0.12670748  0.74855731  1
  V  V79  1  0.13290039  0.13135921  0.50074269  1
  V  V80  1  0.00156279  0.50016905  0.50840023  1
  V  V81  1  0.75534104  0.24891009  0.51651651  1
  V  V82  1  0.87683584  0.63681969  0.74313059  1
  V  V83  1  0.62325955  -0.00076991  0.62575608  1
  V  V84  1  0.62361795  0.25066782  0.87726560  1
  Zn  Zn85  1  0.24943510  0.75491134  0.49871494  1
  Zn  Zn86  1  0.25439226  0.63147182  0.36174708  1
  Zn  Zn87  1  0.82655117  0.71149620  0.56258666  1
  Zn  Zn88  1  -0.01074269  0.75591221  0.24812585  1
  Zn  Zn89  1  0.25451754  0.51193367  0.24682944  1
  Zn  Zn90  1  0.25323361  0.13250271  0.37831135  1
  Zn  Zn91  1  0.24609619  0.62489324  0.87467500  1
  Zn  Zn92  1  0.49579492  -0.00165855  0.00057189  1
  Zn  Zn93  1  0.37483295  0.87577368  0.49789872  1
  Zn  Zn94  1  0.49039787  0.12033560  0.62910582  1
  Zn  Zn95  1  0.36380151  -0.00436462  0.86693802  1
  Zn  Zn96  1  0.24277178  0.00462061  0.24768856  1
  Zn  Zn97  1  0.37585993  0.87487968  0.00111690  1
  Zn  Zn98  1  0.00068787  0.49841323  -0.00370246  1
  Zn  Zn99  1  0.24438487  0.37927356  0.12113208  1
  Zn  Zn100  1  0.12327750  0.74687556  0.87401284  1
  Zn  Zn101  1  0.52052661  0.87766310  0.36304916  1
  Zn  Zn102  1  0.87637526  0.24988308  0.12535489  1
  Zn  Zn103  1  0.51272565  0.76836116  0.24601923  1
  Zn  Zn104  1  0.62959209  0.37290939  0.74953561  1
  Zn  Zn105  1  0.37572853  0.51088250  0.36557587  1
  Zn  Zn106  1  0.11885398  0.62618441  -0.00273591  1
  Zn  Zn107  1  0.18440063  0.19157666  0.18661395  1
  Zn  Zn108  1  0.18313939  0.19456055  0.68650950  1
  Zn  Zn109  1  0.18532774  0.69160168  0.18670229  1
  Zn  Zn110  1  0.18946416  0.68709866  0.68299105  1
  Zn  Zn111  1  0.68865375  0.18850507  0.18693553  1
  Zn  Zn112  1  0.68069709  0.18491583  0.69205062  1
  Zn  Zn113  1  0.67624620  0.67798318  0.19679117  1
  Zn  Zn114  1  0.70142118  0.66628038  0.65846724  1
  Zn  Zn115  1  0.31981856  0.33918107  0.29948094  1
  Zn  Zn116  1  0.30890016  0.31223629  0.81178863  1
  Zn  Zn117  1  0.30507764  0.81154727  0.30810436  1
  Zn  Zn118  1  0.31425164  0.81129229  0.80992488  1
  Zn  Zn119  1  0.81406538  0.30997107  0.31877092  1
  Zn  Zn120  1  0.81364266  0.31280096  0.81352814  1
  Zn  Zn121  1  0.79057873  0.80916272  0.31744444  1
  Zn  Zn122  1  0.81178211  0.81099520  0.81216490  1
  Zn  Zn123  1  0.18830476  0.44390152  0.43427599  1
  Zn  Zn124  1  0.18667532  0.44178968  0.93475030  1
  Zn  Zn125  1  0.18989102  0.93960017  0.43894481  1
  Zn  Zn126  1  0.18692262  0.93690594  0.93648647  1
  Zn  Zn127  1  0.68758332  0.43268609  0.44226631  1
  Zn  Zn128  1  0.68829409  0.44866669  0.94037020  1
  Zn  Zn129  1  0.68928388  0.92971409  0.43786946  1
  Zn  Zn130  1  0.68071552  0.93435782  0.94124126  1
  Zn  Zn131  1  0.31479621  0.05939825  0.05456425  1
  Zn  Zn132  1  0.31041828  0.06157586  0.56174414  1
  Zn  Zn133  1  0.30841255  0.56469146  0.06557502  1
  Zn  Zn134  1  0.33452660  0.58142182  0.52554257  1
  Zn  Zn135  1  0.81356550  0.05988347  0.06405893  1
  Zn  Zn136  1  0.81299159  0.05967304  0.56350171  1
  Zn  Zn137  1  0.77475678  0.57799312  0.07804297  1
  Zn  Zn138  1  0.80993503  0.54665763  0.55656196  1
  Zn  Zn139  1  0.43677627  0.44203349  0.18643670  1
  Zn  Zn140  1  0.43613961  0.43456171  0.68668617  1
  Zn  Zn141  1  0.43202405  0.93666215  0.18720565  1
  Zn  Zn142  1  0.43664108  0.93604738  0.69368875  1
  Zn  Zn143  1  0.93473207  0.44170385  0.18528815  1
  Zn  Zn144  1  0.94008506  0.44188766  0.68695117  1
  Zn  Zn145  1  0.93270870  0.93623984  0.18358146  1
  Zn  Zn146  1  0.94090834  0.94083356  0.68846736  1
  Zn  Zn147  1  0.06441063  0.06319856  0.31605107  1
  Zn  Zn148  1  0.06188624  0.06244701  0.81650848  1
  Zn  Zn149  1  0.05926264  0.56635720  0.31512805  1
  Zn  Zn150  1  0.06342626  0.56642200  0.80954370  1
  Zn  Zn151  1  0.55898787  0.05878462  0.31089836  1
  Zn  Zn152  1  0.53083389  0.04643814  0.79931954  1
  Zn  Zn153  1  0.56833520  0.56890182  0.29566483  1
  Zn  Zn154  1  0.56529506  0.56043335  0.81216336  1
  Zn  Zn155  1  0.43735662  0.18725481  0.43915504  1
  Zn  Zn156  1  0.43506568  0.18880982  0.93686449  1
  Zn  Zn157  1  0.44697937  0.69110106  0.42880098  1
  Zn  Zn158  1  0.44196038  0.68216619  0.95204936  1
  Zn  Zn159  1  0.93872073  0.18953930  0.43753206  1
  Zn  Zn160  1  0.93577714  0.18738063  0.93708533  1
  Zn  Zn161  1  0.95034835  0.68841913  0.43399065  1
  Zn  Zn162  1  0.93217447  0.68365879  0.93510300  1
  Zn  Zn163  1  0.06091037  0.31172757  0.06536526  1
  Zn  Zn164  1  0.06220358  0.31336137  0.56408563  1
  Zn  Zn165  1  0.06038248  0.80703932  0.06485107  1
  Zn  Zn166  1  0.06493708  0.81747478  0.56062592  1
  Zn  Zn167  1  0.56735007  0.40063277  0.05758277  1
  Zn  Zn168  1  0.56034805  0.30887882  0.56263231  1
  Zn  Zn169  1  0.56144012  0.81075548  0.06833850  1
  Zn  Zn170  1  0.56453212  0.81373503  0.55713072  1
  O  O171  1  0.11267354  0.12937479  0.11669180  1
  O  O172  1  0.11948564  0.12169532  0.61989295  1
  O  O173  1  0.11312498  0.61675360  0.12498957  1
  O  O174  1  0.11264999  0.62891776  0.61907064  1
  O  O175  1  0.61692536  0.12264738  0.12082061  1
  O  O176  1  0.62465167  0.11096064  0.62043814  1
  O  O177  1  0.66681226  0.61570222  0.10323740  1
  O  O178  1  0.60643531  0.60667128  0.63541290  1
  O  O179  1  0.39109427  0.36281950  0.38658932  1
  O  O180  1  0.37857553  0.38099095  0.87957280  1
  O  O181  1  0.36718795  0.88871489  0.37444598  1
  O  O182  1  0.38926498  0.87304391  0.87338125  1
  O  O183  1  0.88891115  0.36703588  0.38557177  1
  O  O184  1  0.86949417  0.38468837  0.88325700  1
  O  O185  1  0.86596552  0.88787313  0.38069200  1
  O  O186  1  0.87942862  0.88038591  0.87980213  1
  O  O187  1  0.25673481  0.00947052  0.37317592  1
  O  O188  1  0.24609798  0.01583333  0.87444346  1
  O  O189  1  0.25368017  0.50705768  0.36942194  1
  O  O190  1  0.26186338  0.50027847  0.86393709  1
  O  O191  1  0.75545282  0.00510392  0.36729402  1
  O  O192  1  0.75046036  0.00434920  0.87267983  1
  O  O193  1  0.75374689  0.48982053  0.36818144  1
  O  O194  1  0.75595966  0.50965404  0.86611863  1
  O  O195  1  0.23646116  0.49769589  0.12615291  1
  O  O196  1  0.25748806  0.48958857  0.63801309  1
  O  O197  1  0.24990142  0.98917028  0.12219481  1
  O  O198  1  0.24141551  0.99539118  0.62505842  1
  O  O199  1  0.75971876  0.48312525  0.14194257  1
  O  O200  1  0.73833159  0.49214241  0.63311863  1
  O  O201  1  0.74224388  0.99926934  0.13362366  1
  O  O202  1  0.74228729  0.99462136  0.63311103  1
  O  O203  1  0.00261898  0.37165213  0.25738132  1
  O  O204  1  0.00853963  0.36756535  0.74316225  1
  O  O205  1  0.01029755  0.87450462  0.24089025  1
  O  O206  1  0.00891425  0.88184062  0.76004923  1
  O  O207  1  0.51188601  0.36837138  0.25613070  1
  O  O208  1  0.50018774  0.36638356  0.76148946  1
  O  O209  1  0.50596034  0.88569356  0.24950019  1
  O  O210  1  0.51004347  0.86104602  0.75721393  1
  O  O211  1  0.48805937  0.12907318  0.24427941  1
  O  O212  1  0.51302657  0.14478050  0.74472658  1
  O  O213  1  0.54482608  0.60629478  0.19005866  1
  O  O214  1  0.49326571  0.62816002  0.74535461  1
  O  O215  1  0.99805250  0.12821679  0.24336402  1
  O  O216  1  0.99609231  0.13157714  0.74454965  1
  O  O217  1  0.97963981  0.62250372  0.24351181  1
  O  O218  1  0.99390364  0.62030331  0.73461187  1
  O  O219  1  0.36428213  0.25695658  0.00219223  1
  O  O220  1  0.38092845  0.26092858  0.51046945  1
  O  O221  1  0.36481171  0.75166510  0.00857255  1
  O  O222  1  0.37843531  0.75593784  0.51487810  1
  O  O223  1  0.86322801  0.25675840  -0.00396913  1
  O  O224  1  0.86841732  0.25873295  0.49934985  1
  O  O225  1  0.87428906  0.76325000  -0.00553415  1
  O  O226  1  0.89137708  0.76981212  0.49320590  1
  O  O227  1  0.11747192  0.24318310  0.49052461  1
  O  O228  1  0.12735611  0.24411989  0.99371634  1
  O  O229  1  0.12225127  0.74899332  0.48804669  1
  O  O230  1  0.13714346  0.74931222  0.99981101  1
  O  O231  1  0.63194076  0.24317092  0.49649812  1
  O  O232  1  0.63772226  0.24707738  0.99026230  1
  O  O233  1  0.61422167  0.74429406  0.48748309  1
  O  O234  1  0.62740204  0.75269576  0.99189532  1
  O  O235  1  0.49490388  0.23684996  0.13221105  1
  O  O236  1  0.48957878  0.25055866  0.63354159  1
  O  O237  1  0.48215638  0.75781479  0.12976974  1
  O  O238  1  0.49796027  0.74244865  0.63232834  1
  O  O239  1  0.99764002  0.24134155  0.13408148  1
  O  O240  1  1.00584526  0.23812476  0.63511885  1
  O  O241  1  0.99840442  0.73223806  0.13025847  1
  O  O242  1  1.00313766  0.74121894  0.62350116  1
  O  O243  1  0.00728945  0.25675780  0.36860482  1
  O  O244  1  0.00977424  0.24427981  0.86772085  1
  O  O245  1  0.01579910  0.75209830  0.36593102  1
  O  O246  1  0.00039189  0.76363527  0.88044955  1
  O  O247  1  0.50836471  0.25376170  0.37003323  1
  O  O248  1  0.50586424  0.25493046  0.86996773  1
  O  O249  1  0.50429168  0.75907159  0.36557585  1
  O  O250  1  0.50974874  0.75041755  0.87193554  1
  O  O251  1  0.23620212  0.12710895  0.50029498  1
  O  O252  1  0.23946973  0.13206336  0.99641383  1
  O  O253  1  0.23236898  0.63335208  0.51346425  1
  O  O254  1  0.24677262  0.63824926  0.99884376  1
  O  O255  1  0.74618622  0.12890083  0.49609533  1
  O  O256  1  0.74738196  0.13356597  0.99742600  1
  O  O257  1  0.74662226  0.63602681  0.55400166  1
  O  O258  1  0.76693960  0.62582171  0.97479817  1
  O  O259  1  0.25470007  0.36682751  -0.00284894  1
  O  O260  1  0.25855537  0.38105338  0.50905821  1
  O  O261  1  0.24809040  0.86727400  0.00636936  1
  O  O262  1  0.25225906  0.87564545  0.51565755  1
  O  O263  1  0.75559032  0.36990542  0.00818019  1
  O  O264  1  0.76436570  0.36496569  0.49902838  1
  O  O265  1  0.75583298  0.87894224  0.01338308  1
  O  O266  1  0.76541796  0.88548352  0.51259523  1
  O  O267  1  0.11839590  0.49479342  0.24299774  1
  O  O268  1  0.13316946  0.48926623  0.75579600  1
  O  O269  1  0.12433058  0.98576928  0.25599547  1
  O  O270  1  0.11951375  0.99590633  0.73961809  1
  O  O271  1  0.64224670  0.48293385  0.25737817  1
  O  O272  1  0.63386803  0.49524914  0.74425139  1
  O  O273  1  0.63408617  1.00969525  0.23792990  1
  O  O274  1  0.62565464  0.99315380  0.74119957  1
  O  O275  1  0.36894215  0.01204860  0.25582593  1
  O  O276  1  0.42071574  0.01292250  0.77119499  1
  O  O277  1  0.35971210  0.45805067  0.26211810  1
  O  O278  1  0.36935240  0.50483725  0.75567597  1
  O  O279  1  0.86997169  0.00454570  0.25660181  1
  O  O280  1  0.86878225  0.00658749  0.75818554  1
  O  O281  1  0.86749359  0.50309497  0.25732227  1
  O  O282  1  0.86971742  0.50419841  0.75390775  1
  O  O283  1  0.11460717  0.37150182  0.36935126  1
  O  O284  1  0.12860709  0.36561463  0.86604485  1
  O  O285  1  0.12900701  0.86798544  0.36612295  1
  O  O286  1  0.11671836  0.87576390  0.86623688  1
  O  O287  1  0.61696907  0.36698888  0.37218613  1
  O  O288  1  0.61619446  0.37010337  0.87843551  1
  O  O289  1  0.63293711  0.85742382  0.37793473  1
  O  O290  1  0.62710215  0.85730239  0.86766975  1
  O  O291  1  0.37975939  0.12928678  0.12832897  1
  O  O292  1  0.37243192  0.13878413  0.62047749  1
  O  O293  1  0.37263993  0.63908619  0.12362052  1
  O  O294  1  0.38405207  0.63277287  0.62668233  1
  O  O295  1  0.88684284  0.12576262  0.13004801  1
  O  O296  1  0.88504845  0.11865845  0.63326401  1
  O  O297  1  0.87576392  0.62052411  0.12816034  1
  O  O298  1  0.89106526  0.62664082  0.62750456  1
  O  O299  1  0.24993165  0.25255670  0.11070474  1
  O  O300  1  0.25688213  0.26137555  0.62989316  1
  O  O301  1  0.25612751  0.75896094  0.11540249  1
  O  O302  1  0.26120044  0.75967884  0.62608559  1
  O  O303  1  0.75499087  0.25533550  0.11681346  1
  O  O304  1  0.74437508  0.24299638  0.61563686  1
  O  O305  1  0.74384048  0.76468144  0.13424737  1
  O  O306  1  0.75256775  0.77109703  0.63877312  1
  O  O307  1  0.23630347  0.25583216  0.36732937  1
  O  O308  1  0.23905492  0.24410098  0.88280714  1
  O  O309  1  0.23700777  0.75042118  0.37941332  1
  O  O310  1  0.25155291  0.75188114  0.88840356  1
  O  O311  1  0.74463881  0.24168238  0.38370901  1
  O  O312  1  0.74265551  0.24644384  0.88090013  1
  O  O313  1  0.73726998  0.73728831  0.38326686  1
  O  O314  1  0.74154489  0.73470422  0.86370046  1
  O  O315  1  0.00430435  0.11923479  0.00574712  1
  O  O316  1  0.00572932  0.11999497  0.50807521  1
  O  O317  1  -0.00572917  0.62314674  0.01148711  1
  O  O318  1  0.00683125  0.62048860  0.50988480  1
  O  O319  1  0.50468478  0.12622198  0.00679328  1
  O  O320  1  0.50712667  0.11494666  0.50300474  1
  O  O321  1  0.51508425  0.62428749  0.02186762  1
  O  O322  1  0.49450533  0.61245454  0.50920681  1
  O  O323  1  0.49726355  0.37778017  0.49146330  1
  O  O324  1  0.48610383  0.36560907  0.98341666  1
  O  O325  1  0.49660213  0.88982857  0.49866440  1
  O  O326  1  0.49789190  0.87148502  0.99323442  1
  O  O327  1  0.99372471  0.37986065  0.49720033  1
  O  O328  1  0.98586610  0.37307472  1.00225704  1
  O  O329  1  0.99617631  0.89403626  0.50806798  1
  O  O330  1  0.99333574  0.88058451  0.99776450  1
  O  O331  1  0.49952075  0.49172547  0.37691239  1
  O  O332  1  0.48755607  0.49226500  0.86922717  1
  O  O333  1  0.49133848  0.99932325  0.38206095  1
  O  O334  1  0.53073614  0.97460047  0.88785768  1
  O  O335  1  1.00404392  0.49141039  0.38840548  1
  O  O336  1  0.98676631  0.50477496  0.87422181  1
  O  O337  1  0.99095473  1.00649452  0.38519419  1
  O  O338  1  0.99443117  0.99336492  0.88646479  1
  O  O339  1  -0.00474023  0.00654817  0.11215106  1
  O  O340  1  0.00896069  0.01290228  0.62020336  1
  O  O341  1  0.00111458  0.51323736  0.12209806  1
  O  O342  1  -0.00004365  0.50690580  0.61233848  1
  O  O343  1  0.50629105  0.01246732  0.12322527  1
  O  O344  1  0.50743394  0.00010135  0.61725266  1
  O  O345  1  0.50714492  0.48197820  0.11274824  1
  O  O346  1  0.50197408  0.50334449  0.61746227  1
  O  O347  1  0.22580097  0.36937915  0.24164673  1
  O  O348  1  0.24097951  0.38016205  0.74418520  1
  O  O349  1  0.23753499  0.87918133  0.23922201  1
  O  O350  1  0.24296199  0.87561812  0.74053087  1
  O  O351  1  0.75024292  0.37778738  0.24829228  1
  O  O352  1  0.74997326  0.38720602  0.75558380  1
  O  O353  1  0.75612495  0.88860495  0.23890416  1
  O  O354  1  0.74564402  0.88422956  0.74809102  1
  O  O355  1  0.25995090  0.12815156  0.24761063  1
  O  O356  1  0.24097306  0.13150159  0.76374245  1
  O  O357  1  0.25019624  0.62609050  0.24745640  1
  O  O358  1  0.25627590  0.61780121  0.74978174  1
  O  O359  1  0.75689835  0.11648721  0.25353576  1
  O  O360  1  0.75317103  0.12075829  0.75731858  1
  O  O361  1  0.76270530  0.60662955  0.25126748  1
  O  O362  1  0.76102362  0.61265268  0.74961478  1
  O  O363  1  0.37377905  0.12121098  0.36628217  1
  O  O364  1  0.35405842  0.13194659  0.87803980  1
  O  O365  1  0.36254242  0.61785638  0.41163922  1
  O  O366  1  0.37669509  0.61781784  0.87350940  1
  O  O367  1  0.87055389  0.11588469  0.37118599  1
  O  O368  1  0.86706651  0.11890862  0.87050122  1
  O  O369  1  0.87845510  0.62197377  0.37188368  1
  O  O370  1  0.86966456  0.61792067  0.86130011  1
  O  O371  1  0.11593946  0.38842751  0.13198955  1
  O  O372  1  0.13576199  0.36972773  0.63397922  1
  O  O373  1  0.12987588  0.87066881  0.13615445  1
  O  O374  1  0.13096691  0.88469160  0.63236488  1
  O  O375  1  0.63950321  0.36089687  0.13866472  1
  O  O376  1  0.61436735  0.38456260  0.63027120  1
  O  O377  1  0.63692586  0.88518329  0.11967734  1
  O  O378  1  0.63143048  0.88318447  0.62869766  1
  O  O379  1  0.11423485  0.25652743  0.25589866  1
  O  O380  1  0.11443466  0.25853091  0.75786698  1
  O  O381  1  0.12229156  0.76415919  0.25766373  1
  O  O382  1  0.12881344  0.76320751  0.75036457  1
  O  O383  1  0.62393563  0.25519172  0.25889375  1
  O  O384  1  0.62169274  0.25503878  0.76357347  1
  O  O385  1  0.62446911  0.74481004  0.26566374  1
  O  O386  1  0.61561472  0.74626283  0.74960155  1
  O  O387  1  0.37935004  0.24858629  0.24162331  1
  O  O388  1  0.38224750  0.25586166  0.74201338  1
  O  O389  1  0.37421572  0.75256269  0.23855587  1
  O  O390  1  0.38589674  0.74397183  0.74143893  1
  O  O391  1  0.88235150  0.24156479  0.25191196  1
  O  O392  1  0.88762272  0.24514224  0.75679928  1
  O  O393  1  0.86897558  0.73459891  0.26176521  1
  O  O394  1  0.87507996  0.73627931  0.75210698  1
  O  O395  1  0.39098777  0.48181665  0.50082001  1
  O  O396  1  0.36529583  0.48963979  0.99228332  1
  O  O397  1  0.38197818  1.00261705  0.49086623  1
  O  O398  1  0.37936723  0.99561988  0.98638896  1
  O  O399  1  0.88195616  0.48148936  0.50126116  1
  O  O400  1  0.87335617  0.48983408  0.98868694  1
  O  O401  1  0.88378216  0.99684808  0.49280383  1
  O  O402  1  0.88120444  0.99357924  0.99437905  1
  O  O403  1  0.11573608  0.01142245  -0.00501511  1
  O  O404  1  0.11918216  0.00934280  0.50683538  1
  O  O405  1  0.12000807  0.50228014  0.00723996  1
  O  O406  1  0.11621735  0.51108847  0.49725516  1
  O  O407  1  0.62708529  0.00933803  0.01515909  1
  O  O408  1  0.62003553  0.00276663  0.50600264  1
  O  O409  1  0.62396208  0.49442946  0.02051263  1
  O  O410  1  0.61358072  0.49145010  0.50722656  1
  O  O411  1  0.37108598  0.36705606  0.11246075  1
  O  O412  1  0.36643253  0.36689889  0.61963630  1
  O  O413  1  0.36104302  0.87124182  0.12236767  1
  O  O414  1  0.36950183  0.87037937  0.62933433  1
  O  O415  1  0.86981332  0.37049097  0.11670798  1
  O  O416  1  0.88131932  0.37034376  0.61409217  1
  O  O417  1  0.85919647  0.87865848  0.11655850  1
  O  O418  1  0.86981307  0.88616405  0.61642681  1
  O  O419  1  0.12585838  0.13623830  0.38339475  1
  O  O420  1  0.13022460  0.13318001  0.88297382  1
  O  O421  1  0.12409815  0.63696602  0.38365033  1
  O  O422  1  0.12708813  0.62944055  0.87776638  1
  O  O423  1  0.63038444  0.12691889  0.38025752  1
  O  O424  1  0.62892328  0.13425154  0.88234956  1
  O  O425  1  0.61141787  0.63318285  0.37562894  1
  O  O426  1  0.63972064  0.62731315  0.87095226  1
