# generated using pymatgen
data_V85Zn86O256
_symmetry_space_group_name_H-M   'P 1'
_cell_length_a   16.93358299
_cell_length_b   16.92660227
_cell_length_c   16.92590973
_cell_angle_alpha   89.92553313
_cell_angle_beta   89.96014567
_cell_angle_gamma   89.96669260
_symmetry_Int_Tables_number   1
_chemical_formula_structural   V85Zn86O256
_chemical_formula_sum   'V85 Zn86 O256'
_cell_volume   4851.43397669
_cell_formula_units_Z   1
loop_
 _symmetry_equiv_pos_site_id
 _symmetry_equiv_pos_as_xyz
  1  'x, y, z'
loop_
 _atom_site_type_symbol
 _atom_site_label
 _atom_site_symmetry_multiplicity
 _atom_site_fract_x
 _atom_site_fract_y
 _atom_site_fract_z
 _atom_site_occupancy
  V  V0  1  0.24658207  0.77214956  0.50556278  1
  V  V1  1  0.75284671  0.12336600  0.87310770  1
  V  V2  1  0.88742294  0.62894407  0.74750091  1
  V  V3  1  0.75441364  0.26724959  0.49936695  1
  V  V4  1  0.87005270  0.75629380  0.12921971  1
  V  V5  1  0.25068148  0.63080240  0.87245882  1
  V  V6  1  0.75239993  0.73453831  0.49718425  1
  V  V7  1  0.25037372  -0.00211616  0.24845430  1
  V  V8  1  0.50378159  0.74931427  0.74183540  1
  V  V9  1  0.24648490  0.37345607  0.61984663  1
  V  V10  1  0.74335813  0.37369277  0.13094025  1
  V  V11  1  0.24951564  0.49952025  0.74721298  1
  V  V12  1  0.24751437  0.62662832  0.39166881  1
  V  V13  1  0.87569459  0.37483116  0.00291710  1
  V  V14  1  0.12334385  0.51192819  0.62065992  1
  V  V15  1  0.87857615  0.24380599  0.12641840  1
  V  V16  1  0.37364142  0.87775483  -0.00486543  1
  V  V17  1  0.25496996  0.51374974  0.25181030  1
  V  V18  1  0.74267018  -0.01099431  0.75000902  1
  V  V19  1  0.87544751  -0.00088827  0.37480743  1
  V  V20  1  0.38208831  0.38392923  0.49553026  1
  V  V21  1  0.74459474  0.49754728  0.25453044  1
  V  V22  1  -0.00324427  0.00278268  0.00414722  1
  V  V23  1  0.87314419  0.62232273  0.25141527  1
  V  V24  1  0.37728433  0.62629571  0.73508187  1
  V  V25  1  0.74525792  0.62151732  0.87269064  1
  V  V26  1  0.49554371  0.62163752  0.13584018  1
  V  V27  1  -0.00057623  0.24404172  0.25010613  1
  V  V28  1  0.50179596  0.12320217  0.12565447  1
  V  V29  1  0.12080337  0.12767253  -0.00597500  1
  V  V30  1  0.12364484  0.86640524  0.75855823  1
  V  V31  1  0.12527469  0.24893451  0.37734936  1
  V  V32  1  0.62852516  0.24913212  0.36929960  1
  V  V33  1  0.60588989  0.50134555  0.62148408  1
  V  V34  1  0.87136184  0.49942510  0.37987212  1
  V  V35  1  0.25585274  -0.00669049  0.75569934  1
  V  V36  1  0.49876480  0.87894751  0.86947767  1
  V  V37  1  0.12400147  0.37663073  0.25181693  1
  V  V38  1  0.87996197  -0.00534207  0.86979416  1
  V  V39  1  0.62387474  0.75372776  0.86826186  1
  V  V40  1  -0.00168644  0.37530127  0.38852005  1
  V  V41  1  0.75112353  0.24973352  0.00032545  1
  V  V42  1  0.51244529  0.87278593  0.36669305  1
  V  V43  1  0.13268025  -0.00566075  0.62682770  1
  V  V44  1  0.37410288  0.74777801  0.13352378  1
  V  V45  1  0.00566010  0.49948892  -0.00011633  1
  V  V46  1  0.86938636  0.87358965  0.50194861  1
  V  V47  1  0.86438172  0.12577394  0.25588851  1
  V  V48  1  0.08254333  0.68441523  -0.05708032  1
  V  V49  1  0.37431179  0.12322239  0.75627196  1
  V  V50  1  0.62466237  0.12334489  0.00168297  1
  V  V51  1  0.24530556  0.25058216  -0.00712424  1
  V  V52  1  0.62927263  -0.01483193  0.12730430  1
  V  V53  1  -0.00276244  0.11810106  0.62569394  1
  V  V54  1  0.60333339  0.62446783  0.49954915  1
  V  V55  1  0.50060716  -0.00684215  0.49997249  1
  V  V56  1  0.75028476  0.49558705  0.73735264  1
  V  V57  1  0.37619667  0.76942704  0.61812299  1
  V  V58  1  0.50206575  0.25064217  0.74674832  1
  V  V59  1  0.62668080  0.25209944  0.87223301  1
  V  V60  1  0.50700928  0.38248577  0.36949300  1
  V  V61  1  0.25038759  0.74694027  -0.00045404  1
  V  V62  1  0.63810437  0.12274696  0.49776358  1
  V  V63  1  0.87315121  0.49614034  0.87580802  1
  V  V64  1  0.00090864  0.51830484  0.50399375  1
  V  V65  1  0.00843321  0.36539452  0.87359598  1
  V  V66  1  0.12350251  0.50848119  0.12722159  1
  V  V67  1  0.11973628  0.00780091  0.12702994  1
  V  V68  1  0.37536852  0.24970823  0.62018064  1
  V  V69  1  0.49668091  -0.00096259  -0.00186050  1
  V  V70  1  0.74463350  0.75876333  0.00604161  1
  V  V71  1  0.25339140  0.12586951  0.37741221  1
  V  V72  1  0.50203596  0.12460493  0.62023377  1
  V  V73  1  0.00153252  -0.00802739  0.49599735  1
  V  V74  1  0.49888526  0.50111328  -0.00097016  1
  V  V75  1  0.37512268  0.24937888  0.12516567  1
  V  V76  1  0.74540654  -0.01565935  0.25296607  1
  V  V77  1  0.62237593  0.62204360  0.00051128  1
  V  V78  1  0.24922105  0.37647407  0.12759952  1
  V  V79  1  0.37769341  0.12545596  0.25033417  1
  V  V80  1  0.37474209  0.37592072  -0.00149875  1
  V  V81  1  0.87338718  0.26056489  0.62510340  1
  V  V82  1  0.37587825  -0.01028346  0.37894511  1
  V  V83  1  0.37601397  0.50266706  0.87296507  1
  V  V84  1  0.11590463  0.87371912  0.25690884  1
  Zn  Zn85  1  0.25330314  0.25049761  0.49694841  1
  Zn  Zn86  1  0.63348443  0.36984281  0.73683269  1
  Zn  Zn87  1  0.62162429  0.49430410  0.12906135  1
  Zn  Zn88  1  0.50747089  0.25258061  0.24804498  1
  Zn  Zn89  1  0.24756020  0.12695260  0.87264717  1
  Zn  Zn90  1  0.50255104  0.37741640  0.87119736  1
  Zn  Zn91  1  0.00505994  0.86181080  0.88105285  1
  Zn  Zn92  1  0.63753340  0.74239163  0.36589979  1
  Zn  Zn93  1  0.74024337  0.86323330  0.62747756  1
  Zn  Zn94  1  0.50472134  0.75279382  0.24865906  1
  Zn  Zn95  1  -0.00018132  0.62956978  0.12344879  1
  Zn  Zn96  1  0.38398032  0.51264203  0.37236508  1
  Zn  Zn97  1  0.11312785  0.74886289  0.39014851  1
  Zn  Zn98  1  0.13014063  0.36684741  0.75133779  1
  Zn  Zn99  1  0.00529517  0.24308147  0.75045862  1
  Zn  Zn100  1  0.87134502  0.87841464  0.00430945  1
  Zn  Zn101  1  0.88335784  0.73835395  0.62206810  1
  Zn  Zn102  1  0.12545156  0.12292041  0.50168994  1
  Zn  Zn103  1  -0.00429117  0.75118894  0.25439683  1
  Zn  Zn104  1  0.62306500  -0.00738764  0.62834248  1
  Zn  Zn105  1  0.24871982  0.87584622  0.12327067  1
  Zn  Zn106  1  0.87506663  0.12328046  0.74724985  1
  Zn  Zn107  1  0.18817403  0.18671615  0.18651627  1
  Zn  Zn108  1  0.18507972  0.18561689  0.68748744  1
  Zn  Zn109  1  0.18749731  0.68977670  0.18720306  1
  Zn  Zn110  1  0.19127816  0.69128183  0.68308338  1
  Zn  Zn111  1  0.68926816  0.18298143  0.18704291  1
  Zn  Zn112  1  0.69096403  0.18297136  0.68335517  1
  Zn  Zn113  1  0.68577956  0.68320787  0.18870154  1
  Zn  Zn114  1  0.68941381  0.68295262  0.68137368  1
  Zn  Zn115  1  0.31550731  0.31656122  0.31133409  1
  Zn  Zn116  1  0.31442279  0.31272801  0.81058381  1
  Zn  Zn117  1  0.30882596  0.81158648  0.31616848  1
  Zn  Zn118  1  0.31386658  0.81207931  0.81107888  1
  Zn  Zn119  1  0.81269310  0.31616456  0.31704588  1
  Zn  Zn120  1  0.81753648  0.31286603  0.80888268  1
  Zn  Zn121  1  0.81548512  0.81202918  0.31918779  1
  Zn  Zn122  1  0.81525212  0.81140020  0.81754835  1
  Zn  Zn123  1  0.18632720  0.44051813  0.43897651  1
  Zn  Zn124  1  0.18815856  0.44139946  0.93874476  1
  Zn  Zn125  1  0.18541686  0.93978714  0.43539802  1
  Zn  Zn126  1  0.18829127  0.94009013  0.93586834  1
  Zn  Zn127  1  0.68310333  0.44286337  0.44089909  1
  Zn  Zn128  1  0.68673796  0.43528156  0.93741377  1
  Zn  Zn129  1  0.69064159  0.93612696  0.43818913  1
  Zn  Zn130  1  0.68258326  0.93719815  0.93493264  1
  Zn  Zn131  1  0.31093643  0.06300537  0.06064128  1
  Zn  Zn132  1  0.31517230  0.05901495  0.56438325  1
  Zn  Zn133  1  0.31115749  0.56557280  0.06235589  1
  Zn  Zn134  1  0.31394574  0.56122009  0.55957293  1
  Zn  Zn135  1  0.81197073  0.06126298  0.06635730  1
  Zn  Zn136  1  0.81500666  0.06018533  0.56581757  1
  Zn  Zn137  1  0.81190393  0.56480619  0.06615401  1
  Zn  Zn138  1  0.81828399  0.55846301  0.56368409  1
  Zn  Zn139  1  0.43657443  0.43690890  0.19090027  1
  Zn  Zn140  1  0.43453649  0.43316807  0.68748497  1
  Zn  Zn141  1  0.43637755  0.93632562  0.18507264  1
  Zn  Zn142  1  0.44088660  0.93843465  0.68885054  1
  Zn  Zn143  1  0.93641527  0.43375617  0.19123806  1
  Zn  Zn144  1  0.93885152  0.44047351  0.68757411  1
  Zn  Zn145  1  0.93491839  0.93969738  0.18571096  1
  Zn  Zn146  1  0.95367331  0.90131252  0.67232969  1
  Zn  Zn147  1  0.05961508  0.06442440  0.31357458  1
  Zn  Zn148  1  0.06387341  0.05893719  0.81174175  1
  Zn  Zn149  1  0.06223537  0.56873059  0.31604548  1
  Zn  Zn150  1  0.06389789  0.54994773  0.80824890  1
  Zn  Zn151  1  0.56700732  0.06338313  0.31395086  1
  Zn  Zn152  1  0.56226602  0.06468816  0.81341521  1
  Zn  Zn153  1  0.56758381  0.56633859  0.31393577  1
  Zn  Zn154  1  0.56168824  0.56433036  0.80652814  1
  Zn  Zn155  1  0.44277964  0.18903639  0.43655944  1
  Zn  Zn156  1  0.43819640  0.18922273  0.93710004  1
  Zn  Zn157  1  0.42889975  0.69363906  0.43483319  1
  Zn  Zn158  1  0.43586566  0.68857641  0.93623078  1
  Zn  Zn159  1  0.93479142  0.18263542  0.44101069  1
  Zn  Zn160  1  0.93779965  0.18336849  0.94002797  1
  Zn  Zn161  1  0.93398785  0.68895548  0.43061067  1
  Zn  Zn162  1  0.91881305  0.68451478  0.93994935  1
  Zn  Zn163  1  0.06352566  0.31371723  0.06483911  1
  Zn  Zn164  1  0.06379402  0.30817125  0.56601414  1
  Zn  Zn165  1  0.05725456  0.82207001  0.07490109  1
  Zn  Zn166  1  0.06116177  0.81005203  0.56875170  1
  Zn  Zn167  1  0.56150910  0.31233998  0.06053351  1
  Zn  Zn168  1  0.56581101  0.31589744  0.55694774  1
  Zn  Zn169  1  0.55856808  0.80821583  0.06063525  1
  Zn  Zn170  1  0.56598823  0.81356647  0.55998962  1
  O  O171  1  0.13051034  0.11402339  0.11780213  1
  O  O172  1  0.11745625  0.11295800  0.62201583  1
  O  O173  1  0.12147168  0.61273207  0.12999724  1
  O  O174  1  0.12840054  0.61115733  0.63267557  1
  O  O175  1  0.61960654  0.11927861  0.11866150  1
  O  O176  1  0.61754582  0.12059159  0.61711970  1
  O  O177  1  0.61322174  0.61938532  0.11547294  1
  O  O178  1  0.62545608  0.61317099  0.61290628  1
  O  O179  1  0.38768072  0.37393894  0.38088581  1
  O  O180  1  0.37714166  0.38315470  0.88041085  1
  O  O181  1  0.38079528  0.88732257  0.37129784  1
  O  O182  1  0.38397415  0.86805378  0.88582008  1
  O  O183  1  0.88731660  0.38761957  0.36996547  1
  O  O184  1  0.88197239  0.37895017  0.88347523  1
  O  O185  1  0.87123103  0.88930345  0.38561898  1
  O  O186  1  0.88172410  0.88071328  0.88183834  1
  O  O187  1  0.25792556  0.00657151  0.36964747  1
  O  O188  1  0.25084808  0.00565848  0.86039674  1
  O  O189  1  0.24776277  0.51342339  0.37074113  1
  O  O190  1  0.25450751  0.51019842  0.87018535  1
  O  O191  1  0.75513025  -0.00098764  0.36085151  1
  O  O192  1  0.75405982  0.00518134  0.87038529  1
  O  O193  1  0.75906845  0.48951183  0.36819976  1
  O  O194  1  0.75201160  0.50621193  0.87072775  1
  O  O195  1  0.24298248  0.49807906  0.13147248  1
  O  O196  1  0.24410295  0.49284776  0.62611786  1
  O  O197  1  0.24429809  1.00015507  0.13422925  1
  O  O198  1  0.24359118  1.00671489  0.63762357  1
  O  O199  1  0.75072029  0.48916810  0.13136732  1
  O  O200  1  0.74677482  0.50237294  0.63536312  1
  O  O201  1  0.74217531  1.00313740  0.13813505  1
  O  O202  1  0.74831734  1.00617250  0.64520713  1
  O  O203  1  0.00598380  0.36512107  0.25996391  1
  O  O204  1  -0.00198748  0.37706709  0.76704046  1
  O  O205  1  0.01368848  0.88000193  0.24774230  1
  O  O206  1  0.01994965  0.88752613  0.76505747  1
  O  O207  1  0.49814508  0.37019812  0.26385827  1
  O  O208  1  0.50214285  0.36080491  0.74980595  1
  O  O209  1  0.49921682  0.87876041  0.26326530  1
  O  O210  1  0.49303693  0.86308819  0.75926879  1
  O  O211  1  0.49608458  0.12624815  0.24286979  1
  O  O212  1  0.49640806  0.13277460  0.74314007  1
  O  O213  1  0.49665615  0.61962015  0.23842138  1
  O  O214  1  0.48921713  0.63999356  0.75452913  1
  O  O215  1  0.99039762  0.13849254  0.25454224  1
  O  O216  1  0.99809727  0.12099176  0.73807914  1
  O  O217  1  0.98553741  0.62056404  0.24584835  1
  O  O218  1  0.98527456  0.61789235  0.76043740  1
  O  O219  1  0.36896305  0.25505130  0.00613773  1
  O  O220  1  0.37519857  0.25742065  0.50484551  1
  O  O221  1  0.36716582  0.75653284  0.00585947  1
  O  O222  1  0.36538617  0.75154935  0.51278926  1
  O  O223  1  0.87070966  0.25177803  0.00905056  1
  O  O224  1  0.86179660  0.24615873  0.50738921  1
  O  O225  1  0.86108548  0.75180569  0.00948079  1
  O  O226  1  0.86702393  0.75519268  0.50084629  1
  O  O227  1  0.12821958  0.24608768  0.48781049  1
  O  O228  1  0.13334385  0.24123796  1.00906210  1
  O  O229  1  0.14037653  0.75981625  0.50584739  1
  O  O230  1  0.13179446  0.75133416  1.00949566  1
  O  O231  1  0.63891784  0.24449065  0.49663905  1
  O  O232  1  0.63103990  0.24438262  0.99168276  1
  O  O233  1  0.63414728  0.73508568  0.50078253  1
  O  O234  1  0.62763802  0.74148581  0.99188511  1
  O  O235  1  0.49491607  0.24299961  0.12589222  1
  O  O236  1  0.49860804  0.24542820  0.62942754  1
  O  O237  1  0.49107219  0.74013586  0.12469997  1
  O  O238  1  0.48708188  0.75542294  0.62914231  1
  O  O239  1  0.99039407  0.25860501  0.13701429  1
  O  O240  1  0.98783826  0.23904973  0.61981369  1
  O  O241  1  0.98868532  0.74870711  0.13192940  1
  O  O242  1  0.98049400  0.79003501  0.63963034  1
  O  O243  1  0.00559092  0.25476807  0.37249869  1
  O  O244  1  -0.00653420  0.26274537  0.87618553  1
  O  O245  1  0.00334328  0.74702046  0.36744950  1
  O  O246  1  0.00889853  0.74242198  0.89370353  1
  O  O247  1  0.51161392  0.25766926  0.37206078  1
  O  O248  1  0.51006431  0.24911931  0.86560627  1
  O  O249  1  0.49355472  0.76736868  0.37385643  1
  O  O250  1  0.50589107  0.75621678  0.86736355  1
  O  O251  1  0.25137834  0.12485091  0.48681999  1
  O  O252  1  0.24343211  0.13364869  0.99728009  1
  O  O253  1  0.24633558  0.62908482  0.49347589  1
  O  O254  1  0.25068430  0.63765106  0.99132316  1
  O  O255  1  0.73999431  0.12666779  0.50500709  1
  O  O256  1  0.74598990  0.12848046  0.99011138  1
  O  O257  1  0.75269952  0.63316306  0.50315013  1
  O  O258  1  0.74388998  0.62785626  0.98872526  1
  O  O259  1  0.25338230  0.36986779  0.00642772  1
  O  O260  1  0.25827284  0.37333523  0.50380303  1
  O  O261  1  0.25619338  0.86597993  -0.00208605  1
  O  O262  1  0.25445210  0.87032592  0.49752609  1
  O  O263  1  0.75730487  0.36838343  0.00556888  1
  O  O264  1  0.74834699  0.36532628  0.50328983  1
  O  O265  1  0.74705454  0.86178206  -0.00540170  1
  O  O266  1  0.75415718  0.86260216  0.49991492  1
  O  O267  1  0.12991177  0.49558674  0.24508087  1
  O  O268  1  0.13252415  0.48887111  0.74000133  1
  O  O269  1  0.13034208  0.99683069  0.24688481  1
  O  O270  1  0.13943894  0.99729179  0.74591668  1
  O  O271  1  0.64009291  0.50375124  0.24853264  1
  O  O272  1  0.63136141  0.50078727  0.73705197  1
  O  O273  1  0.63831087  1.00324489  0.24381385  1
  O  O274  1  0.63949459  1.00220063  0.75533377  1
  O  O275  1  0.36736338  0.00527730  0.25467264  1
  O  O276  1  0.36439232  0.00727927  0.74419929  1
  O  O277  1  0.35911065  0.49221622  0.25512686  1
  O  O278  1  0.37038257  0.50802421  0.75223911  1
  O  O279  1  0.86693816  0.00542829  0.25395862  1
  O  O280  1  0.86378562  0.00068428  0.76432098  1
  O  O281  1  0.86861227  0.50303784  0.25648488  1
  O  O282  1  0.86640230  0.50558579  0.75504205  1
  O  O283  1  0.12088281  0.36703394  0.37078565  1
  O  O284  1  0.11126332  0.37892396  0.87712449  1
  O  O285  1  0.12989703  0.87402214  0.35972143  1
  O  O286  1  0.12726776  0.87546328  0.86440754  1
  O  O287  1  0.61311800  0.36804962  0.38264207  1
  O  O288  1  0.62464229  0.36102106  0.87268758  1
  O  O289  1  0.61402684  0.87089543  0.37663253  1
  O  O290  1  0.61560305  0.86091953  0.87762418  1
  O  O291  1  0.38112563  0.12939964  0.12907929  1
  O  O292  1  0.38367002  0.13066093  0.63213584  1
  O  O293  1  0.38327179  0.63541016  0.11794778  1
  O  O294  1  0.37070920  0.62974553  0.63316422  1
  O  O295  1  0.87152333  0.13792629  0.13299735  1
  O  O296  1  0.88272258  0.13010244  0.62704472  1
  O  O297  1  0.87776848  0.63524368  0.13016593  1
  O  O298  1  0.87692101  0.62131386  0.64286405  1
  O  O299  1  0.25575458  0.25508375  0.11749185  1
  O  O300  1  0.25667246  0.25687687  0.62105222  1
  O  O301  1  0.25690798  0.75175296  0.11664450  1
  O  O302  1  0.26161865  0.75172287  0.61338351  1
  O  O303  1  0.75644770  0.25512413  0.12096741  1
  O  O304  1  0.76319933  0.24648478  0.61649055  1
  O  O305  1  0.75376413  0.74128138  0.11418073  1
  O  O306  1  0.75859679  0.74690918  0.61436265  1
  O  O307  1  0.24341644  0.24265222  0.37169595  1
  O  O308  1  0.25460262  0.25117801  0.88893337  1
  O  O309  1  0.25023518  0.74592296  0.39237703  1
  O  O310  1  0.25319356  0.73863471  0.88011314  1
  O  O311  1  0.74578989  0.25583609  0.38998000  1
  O  O312  1  0.74684855  0.24255625  0.87746057  1
  O  O313  1  0.75187833  0.74869266  0.39138146  1
  O  O314  1  0.74092594  0.74193671  0.87996664  1
  O  O315  1  0.00693050  0.11520502  0.00140302  1
  O  O316  1  0.00062790  0.11305791  0.50963809  1
  O  O317  1  0.00706743  0.61958464  -0.00344660  1
  O  O318  1  -0.00151242  0.61674129  0.50134302  1
  O  O319  1  0.50383995  0.11909715  0.00422177  1
  O  O320  1  0.50817716  0.11759116  0.50484759  1
  O  O321  1  0.50184529  0.61652368  0.00350229  1
  O  O322  1  0.50498450  0.63187910  0.49936269  1
  O  O323  1  0.49250665  0.37042497  0.48567976  1
  O  O324  1  0.49356843  0.38355683  0.99731950  1
  O  O325  1  0.50322593  0.88756359  0.48805778  1
  O  O326  1  0.49243212  0.87775082  0.99106106  1
  O  O327  1  1.00440225  0.37452504  0.48961711  1
  O  O328  1  0.99589702  0.38004348  0.99290443  1
  O  O329  1  0.99055611  0.88717736  0.50120248  1
  O  O330  1  1.00009929  0.89018913  0.99962732  1
  O  O331  1  0.50079536  0.48725252  0.36901796  1
  O  O332  1  0.49425944  0.49994694  0.87851178  1
  O  O333  1  0.49598137  0.99182325  0.37828955  1
  O  O334  1  0.50660321  0.98711565  0.87921298  1
  O  O335  1  0.99847096  0.49511261  0.38700657  1
  O  O336  1  0.99504702  0.48985891  0.88388579  1
  O  O337  1  0.99107028  1.00465993  0.38367466  1
  O  O338  1  0.99067250  1.00335445  0.88404005  1
  O  O339  1  0.00687369  0.00109811  0.11861741  1
  O  O340  1  0.00648423  0.00190426  0.61831396  1
  O  O341  1  0.00563149  0.49864658  0.11751116  1
  O  O342  1  0.00716764  0.49413722  0.61130760  1
  O  O343  1  0.50682084  0.00577315  0.12014776  1
  O  O344  1  0.50018680  0.00606955  0.61649112  1
  O  O345  1  0.49848943  0.50419425  0.11847543  1
  O  O346  1  0.50743934  0.50339674  0.63194213  1
  O  O347  1  0.24209534  0.38150194  0.24563866  1
  O  O348  1  0.25466010  0.38183064  0.73880139  1
  O  O349  1  0.24427898  0.88739043  0.25004397  1
  O  O350  1  0.24610672  0.88764685  0.75474283  1
  O  O351  1  0.75679480  0.38222053  0.24041151  1
  O  O352  1  0.74886032  0.39039329  0.75770953  1
  O  O353  1  0.75343640  0.88592599  0.25126307  1
  O  O354  1  0.75359721  0.88629242  0.75276423  1
  O  O355  1  0.25344217  0.11563767  0.25903116  1
  O  O356  1  0.25895809  0.11863533  0.75140329  1
  O  O357  1  0.24952566  0.61642941  0.25141879  1
  O  O358  1  0.25708753  0.62135801  0.75515348  1
  O  O359  1  0.76186161  0.11903547  0.24945426  1
  O  O360  1  0.75041181  0.11822662  0.76304124  1
  O  O361  1  0.76376369  0.61108948  0.24232489  1
  O  O362  1  0.75117631  0.61403154  0.76008183  1
  O  O363  1  0.37056387  0.12006289  0.36855054  1
  O  O364  1  0.37677403  0.13029407  0.85944847  1
  O  O365  1  0.35590365  0.62697566  0.37600557  1
  O  O366  1  0.36744043  0.62175918  0.86546449  1
  O  O367  1  0.87654584  0.11345407  0.36784722  1
  O  O368  1  0.86678376  0.11801524  0.87401993  1
  O  O369  1  0.87661634  0.60859506  0.36671279  1
  O  O370  1  0.86295444  0.61459891  0.86904614  1
  O  O371  1  0.13011341  0.38519731  0.13154479  1
  O  O372  1  0.13838079  0.37989832  0.61957521  1
  O  O373  1  0.12959877  0.89078812  0.13561337  1
  O  O374  1  0.12476027  0.88926082  0.63894498  1
  O  O375  1  0.63877635  0.37353976  0.11992905  1
  O  O376  1  0.62123870  0.39375812  0.62159010  1
  O  O377  1  0.61895220  0.88629983  0.11899145  1
  O  O378  1  0.62817651  0.87944475  0.62401742  1
  O  O379  1  0.11842404  0.25199878  0.25844508  1
  O  O380  1  0.11822629  0.25516286  0.74310008  1
  O  O381  1  0.12615144  0.76910212  0.24296629  1
  O  O382  1  0.13406249  0.76792468  0.74549798  1
  O  O383  1  0.63119153  0.24467787  0.26518316  1
  O  O384  1  0.62128185  0.24922067  0.75339527  1
  O  O385  1  0.61769072  0.73801352  0.25562664  1
  O  O386  1  0.61626200  0.74069476  0.75581599  1
  O  O387  1  0.37449804  0.24323331  0.24049478  1
  O  O388  1  0.38335405  0.24423776  0.74210868  1
  O  O389  1  0.37541597  0.75843843  0.23631821  1
  O  O390  1  0.37781260  0.74579898  0.73620397  1
  O  O391  1  0.87924028  0.24398408  0.24802764  1
  O  O392  1  0.87892536  0.24563070  0.73722220  1
  O  O393  1  0.86963016  0.74125127  0.24534016  1
  O  O394  1  0.86923380  0.73055494  0.75681642  1
  O  O395  1  0.37337945  0.48826494  0.49377418  1
  O  O396  1  0.37863225  0.49630229  0.99392132  1
  O  O397  1  0.38684047  1.00805417  0.48932581  1
  O  O398  1  0.38177803  0.98986693  1.00428270  1
  O  O399  1  0.88932135  0.50063532  0.49422386  1
  O  O400  1  0.88598871  0.49713564  0.99772581  1
  O  O401  1  0.87870280  0.99715812  0.49150689  1
  O  O402  1  0.88010149  1.00092861  0.99412460  1
  O  O403  1  0.11999616  0.00683210  0.00793329  1
  O  O404  1  0.11900329  -0.00095817  0.50694953  1
  O  O405  1  0.11388355  0.49547150  0.00974360  1
  O  O406  1  0.11073072  0.49935422  0.50522887  1
  O  O407  1  0.61954298  0.00510324  0.00645570  1
  O  O408  1  0.61897681  0.00815442  0.49750082  1
  O  O409  1  0.61622005  0.50377050  0.00017983  1
  O  O410  1  0.62308873  0.51199922  0.51128286  1
  O  O411  1  0.36887960  0.36958910  0.11904509  1
  O  O412  1  0.36737907  0.37106274  0.61530452  1
  O  O413  1  0.37417847  0.86734825  0.11254258  1
  O  O414  1  0.37435135  0.86759107  0.62563583  1
  O  O415  1  0.86777348  0.36439981  0.12113280  1
  O  O416  1  0.88146935  0.35949788  0.62696716  1
  O  O417  1  0.87442384  0.86184789  0.12456236  1
  O  O418  1  0.85864530  0.88969763  0.60682075  1
  O  O419  1  0.13399770  0.13181050  0.37524568  1
  O  O420  1  0.12581150  0.12165739  0.88972485  1
  O  O421  1  0.14334615  0.63440850  0.36586890  1
  O  O422  1  0.13276116  0.62121969  0.87263315  1
  O  O423  1  0.61963678  0.13598916  0.38699870  1
  O  O424  1  0.63158391  0.13436382  0.88029797  1
  O  O425  1  0.62292740  0.62368865  0.39508748  1
  O  O426  1  0.62854729  0.63192903  0.87857055  1
