# generated using pymatgen
data_V85Zn86O256
_symmetry_space_group_name_H-M   'P 1'
_cell_length_a   16.93345875
_cell_length_b   16.92597838
_cell_length_c   16.93384465
_cell_angle_alpha   89.92708060
_cell_angle_beta   89.98096784
_cell_angle_gamma   89.97433219
_symmetry_Int_Tables_number   1
_chemical_formula_structural   V85Zn86O256
_chemical_formula_sum   'V85 Zn86 O256'
_cell_volume   4853.49523854
_cell_formula_units_Z   1
loop_
 _symmetry_equiv_pos_site_id
 _symmetry_equiv_pos_as_xyz
  1  'x, y, z'
loop_
 _atom_site_type_symbol
 _atom_site_label
 _atom_site_symmetry_multiplicity
 _atom_site_fract_x
 _atom_site_fract_y
 _atom_site_fract_z
 _atom_site_occupancy
  V  V0  1  0.12306421  0.00340472  0.12303016  1
  V  V1  1  0.25386630  0.74218804  0.49145542  1
  V  V2  1  0.87514602  0.12406138  0.75597491  1
  V  V3  1  0.62089682  0.50004442  0.12404099  1
  V  V4  1  0.23621258  0.12996249  0.37493976  1
  V  V5  1  0.49746611  0.37725767  0.37523216  1
  V  V6  1  0.37169994  0.88060978  -0.00510502  1
  V  V7  1  0.25104324  0.74933444  -0.00689080  1
  V  V8  1  0.87256239  0.62902406  0.74924677  1
  V  V9  1  0.61499662  0.12172169  0.50306593  1
  V  V10  1  0.87068675  0.12253311  0.25077164  1
  V  V11  1  0.37576928  0.36800528  0.50401497  1
  V  V12  1  0.50056189  0.62482108  0.62711177  1
  V  V13  1  0.25243032  0.87883941  0.62115892  1
  V  V14  1  0.74836486  0.49993418  0.75017663  1
  V  V15  1  0.24653311  0.25495973  -0.00343471  1
  V  V16  1  0.74951614  0.50082599  0.24923705  1
  V  V17  1  0.01354913  0.37113948  0.37878782  1
  V  V18  1  0.12169794  0.13205261  -0.01066154  1
  V  V19  1  0.00253805  0.25009317  0.74976985  1
  V  V20  1  0.62456401  0.49852684  0.62468035  1
  V  V21  1  0.62548884  -0.00861434  0.62105021  1
  V  V22  1  0.49724776  0.25142004  0.24871045  1
  V  V23  1  0.62099014  0.25264579  0.87583350  1
  V  V24  1  0.23557326  0.24799720  0.49689991  1
  V  V25  1  0.49806208  0.00139170  -0.00020058  1
  V  V26  1  0.00097831  0.12430204  0.12279733  1
  V  V27  1  0.50279038  0.74904686  0.75842159  1
  V  V28  1  0.12790629  0.62023591  0.49246714  1
  V  V29  1  0.24950050  0.87461382  0.12140390  1
  V  V30  1  0.24370380  0.49451310  0.25732328  1
  V  V31  1  -0.00046989  0.62485230  0.62368332  1
  V  V32  1  0.87589523  -0.00397724  0.37387050  1
  V  V33  1  0.12729266  0.37515826  0.75645903  1
  V  V34  1  0.51053263  0.87516421  0.87916057  1
  V  V35  1  0.87190765  0.48536048  0.38083368  1
  V  V36  1  0.74828265  0.25235385  -0.00099468  1
  V  V37  1  0.12866766  0.00336844  0.60772256  1
  V  V38  1  0.38634527  0.87591497  0.49794392  1
  V  V39  1  0.61913112  0.37310028  0.75323482  1
  V  V40  1  0.74701500  0.11887462  0.37400158  1
  V  V41  1  0.62422745  0.63537951  -0.00689738  1
  V  V42  1  0.88539742  0.89888316  0.00642757  1
  V  V43  1  0.87450506  0.50022493  0.87619866  1
  V  V44  1  -0.05724132  -0.05726207  0.54131067  1
  V  V45  1  0.36973418  0.26162962  0.12494590  1
  V  V46  1  0.75257578  0.37517132  0.61797353  1
  V  V47  1  0.62782553  0.75095114  0.37564106  1
  V  V48  1  0.87279409  0.25171871  0.12773090  1
  V  V49  1  0.75495006  0.62510137  0.37762932  1
  V  V50  1  0.87432051  0.25283167  0.61823655  1
  V  V51  1  0.62311032  0.24707661  0.37662356  1
  V  V52  1  -0.00022429  0.37221615  0.87573922  1
  V  V53  1  0.50020063  0.75193994  0.24985556  1
  V  V54  1  0.37218002  0.74843197  0.12403287  1
  V  V55  1  0.00469037  0.87553721  0.37328713  1
  V  V56  1  0.12758827  0.88309247  0.74638081  1
  V  V57  1  0.01214765  0.25510500  0.25283496  1
  V  V58  1  0.63584859  0.86821986  0.75208694  1
  V  V59  1  0.49871242  0.50027410  0.50097936  1
  V  V60  1  0.12879762  0.48549621  0.12561269  1
  V  V61  1  0.49496566  0.62196165  0.12532615  1
  V  V62  1  0.37239702  0.12758185  0.24843493  1
  V  V63  1  0.00128726  0.75062750  0.75354854  1
  V  V64  1  0.00177822  0.12551036  0.60999174  1
  V  V65  1  0.49302493  0.23966186  0.75136488  1
  V  V66  1  0.12913819  0.75097952  0.87343754  1
  V  V67  1  0.12739871  0.50062325  0.63169541  1
  V  V68  1  0.25106200  0.37515390  0.63048436  1
  V  V69  1  0.26319748  0.11615489  0.87418633  1
  V  V70  1  0.37499731  0.38048725  -0.01491198  1
  V  V71  1  0.25388075  0.61236391  0.87222400  1
  V  V72  1  -0.00265877  0.74802408  0.24028404  1
  V  V73  1  0.37208437  0.60949312  0.75360746  1
  V  V74  1  0.74726674  0.37506776  0.12556525  1
  V  V75  1  0.38233778  0.00159652  0.37502323  1
  V  V76  1  0.37607991  0.74890281  0.62781486  1
  V  V77  1  0.62450258  0.12511656  0.00049417  1
  V  V78  1  0.63703434  -0.00267090  0.12745717  1
  V  V79  1  0.64094309  0.87599454  0.24547720  1
  V  V80  1  0.77020073  0.76383072  0.00551877  1
  V  V81  1  0.25083817  0.00050996  0.24854841  1
  V  V82  1  0.75982076  0.76251187  0.50417318  1
  V  V83  1  0.49618091  0.49692801  -0.01381860  1
  V  V84  1  0.75243967  -0.00257442  0.75457818  1
  Zn  Zn85  1  -0.00340477  0.62158595  0.11786107  1
  Zn  Zn86  1  0.12438232  0.62266549  0.00340514  1
  Zn  Zn87  1  0.36783311  0.23369433  0.63131400  1
  Zn  Zn88  1  0.12741193  0.74540286  0.37061495  1
  Zn  Zn89  1  -0.01425658  0.89916855  0.87602174  1
  Zn  Zn90  1  -0.00644889  0.49173885  0.50428609  1
  Zn  Zn91  1  0.62217221  0.37574653  0.25079056  1
  Zn  Zn92  1  0.87395445  0.63007269  0.24464928  1
  Zn  Zn93  1  0.49746294  0.12391570  0.12448958  1
  Zn  Zn94  1  0.32034921  0.05507066  0.72007076  1
  Zn  Zn95  1  0.36475649  0.50697639  0.37970161  1
  Zn  Zn96  1  0.12680709  0.87114686  0.24752574  1
  Zn  Zn97  1  0.62672140  0.62762914  0.50274491  1
  Zn  Zn98  1  0.49092008  0.11491228  0.62675918  1
  Zn  Zn99  1  0.50530352  0.87982658  0.37414336  1
  Zn  Zn100  1  0.74941255  0.25141856  0.49801634  1
  Zn  Zn101  1  0.00194930  0.49939000  0.00286253  1
  Zn  Zn102  1  0.75458483  0.12183578  0.87812294  1
  Zn  Zn103  1  0.87502701  0.76784678  0.62392603  1
  Zn  Zn104  1  0.87438088  0.37630065  0.00052772  1
  Zn  Zn105  1  0.36045352  0.62917104  0.26407853  1
  Zn  Zn106  1  0.74409907  0.63117421  0.87446763  1
  Zn  Zn107  1  0.18896789  0.19188754  0.18336778  1
  Zn  Zn108  1  0.18378790  0.18771808  0.68799077  1
  Zn  Zn109  1  0.18059583  0.67903571  0.18664462  1
  Zn  Zn110  1  0.19166852  0.68900081  0.68636227  1
  Zn  Zn111  1  0.68467133  0.18467586  0.18863543  1
  Zn  Zn112  1  0.68680890  0.18429538  0.68728318  1
  Zn  Zn113  1  0.68721116  0.68671744  0.18359214  1
  Zn  Zn114  1  0.68964472  0.68976936  0.68426291  1
  Zn  Zn115  1  0.30721512  0.31832467  0.31429317  1
  Zn  Zn116  1  0.30956007  0.30896062  0.81641335  1
  Zn  Zn117  1  0.31376308  0.81382389  0.31169863  1
  Zn  Zn118  1  0.33123146  0.85593670  0.79498293  1
  Zn  Zn119  1  0.81010207  0.30898128  0.31077049  1
  Zn  Zn120  1  0.81070200  0.31218967  0.80871039  1
  Zn  Zn121  1  0.81791100  0.81293034  0.31412576  1
  Zn  Zn122  1  0.81275067  0.81099395  0.82520193  1
  Zn  Zn123  1  0.18628343  0.43777431  0.44179882  1
  Zn  Zn124  1  0.18759320  0.43523041  0.94060429  1
  Zn  Zn125  1  0.19214435  0.93400955  0.43331672  1
  Zn  Zn126  1  0.15177033  0.95937544  0.91943538  1
  Zn  Zn127  1  0.68326223  0.43717654  0.43797297  1
  Zn  Zn128  1  0.68490958  0.44039951  0.93716067  1
  Zn  Zn129  1  0.68922233  0.93773968  0.43593318  1
  Zn  Zn130  1  0.69189944  0.93501117  0.93906691  1
  Zn  Zn131  1  0.31203913  0.06755129  0.06064666  1
  Zn  Zn132  1  0.31087120  0.06185174  0.55053205  1
  Zn  Zn133  1  0.30623596  0.55958687  0.06617729  1
  Zn  Zn134  1  0.31299659  0.55916007  0.56478728  1
  Zn  Zn135  1  0.81321414  0.06420634  0.06236105  1
  Zn  Zn136  1  0.80273690  0.06872957  0.56808253  1
  Zn  Zn137  1  0.81304449  0.56739005  0.06313423  1
  Zn  Zn138  1  0.81316752  0.56531670  0.56088252  1
  Zn  Zn139  1  0.42775377  0.44108763  0.18992454  1
  Zn  Zn140  1  0.43864157  0.43092786  0.68913593  1
  Zn  Zn141  1  0.44030783  0.93637047  0.18392112  1
  Zn  Zn142  1  0.44711953  0.93350129  0.68730274  1
  Zn  Zn143  1  0.93642566  0.43975572  0.18933890  1
  Zn  Zn144  1  0.93623465  0.43855345  0.68871050  1
  Zn  Zn145  1  0.93600604  0.93699486  0.18780864  1
  Zn  Zn146  1  0.94224613  0.94281227  0.70486525  1
  Zn  Zn147  1  0.05856581  0.06000565  0.31046302  1
  Zn  Zn148  1  0.06860999  0.06963275  0.80298079  1
  Zn  Zn149  1  0.06127146  0.55723211  0.30694200  1
  Zn  Zn150  1  0.06378811  0.56285162  0.81463070  1
  Zn  Zn151  1  0.56280348  0.06302373  0.30718930  1
  Zn  Zn152  1  0.56727781  0.06011829  0.81563936  1
  Zn  Zn153  1  0.56006599  0.56600100  0.31365553  1
  Zn  Zn154  1  0.56036084  0.56175256  0.81211652  1
  Zn  Zn155  1  0.43311582  0.18660494  0.43745455  1
  Zn  Zn156  1  0.43715457  0.18989775  0.93655183  1
  Zn  Zn157  1  0.44110254  0.68852453  0.43820756  1
  Zn  Zn158  1  0.43560726  0.68676840  0.93575461  1
  Zn  Zn159  1  0.93584277  0.19056067  0.43465173  1
  Zn  Zn160  1  0.93716294  0.19043661  0.93879966  1
  Zn  Zn161  1  0.93819215  0.68655782  0.43314642  1
  Zn  Zn162  1  0.93963153  0.68757616  0.93797971  1
  Zn  Zn163  1  0.06033702  0.31317873  0.06305981  1
  Zn  Zn164  1  0.06051030  0.31520721  0.56365570  1
  Zn  Zn165  1  0.06133102  0.81587222  0.05926185  1
  Zn  Zn166  1  0.06864742  0.80364932  0.56344432  1
  Zn  Zn167  1  0.55801170  0.31607319  0.06230903  1
  Zn  Zn168  1  0.55989155  0.30604140  0.56805175  1
  Zn  Zn169  1  0.56364245  0.81394473  0.06712390  1
  Zn  Zn170  1  0.56686139  0.81058609  0.56485225  1
  O  O171  1  0.11723958  0.12323928  0.12076591  1
  O  O172  1  0.11390961  0.11426494  0.63091621  1
  O  O173  1  0.11624797  0.61157725  0.12126917  1
  O  O174  1  0.11925275  0.61763535  0.62270619  1
  O  O175  1  0.61999916  0.11511000  0.12055765  1
  O  O176  1  0.62306508  0.11384927  0.61822174  1
  O  O177  1  0.61259626  0.61970704  0.11596736  1
  O  O178  1  0.61908203  0.61568379  0.62741395  1
  O  O179  1  0.38520263  0.37615759  0.38515019  1
  O  O180  1  0.37571348  0.37470339  0.88628564  1
  O  O181  1  0.37781710  0.88244185  0.38063458  1
  O  O182  1  0.39233685  0.86783935  0.89090880  1
  O  O183  1  0.87269295  0.38248007  0.37456426  1
  O  O184  1  0.88059194  0.38343572  0.87103259  1
  O  O185  1  0.88137081  0.88939375  0.37375866  1
  O  O186  1  0.87727168  0.87364114  0.89366712  1
  O  O187  1  0.25803199  0.00510733  0.36329312  1
  O  O188  1  0.24625403  0.01690500  0.88275634  1
  O  O189  1  0.24633507  0.49543475  0.36479153  1
  O  O190  1  0.24394934  0.51331089  0.87635370  1
  O  O191  1  0.75768251  0.01086111  0.37773285  1
  O  O192  1  0.74066171  0.00440148  0.86037829  1
  O  O193  1  0.75236763  0.50482432  0.37076303  1
  O  O194  1  0.75608953  0.50260074  0.86641868  1
  O  O195  1  0.23596585  0.49914920  0.13260280  1
  O  O196  1  0.24191759  0.48448711  0.62170479  1
  O  O197  1  0.24729144  0.99921269  0.13431447  1
  O  O198  1  0.24524589  0.99293859  0.62252922  1
  O  O199  1  0.74271952  0.49525616  0.13248500  1
  O  O200  1  0.74611525  0.49453284  0.63004186  1
  O  O201  1  0.73551257  1.00675191  0.12553656  1
  O  O202  1  0.73671757  1.00342753  0.63933406  1
  O  O203  1  -0.00776711  0.36094447  0.26044094  1
  O  O204  1  0.00597802  0.36891226  0.75341461  1
  O  O205  1  0.00247792  0.86666663  0.25573539  1
  O  O206  1  0.00987427  0.86682837  0.75611752  1
  O  O207  1  0.49800122  0.37046089  0.25913094  1
  O  O208  1  0.51301484  0.36135213  0.74378266  1
  O  O209  1  0.50687500  0.86238784  0.24790940  1
  O  O210  1  0.51398228  0.86708063  0.76016825  1
  O  O211  1  0.49127876  0.13570284  0.24987128  1
  O  O212  1  0.50626996  0.13601433  0.75163177  1
  O  O213  1  0.50291139  0.63733320  0.24059292  1
  O  O214  1  0.49365110  0.63186139  0.74672555  1
  O  O215  1  0.99314832  0.13717437  0.24672960  1
  O  O216  1  0.99490742  0.13314904  0.74171850  1
  O  O217  1  0.99910433  0.64009827  0.25570335  1
  O  O218  1  0.99500627  0.63085390  0.74221268  1
  O  O219  1  0.37305734  0.26156223  0.00540074  1
  O  O220  1  0.37017596  0.25838045  0.50547631  1
  O  O221  1  0.36915091  0.75563526  0.00514792  1
  O  O222  1  0.37134239  0.75567807  0.50580676  1
  O  O223  1  0.86538065  0.25219739  0.00855570  1
  O  O224  1  0.87015672  0.24425886  0.51425420  1
  O  O225  1  0.87125780  0.75116564  0.00643724  1
  O  O226  1  0.86380810  0.74607354  0.50097408  1
  O  O227  1  0.13729486  0.25426850  0.50207731  1
  O  O228  1  0.13490428  0.24445424  1.00785399  1
  O  O229  1  0.13603228  0.73785675  0.49809339  1
  O  O230  1  0.13262395  0.75149973  0.98930631  1
  O  O231  1  0.62370730  0.24062326  0.49406048  1
  O  O232  1  0.62631682  0.24796988  0.99370290  1
  O  O233  1  0.63600867  0.75040076  0.49181065  1
  O  O234  1  0.61572045  0.73522745  1.00019866  1
  O  O235  1  0.49492090  0.25063820  0.13726256  1
  O  O236  1  0.49561901  0.23975162  0.63863485  1
  O  O237  1  0.49475343  0.74313279  0.13094185  1
  O  O238  1  0.49752273  0.74352063  0.63363366  1
  O  O239  1  0.99367578  0.24617023  0.13670513  1
  O  O240  1  0.99337955  0.24543548  0.62971120  1
  O  O241  1  1.00655065  0.75076421  0.13823668  1
  O  O242  1  0.99723049  0.74331052  0.63567800  1
  O  O243  1  -0.00469870  0.25993470  0.36462475  1
  O  O244  1  -0.00681728  0.26368528  0.86499690  1
  O  O245  1  0.00198537  0.76228416  0.37077459  1
  O  O246  1  0.01057660  0.74751374  0.86296166  1
  O  O247  1  0.50014448  0.25581349  0.36613205  1
  O  O248  1  0.51145868  0.24745710  0.86552963  1
  O  O249  1  0.51174171  0.75314239  0.36729104  1
  O  O250  1  0.49997649  0.75465072  0.86462660  1
  O  O251  1  0.25179083  0.14019686  0.49067802  1
  O  O252  1  0.24373936  0.13357624  0.99254950  1
  O  O253  1  0.24175735  0.63016168  0.50684232  1
  O  O254  1  0.24975882  0.63221063  0.99156158  1
  O  O255  1  0.73589825  0.12800476  0.49272406  1
  O  O256  1  0.74343655  0.13595083  1.00006182  1
  O  O257  1  0.74723466  0.63042685  0.48863125  1
  O  O258  1  0.73229192  0.62222865  0.99882472  1
  O  O259  1  0.26305338  0.36847939  -0.00375532  1
  O  O260  1  0.25562000  0.36515485  0.50587929  1
  O  O261  1  0.25951236  0.86892699  0.00316863  1
  O  O262  1  0.25877065  0.86660037  0.50628277  1
  O  O263  1  0.74845774  0.36862861  0.00694153  1
  O  O264  1  0.74291234  0.37272245  0.51393505  1
  O  O265  1  0.76378590  0.86988353  0.00114566  1
  O  O266  1  0.75255202  0.86109510  0.49463508  1
  O  O267  1  0.13305001  0.49804753  0.24150926  1
  O  O268  1  0.12040210  0.49202460  0.73925046  1
  O  O269  1  0.13469374  1.00062266  0.24023138  1
  O  O270  1  0.12323372  0.98565592  0.73249226  1
  O  O271  1  0.63393372  0.50075246  0.24605767  1
  O  O272  1  0.62727891  0.49178066  0.74574047  1
  O  O273  1  0.61895922  0.99154088  0.23620124  1
  O  O274  1  0.63100241  0.98984957  0.74360192  1
  O  O275  1  0.36853966  0.00458090  0.25175988  1
  O  O276  1  0.36595712  -0.03783103  0.75693840  1
  O  O277  1  0.36168232  0.50607022  0.25359353  1
  O  O278  1  0.38028861  0.51044439  0.74662501  1
  O  O279  1  0.88101819  0.01385304  0.25896134  1
  O  O280  1  0.86623183  0.01069213  0.74988418  1
  O  O281  1  0.85955961  0.49761174  0.25972318  1
  O  O282  1  0.86932654  0.50775058  0.75729126  1
  O  O283  1  0.11192501  0.37634623  0.37550702  1
  O  O284  1  0.11756331  0.38031902  0.86316064  1
  O  O285  1  0.11797166  0.87425706  0.36981728  1
  O  O286  1  0.14128958  0.85892037  0.85936744  1
  O  O287  1  0.61265714  0.36671619  0.37603403  1
  O  O288  1  0.62950937  0.36676759  0.86493533  1
  O  O289  1  0.62533556  0.86737977  0.36726781  1
  O  O290  1  0.61804542  0.87408814  0.87001116  1
  O  O291  1  0.37724983  0.13718649  0.13084153  1
  O  O292  1  0.37181321  0.11535700  0.63159463  1
  O  O293  1  0.38520594  0.62972676  0.12235874  1
  O  O294  1  0.38035431  0.62953974  0.63295312  1
  O  O295  1  0.88147191  0.12968084  0.13255700  1
  O  O296  1  0.88125967  0.13166885  0.63446601  1
  O  O297  1  0.88280076  0.61475972  0.13284575  1
  O  O298  1  0.88272537  0.62384677  0.63627530  1
  O  O299  1  0.25990144  0.24567052  0.11140417  1
  O  O300  1  0.24941451  0.25564344  0.61545043  1
  O  O301  1  0.25143617  0.75277972  0.11371944  1
  O  O302  1  0.25717868  0.75475349  0.61205053  1
  O  O303  1  0.75067816  0.25583941  0.12059032  1
  O  O304  1  0.75664408  0.25736764  0.62674319  1
  O  O305  1  0.73938998  0.74424942  0.10065086  1
  O  O306  1  0.75556193  0.74765123  0.60928560  1
  O  O307  1  0.25323886  0.24522135  0.38711230  1
  O  O308  1  0.25395063  0.24065294  0.89008790  1
  O  O309  1  0.24945450  0.75427012  0.38738057  1
  O  O310  1  0.24797148  0.74412913  0.88598320  1
  O  O311  1  0.74184019  0.23980931  0.37670710  1
  O  O312  1  0.74033882  0.25040130  0.88112055  1
  O  O313  1  0.74805204  0.74340865  0.38161212  1
  O  O314  1  0.75110931  0.74537661  0.89907356  1
  O  O315  1  0.00760368  0.13698981  0.01249212  1
  O  O316  1  -0.00151523  0.13117637  0.51051525  1
  O  O317  1  0.00607667  0.61744978  -0.00435738  1
  O  O318  1  0.00603991  0.62724334  0.51315943  1
  O  O319  1  0.50565325  0.11811001  0.00023218  1
  O  O320  1  0.51057486  0.12620612  0.50035617  1
  O  O321  1  0.50440552  0.61782721  0.00535655  1
  O  O322  1  0.50425031  0.62140506  0.51215562  1
  O  O323  1  0.49295597  0.37554056  0.49712072  1
  O  O324  1  0.48677500  0.38346309  1.00199629  1
  O  O325  1  0.48978469  0.86869206  0.49766349  1
  O  O326  1  0.49717469  0.88009384  0.99589647  1
  O  O327  1  0.99904669  0.37227577  0.48457155  1
  O  O328  1  0.99509808  0.37607509  0.98919948  1
  O  O329  1  1.00524544  0.87272718  0.49253894  1
  O  O330  1  0.98978202  0.87821498  0.99699172  1
  O  O331  1  0.50408857  0.49011053  0.38280575  1
  O  O332  1  0.49886098  0.50091772  0.88680984  1
  O  O333  1  0.48684414  0.99876476  0.36655277  1
  O  O334  1  0.50916449  0.99084218  0.89011841  1
  O  O335  1  0.99080067  0.48388508  0.37154879  1
  O  O336  1  0.99193146  0.48889450  0.87115743  1
  O  O337  1  0.99295070  0.98829398  0.37414543  1
  O  O338  1  1.04772723  0.99093216  0.87770564  1
  O  O339  1  0.00922297  0.01571262  0.13562414  1
  O  O340  1  0.00339961  0.00388571  0.61510884  1
  O  O341  1  0.01171505  0.49538885  0.12619162  1
  O  O342  1  0.00562539  0.50742936  0.62448912  1
  O  O343  1  0.50766536  0.00090590  0.11343911  1
  O  O344  1  0.51896443  -0.00011841  0.62981964  1
  O  O345  1  0.50220542  0.50732761  0.12274419  1
  O  O346  1  0.50434615  0.50345042  0.62090209  1
  O  O347  1  0.25677348  0.39257686  0.24656309  1
  O  O348  1  0.24004306  0.36434834  0.74272322  1
  O  O349  1  0.25083601  0.88377723  0.24136561  1
  O  O350  1  0.23870796  0.85880621  0.72764907  1
  O  O351  1  0.74420204  0.38180875  0.24455333  1
  O  O352  1  0.73924793  0.37917813  0.74033356  1
  O  O353  1  0.74010710  0.87017281  0.25240803  1
  O  O354  1  0.74293490  0.87766484  0.75696923  1
  O  O355  1  0.25439523  0.12131038  0.25429454  1
  O  O356  1  0.24591844  0.12976524  0.76706760  1
  O  O357  1  0.24865317  0.60813561  0.24496323  1
  O  O358  1  0.26226939  0.63196270  0.75785504  1
  O  O359  1  0.75789179  0.12951279  0.26030243  1
  O  O360  1  0.75879853  0.11854820  0.75133569  1
  O  O361  1  0.74798020  0.61929063  0.26005457  1
  O  O362  1  0.75707826  0.62174397  0.75177229  1
  O  O363  1  0.36650795  0.11831165  0.36865931  1
  O  O364  1  0.36340362  0.12287329  0.87864951  1
  O  O365  1  0.38581484  0.61838994  0.37482518  1
  O  O366  1  0.36672434  0.62824039  0.86516127  1
  O  O367  1  0.86831346  0.11879911  0.37011499  1
  O  O368  1  0.87536838  0.13354513  0.86060205  1
  O  O369  1  0.86718704  0.61540227  0.36977923  1
  O  O370  1  0.87547556  0.61899251  0.86242805  1
  O  O371  1  0.12313064  0.38552859  0.12490667  1
  O  O372  1  0.12923368  0.38117763  0.63381024  1
  O  O373  1  0.13200555  0.88648275  0.12335187  1
  O  O374  1  0.13255329  0.88016882  0.62479883  1
  O  O375  1  0.62984232  0.38184663  0.12722159  1
  O  O376  1  0.63016876  0.37913898  0.63160030  1
  O  O377  1  0.62514952  0.88758026  0.13014558  1
  O  O378  1  0.62568519  0.88366221  0.63378500  1
  O  O379  1  0.11080493  0.24826664  0.24730029  1
  O  O380  1  0.10990586  0.25925269  0.74395293  1
  O  O381  1  0.11537086  0.75146338  0.25329124  1
  O  O382  1  0.11761455  0.75539031  0.75045095  1
  O  O383  1  0.61350397  0.25005166  0.25723295  1
  O  O384  1  0.61951006  0.25410199  0.75645972  1
  O  O385  1  0.62113905  0.75634870  0.25439520  1
  O  O386  1  0.61873075  0.75816384  0.74429470  1
  O  O387  1  0.37804856  0.24959739  0.24417353  1
  O  O388  1  0.39052915  0.25472330  0.75217173  1
  O  O389  1  0.38227243  0.74852162  0.24327111  1
  O  O390  1  0.38713920  0.75467680  0.74247209  1
  O  O391  1  0.87898287  0.23962994  0.24565279  1
  O  O392  1  0.88364193  0.24617680  0.74008176  1
  O  O393  1  0.89181889  0.75039334  0.25451212  1
  O  O394  1  0.88113500  0.74572888  0.74856152  1
  O  O395  1  0.37985336  0.48538714  0.50221680  1
  O  O396  1  0.37958701  0.48702510  1.00636903  1
  O  O397  1  0.37041929  0.98860791  0.48656693  1
  O  O398  1  0.38418703  0.99142246  1.00756824  1
  O  O399  1  0.87757154  0.50578960  0.48739263  1
  O  O400  1  0.87154573  0.49863099  0.98424416  1
  O  O401  1  0.87348764  1.00736591  0.49368978  1
  O  O402  1  0.87715818  0.99925409  0.99582474  1
  O  O403  1  0.13390685  0.01678914  0.01864280  1
  O  O404  1  0.13176834  -0.00223862  0.50793028  1
  O  O405  1  0.12539265  0.49813852  0.01216262  1
  O  O406  1  0.12003837  0.50343126  0.51336602  1
  O  O407  1  0.62198228  0.00279316  0.01034797  1
  O  O408  1  0.63118572  0.00245254  0.51350195  1
  O  O409  1  0.61385195  0.50464514  0.00601280  1
  O  O410  1  0.61734650  0.50241255  0.50751558  1
  O  O411  1  0.37942424  0.36413563  0.11835089  1
  O  O412  1  0.36560978  0.37000207  0.62136216  1
  O  O413  1  0.37075636  0.86836792  0.11533827  1
  O  O414  1  0.37082916  0.86970381  0.61453840  1
  O  O415  1  0.86415163  0.37043560  0.12526265  1
  O  O416  1  0.86501521  0.36706051  0.63166574  1
  O  O417  1  0.87632217  0.88529500  0.10805592  1
  O  O418  1  0.89208986  0.88576947  0.61524190  1
  O  O419  1  0.13753153  0.11886545  0.36939417  1
  O  O420  1  0.12911842  0.13135550  0.88733844  1
  O  O421  1  0.11543015  0.62028901  0.39068219  1
  O  O422  1  0.13532683  0.63678774  0.86982189  1
  O  O423  1  0.62957393  0.12497184  0.38004637  1
  O  O424  1  0.62885281  0.13425318  0.88358529  1
  O  O425  1  0.63211179  0.63803340  0.37525028  1
  O  O426  1  0.62285101  0.62084667  0.88886808  1
