# generated using pymatgen
data_V85Zn86O256
_symmetry_space_group_name_H-M   'P 1'
_cell_length_a   16.94568607
_cell_length_b   16.95113693
_cell_length_c   16.95385897
_cell_angle_alpha   90.01571643
_cell_angle_beta   89.84515432
_cell_angle_gamma   90.19301540
_symmetry_Int_Tables_number   1
_chemical_formula_structural   V85Zn86O256
_chemical_formula_sum   'V85 Zn86 O256'
_cell_volume   4869.92742684
_cell_formula_units_Z   1
loop_
 _symmetry_equiv_pos_site_id
 _symmetry_equiv_pos_as_xyz
  1  'x, y, z'
loop_
 _atom_site_type_symbol
 _atom_site_label
 _atom_site_symmetry_multiplicity
 _atom_site_fract_x
 _atom_site_fract_y
 _atom_site_fract_z
 _atom_site_occupancy
  V  V0  1  0.62290183  0.23997705  0.87780546  1
  V  V1  1  0.61544093  0.36932933  0.24583346  1
  V  V2  1  0.63167247  0.87820157  0.74877131  1
  V  V3  1  0.11922778  0.37825477  0.25045474  1
  V  V4  1  0.64131375  0.12491057  0.49203375  1
  V  V5  1  0.75512396  0.88073255  0.11257109  1
  V  V6  1  0.25479412  0.25622525  0.49822522  1
  V  V7  1  0.63322616  0.49803450  0.62304465  1
  V  V8  1  0.62928447  0.00215352  0.62427642  1
  V  V9  1  0.37805371  0.49547311  0.38135714  1
  V  V10  1  0.50189935  0.62626571  0.62198730  1
  V  V11  1  0.85741825  0.25319168  0.62898123  1
  V  V12  1  -0.01301504  0.62083191  0.62741062  1
  V  V13  1  0.49819651  0.36343190  0.38339005  1
  V  V14  1  0.63494136  0.37627147  0.75061838  1
  V  V15  1  -0.00183178  0.87655145  0.36907965  1
  V  V16  1  0.75084715  0.00358755  0.25427702  1
  V  V17  1  0.37484488  0.12431688  0.74704678  1
  V  V18  1  0.50082455  0.75207170  0.74815161  1
  V  V19  1  0.62963172  0.75058864  0.87429963  1
  V  V20  1  0.00875328  -0.00306026  0.51239959  1
  V  V21  1  0.50021287  0.87329925  0.37373775  1
  V  V22  1  0.63967010  0.24397249  0.36978735  1
  V  V23  1  0.25015090  0.50343026  0.74661469  1
  V  V24  1  -0.00177509  0.24932679  0.25619187  1
  V  V25  1  0.37360593  0.74959681  0.12438252  1
  V  V26  1  0.37523891  0.62152338  0.25252378  1
  V  V27  1  0.75140931  0.51560150  0.25063326  1
  V  V28  1  0.12237491  0.75369633  0.87933931  1
  V  V29  1  0.49852093  0.87710502  0.87659975  1
  V  V30  1  -0.00728296  0.48465623  0.49506163  1
  V  V31  1  0.63141134  0.62649851  -0.00143453  1
  V  V32  1  0.87327443  -0.00193339  0.38786254  1
  V  V33  1  -0.00698286  0.74490136  0.75761272  1
  V  V34  1  0.50105569  0.00032961  0.49856961  1
  V  V35  1  0.87527147  0.24604152  0.12670594  1
  V  V36  1  0.50094171  0.12674066  0.62118236  1
  V  V37  1  0.24401423  0.37834747  0.12647493  1
  V  V38  1  0.63612275  0.74755739  0.37029953  1
  V  V39  1  0.86877388  0.50409765  0.37558386  1
  V  V40  1  0.11503985  -0.01540193  0.12338363  1
  V  V41  1  0.37440540  0.62548241  0.75348039  1
  V  V42  1  0.37376283  0.00014141  0.37246619  1
  V  V43  1  0.89810320  -0.00990463  0.87614734  1
  V  V44  1  0.24958213  0.75527028  -0.00396320  1
  V  V45  1  0.37610860  0.37286626  -0.00011209  1
  V  V46  1  0.11917671  0.25150695  0.37807861  1
  V  V47  1  0.24843658  0.62189113  0.37574735  1
  V  V48  1  0.38203750  0.25553083  0.61928742  1
  V  V49  1  0.24171667  0.24382914  0.00069001  1
  V  V50  1  0.25491151  0.37489377  0.62270269  1
  V  V51  1  0.37441261  0.87338004  0.50201999  1
  V  V52  1  0.74713371  0.24142922  0.00193376  1
  V  V53  1  0.12055903  0.75420619  0.36381441  1
  V  V54  1  0.50189066  0.50175023  -0.00155515  1
  V  V55  1  0.50235975  0.62542308  0.12391727  1
  V  V56  1  0.24660705  0.74884759  0.50309784  1
  V  V57  1  -0.00082674  0.13833084  0.63754657  1
  V  V58  1  0.24844227  0.12545450  0.37510155  1
  V  V59  1  0.11941964  0.62529519  0.50130563  1
  V  V60  1  0.11972274  0.87417152  0.75161102  1
  V  V61  1  0.24447978  0.12271757  0.87613418  1
  V  V62  1  0.50028302  0.74946221  0.24882574  1
  V  V63  1  0.24888010  0.87115100  0.13804388  1
  V  V64  1  0.00885720  0.12116161  0.11483394  1
  V  V65  1  0.62399081  0.87871799  0.24542031  1
  V  V66  1  0.24620377  0.00027505  0.74721362  1
  V  V67  1  0.62347189  0.01063043  0.11914278  1
  V  V68  1  -0.00239258  0.62215853  0.14824054  1
  V  V69  1  0.75640114  0.62341106  0.86863010  1
  V  V70  1  0.20181019  0.58689580  0.92574750  1
  V  V71  1  0.12231512  0.49854517  0.62335571  1
  V  V72  1  0.74991242  0.37666922  0.12697175  1
  V  V73  1  0.88306337  0.50485796  0.86853388  1
  V  V74  1  0.87614830  0.75915633  0.61920407  1
  V  V75  1  0.24360705  0.87784951  0.62523635  1
  V  V76  1  0.37755896  0.24656859  0.13037600  1
  V  V77  1  0.87977280  0.38082965  0.00205038  1
  V  V78  1  0.50186829  0.37524596  0.87340655  1
  V  V79  1  0.49869170  0.01335075  -0.00110058  1
  V  V80  1  -0.00226941  0.36578651  0.87381315  1
  V  V81  1  0.87624354  0.12062539  0.25656737  1
  V  V82  1  0.63341925  0.62865244  0.49578325  1
  V  V83  1  0.12084514  0.36472308  0.74754932  1
  V  V84  1  0.76308440  0.12325837  0.86688606  1
  Zn  Zn85  1  0.37398792  0.75056968  0.62565710  1
  Zn  Zn86  1  0.76139156  0.00425548  0.74845491  1
  Zn  Zn87  1  0.24414782  -0.00118568  0.25112094  1
  Zn  Zn88  1  0.75731674  0.88067267  0.61637447  1
  Zn  Zn89  1  0.37928605  0.12992462  0.25321425  1
  Zn  Zn90  1  0.75820345  0.50053454  0.74448978  1
  Zn  Zn91  1  0.50079611  0.25166817  0.74790974  1
  Zn  Zn92  1  0.50543048  0.13406487  0.12762501  1
  Zn  Zn93  1  0.62747012  0.50129209  0.12463661  1
  Zn  Zn94  1  0.88491693  0.74299706  0.13102961  1
  Zn  Zn95  1  0.76506405  0.75473787  0.48533005  1
  Zn  Zn96  1  -0.09620689  0.87095486  0.99804108  1
  Zn  Zn97  1  0.49903327  0.49453003  0.50208040  1
  Zn  Zn98  1  0.11645174  0.24121427  0.87466329  1
  Zn  Zn99  1  0.37533762  0.50150377  0.87423913  1
  Zn  Zn100  1  0.83218433  0.35565952  0.49853313  1
  Zn  Zn101  1  0.06602611  0.52683004  0.04704903  1
  Zn  Zn102  1  0.24442790  0.49989796  0.24924179  1
  Zn  Zn103  1  0.12400093  0.12322339  0.50557106  1
  Zn  Zn104  1  0.76280873  0.75137590  -0.00271229  1
  Zn  Zn105  1  0.37317682  -0.00081512  0.87559036  1
  Zn  Zn106  1  0.37572612  0.87679746  0.00114000  1
  Zn  Zn107  1  0.18767779  0.18707010  0.19110208  1
  Zn  Zn108  1  0.18683140  0.18461515  0.68144762  1
  Zn  Zn109  1  0.18168796  0.67730348  0.18256263  1
  Zn  Zn110  1  0.18388244  0.68749974  0.68826369  1
  Zn  Zn111  1  0.68882546  0.18687207  0.19132186  1
  Zn  Zn112  1  0.68493557  0.18800262  0.69014213  1
  Zn  Zn113  1  0.68976189  0.69451606  0.18044989  1
  Zn  Zn114  1  0.69095271  0.68687899  0.68703483  1
  Zn  Zn115  1  0.31143769  0.31513740  0.31230953  1
  Zn  Zn116  1  0.31244625  0.31027192  0.81049127  1
  Zn  Zn117  1  0.31155437  0.80748828  0.31593774  1
  Zn  Zn118  1  0.31027102  0.81121233  0.81394241  1
  Zn  Zn119  1  0.81534678  0.32075505  0.31273462  1
  Zn  Zn120  1  0.81494346  0.30931373  0.81129099  1
  Zn  Zn121  1  0.81665302  0.81751852  0.30321242  1
  Zn  Zn122  1  0.81587288  0.81563460  0.81291708  1
  Zn  Zn123  1  0.18508812  0.43525538  0.43575214  1
  Zn  Zn124  1  0.19450242  0.41503737  0.92812069  1
  Zn  Zn125  1  0.18498288  0.93704710  0.43915503  1
  Zn  Zn126  1  0.07722692  0.94053602  0.94496066  1
  Zn  Zn127  1  0.68278132  0.44430272  0.42686123  1
  Zn  Zn128  1  0.69214492  0.43760317  0.93729195  1
  Zn  Zn129  1  0.69034919  0.93288896  0.43804847  1
  Zn  Zn130  1  0.68270619  0.94472815  0.93649690  1
  Zn  Zn131  1  0.30666377  0.05753438  0.06079668  1
  Zn  Zn132  1  0.31072442  0.06331424  0.56035639  1
  Zn  Zn133  1  0.31776048  0.55788371  0.06732539  1
  Zn  Zn134  1  0.31428553  0.56342389  0.56243785  1
  Zn  Zn135  1  0.81906907  0.05980831  0.06040729  1
  Zn  Zn136  1  0.81829894  0.06922154  0.56683925  1
  Zn  Zn137  1  0.82638928  0.56547600  0.06309323  1
  Zn  Zn138  1  0.81227789  0.56539520  0.55644955  1
  Zn  Zn139  1  0.43555579  0.43717005  0.18763575  1
  Zn  Zn140  1  0.44248753  0.43838010  0.68659236  1
  Zn  Zn141  1  0.43602562  0.94136466  0.18668101  1
  Zn  Zn142  1  0.43822594  0.93808089  0.68644073  1
  Zn  Zn143  1  0.93482455  0.43681525  0.19321929  1
  Zn  Zn144  1  0.93411625  0.42404898  0.68366631  1
  Zn  Zn145  1  0.93045149  0.91667462  0.19564733  1
  Zn  Zn146  1  0.94035446  0.93824507  0.69359941  1
  Zn  Zn147  1  0.06200940  0.05867746  0.30966262  1
  Zn  Zn148  1  0.06762642  0.06369661  0.80218821  1
  Zn  Zn149  1  0.05765305  0.56014564  0.31643658  1
  Zn  Zn150  1  0.05618251  0.55684515  0.80786371  1
  Zn  Zn151  1  0.55959848  0.06738842  0.30791705  1
  Zn  Zn152  1  0.56213742  0.06323405  0.81025707  1
  Zn  Zn153  1  0.56407506  0.55895985  0.31217668  1
  Zn  Zn154  1  0.56505852  0.56233491  0.81031634  1
  Zn  Zn155  1  0.44079055  0.18736617  0.43822652  1
  Zn  Zn156  1  0.43036465  0.18947822  0.93686398  1
  Zn  Zn157  1  0.43973545  0.68828741  0.43778318  1
  Zn  Zn158  1  0.43808952  0.68940860  0.93638498  1
  Zn  Zn159  1  0.93349791  0.18433725  0.44492618  1
  Zn  Zn160  1  0.93272073  0.18854885  0.93902245  1
  Zn  Zn161  1  0.94071815  0.68465742  0.43336329  1
  Zn  Zn162  1  0.94664002  0.68374981  0.95392719  1
  Zn  Zn163  1  0.06007601  0.31072709  0.06441295  1
  Zn  Zn164  1  0.06376930  0.30700824  0.56406079  1
  Zn  Zn165  1  0.06727087  0.79679881  0.06940547  1
  Zn  Zn166  1  0.05861768  0.81313783  0.56204250  1
  Zn  Zn167  1  0.56345793  0.31230579  0.05961564  1
  Zn  Zn168  1  0.62799160  0.32709279  0.54469207  1
  Zn  Zn169  1  0.56564863  0.81560558  0.06023738  1
  Zn  Zn170  1  0.56880647  0.81334590  0.56008858  1
  O  O171  1  0.11051449  0.12857765  0.12690311  1
  O  O172  1  0.10852399  0.12925100  0.62213420  1
  O  O173  1  0.10841537  0.60902952  0.13456410  1
  O  O174  1  0.11713111  0.61801886  0.61730091  1
  O  O175  1  0.62466643  0.11464542  0.12679219  1
  O  O176  1  0.62103298  0.11866639  0.61705784  1
  O  O177  1  0.62089758  0.62593661  0.11455971  1
  O  O178  1  0.61925134  0.62305834  0.61854400  1
  O  O179  1  0.38931907  0.38011324  0.36894837  1
  O  O180  1  0.38400089  0.37466028  0.87973523  1
  O  O181  1  0.37841829  0.87924667  0.38214092  1
  O  O182  1  0.38572953  0.87634564  0.87384271  1
  O  O183  1  0.85915844  0.39197881  0.38870405  1
  O  O184  1  0.87987158  0.37979818  0.88178003  1
  O  O185  1  0.89047044  0.88241545  0.37620145  1
  O  O186  1  0.87886694  0.88650392  0.88064227  1
  O  O187  1  0.25480619  0.00713674  0.37637854  1
  O  O188  1  0.25622171  0.00892022  0.85687733  1
  O  O189  1  0.25844453  0.50406933  0.37500160  1
  O  O190  1  0.25209617  0.50489464  0.86576708  1
  O  O191  1  0.76043107  -0.00921182  0.36503587  1
  O  O192  1  0.74364888  0.01850512  0.87348257  1
  O  O193  1  0.74912131  0.50602550  0.35803917  1
  O  O194  1  0.76229951  0.50579463  0.87251018  1
  O  O195  1  0.25643110  0.48304934  0.12908200  1
  O  O196  1  0.24613648  0.49342236  0.62801508  1
  O  O197  1  0.24565890  0.98616215  0.12870285  1
  O  O198  1  0.25495997  0.99184838  0.63476700  1
  O  O199  1  0.75160625  0.49224223  0.13241989  1
  O  O200  1  0.73723607  0.51111056  0.62747719  1
  O  O201  1  0.73998248  0.99807388  0.12596635  1
  O  O202  1  0.74267288  1.00151147  0.62903767  1
  O  O203  1  0.00369200  0.35783432  0.24628876  1
  O  O204  1  0.01130133  0.38009780  0.75802191  1
  O  O205  1  0.01690254  0.89387366  0.27331077  1
  O  O206  1  0.01377021  0.86322364  0.74383114  1
  O  O207  1  0.51201731  0.38115259  0.25436747  1
  O  O208  1  0.50536918  0.37530624  0.76340903  1
  O  O209  1  0.50455209  0.87046212  0.25302700  1
  O  O210  1  0.50873814  0.87423803  0.75853655  1
  O  O211  1  0.48989290  0.11681817  0.23894161  1
  O  O212  1  0.49234507  0.12667559  0.74094083  1
  O  O213  1  0.49654274  0.62855599  0.24352574  1
  O  O214  1  0.49646195  0.62980500  0.73965373  1
  O  O215  1  0.99363907  0.13273363  0.24397313  1
  O  O216  1  0.99961200  0.12305680  0.73589218  1
  O  O217  1  0.99250975  0.62127816  0.25047490  1
  O  O218  1  1.00571403  0.63239707  0.73777197  1
  O  O219  1  0.36438126  0.25592538  0.00701648  1
  O  O220  1  0.36767508  0.24662566  0.50808134  1
  O  O221  1  0.37105702  0.75085780  0.00725788  1
  O  O222  1  0.36610839  0.75559438  0.50034752  1
  O  O223  1  0.86586157  0.26019416  0.00544877  1
  O  O224  1  0.87552640  0.24957459  0.51392401  1
  O  O225  1  0.87740236  0.75754727  0.01005838  1
  O  O226  1  0.88015636  0.74582596  0.51510263  1
  O  O227  1  0.13392842  0.24725584  0.49291036  1
  O  O228  1  0.13813145  0.25487204  0.99744614  1
  O  O229  1  0.12726211  0.73926015  0.49859173  1
  O  O230  1  0.13558423  0.74265180  0.98847971  1
  O  O231  1  0.61875305  0.23387870  0.48351605  1
  O  O232  1  0.63530756  0.25527919  0.99006907  1
  O  O233  1  0.62111327  0.74365871  0.48511334  1
  O  O234  1  0.62587783  0.73882228  0.99255906  1
  O  O235  1  0.48215082  0.25096333  0.11394452  1
  O  O236  1  0.48927382  0.24333730  0.62545550  1
  O  O237  1  0.49554303  0.74594506  0.12897655  1
  O  O238  1  0.50030110  0.74499305  0.63128839  1
  O  O239  1  0.99331789  0.23929340  0.13253696  1
  O  O240  1  0.99687193  0.24149111  0.62697013  1
  O  O241  1  1.00604265  0.72825205  0.13256973  1
  O  O242  1  0.99139189  0.74213058  0.63097061  1
  O  O243  1  0.00779385  0.24099967  0.36877075  1
  O  O244  1  -0.00187820  0.25998118  0.87674360  1
  O  O245  1  0.00941084  0.76277017  0.38126647  1
  O  O246  1  0.00952213  0.73824084  0.86835097  1
  O  O247  1  0.50142172  0.26094153  0.37246498  1
  O  O248  1  0.50700540  0.25682700  0.87588446  1
  O  O249  1  0.50598331  0.75592133  0.36642999  1
  O  O250  1  0.50841006  0.75795293  0.86852900  1
  O  O251  1  0.24788264  0.13388809  0.49092050  1
  O  O252  1  0.25671580  0.13149094  0.98757658  1
  O  O253  1  0.23978488  0.62691419  0.49611542  1
  O  O254  1  0.26141817  0.63364950  0.99902331  1
  O  O255  1  0.73954135  0.11634856  0.49706591  1
  O  O256  1  0.75688353  0.13717353  0.99195791  1
  O  O257  1  0.73706585  0.63634996  0.50221459  1
  O  O258  1  0.74544642  0.62620307  0.99147292  1
  O  O259  1  0.25729955  0.36454799  0.00786129  1
  O  O260  1  0.24736878  0.36354234  0.50450184  1
  O  O261  1  0.25491054  0.85785306  0.01465533  1
  O  O262  1  0.25277009  0.87141126  0.50873777  1
  O  O263  1  0.75403281  0.36769247  0.01111386  1
  O  O264  1  0.72169742  0.37976959  0.50650545  1
  O  O265  1  0.73720010  0.87404139  0.00876027  1
  O  O266  1  0.73998785  0.86248339  0.50666017  1
  O  O267  1  0.12436257  0.48077539  0.26576606  1
  O  O268  1  0.13318552  0.49363698  0.74219821  1
  O  O269  1  0.13090219  1.01194976  0.22991059  1
  O  O270  1  0.13430376  0.98636914  0.75006480  1
  O  O271  1  0.63617066  0.49153105  0.24686809  1
  O  O272  1  0.62796020  0.49387703  0.74232317  1
  O  O273  1  0.63218525  0.99636794  0.24387162  1
  O  O274  1  0.62586750  0.99466045  0.73998126  1
  O  O275  1  0.36842520  -0.00402505  0.26465438  1
  O  O276  1  0.37123517  0.01210108  0.74728340  1
  O  O277  1  0.37449675  0.50675896  0.26064928  1
  O  O278  1  0.36783542  0.50612155  0.74962572  1
  O  O279  1  0.86921968  0.00388859  0.25793324  1
  O  O280  1  0.87630661  -0.00391675  0.76974421  1
  O  O281  1  0.85770070  0.49189904  0.26000089  1
  O  O282  1  0.87567505  0.49150962  0.76460633  1
  O  O283  1  0.12990360  0.35814909  0.36810369  1
  O  O284  1  0.11426460  0.36919427  0.86497454  1
  O  O285  1  0.12056071  0.85950627  0.38298149  1
  O  O286  1  0.12509154  0.86312542  0.86616880  1
  O  O287  1  0.61436044  0.36595850  0.36355708  1
  O  O288  1  0.61946738  0.36895177  0.87027939  1
  O  O289  1  0.61837594  0.86804942  0.36472162  1
  O  O290  1  0.61975865  0.87247930  0.86616878  1
  O  O291  1  0.36778620  0.14032678  0.12354223  1
  O  O292  1  0.37942141  0.13111250  0.62846737  1
  O  O293  1  0.38225667  0.62972305  0.13295595  1
  O  O294  1  0.38424601  0.62593220  0.63336516  1
  O  O295  1  0.88388902  0.12548717  0.13570045  1
  O  O296  1  0.88743172  0.13756571  0.62346128  1
  O  O297  1  0.88417861  0.62728922  0.13504982  1
  O  O298  1  0.88421451  0.63061436  0.62372277  1
  O  O299  1  0.25580656  0.25612176  0.11912830  1
  O  O300  1  0.25901688  0.25410841  0.61668452  1
  O  O301  1  0.25305948  0.75050053  0.12171570  1
  O  O302  1  0.25150809  0.75661969  0.62002871  1
  O  O303  1  0.75518270  0.25389396  0.11909672  1
  O  O304  1  0.75604243  0.24379579  0.62272022  1
  O  O305  1  0.75141356  0.77129711  0.12205464  1
  O  O306  1  0.77158271  0.74808497  0.63238885  1
  O  O307  1  0.24719947  0.24486572  0.38180818  1
  O  O308  1  0.24963002  0.24280906  0.88321649  1
  O  O309  1  0.23858544  0.74322387  0.38346094  1
  O  O310  1  0.24237569  0.74767589  0.88382677  1
  O  O311  1  0.73874382  0.25202589  0.36772309  1
  O  O312  1  0.74609347  0.24036772  0.88107522  1
  O  O313  1  0.74060450  0.75648821  0.36535574  1
  O  O314  1  0.74792682  0.74339153  0.87639399  1
  O  O315  1  -0.00565682  0.12952160  0.01674113  1
  O  O316  1  0.00210319  0.11104316  0.50675839  1
  O  O317  1  -0.00595917  0.61063838  0.02122016  1
  O  O318  1  0.00699364  0.61667213  0.50780891  1
  O  O319  1  0.49383024  0.11607050  0.00184589  1
  O  O320  1  0.50415286  0.11563800  0.50523545  1
  O  O321  1  0.50812283  0.62033254  0.00221919  1
  O  O322  1  0.50524902  0.62806144  0.51263325  1
  O  O323  1  0.51237850  0.37420992  0.48324774  1
  O  O324  1  0.49827465  0.38115078  0.98976678  1
  O  O325  1  0.49564372  0.88023480  0.49459237  1
  O  O326  1  0.50127798  0.87970386  0.98648952  1
  O  O327  1  1.00832115  0.38753982  0.50302785  1
  O  O328  1  0.99133212  0.37265829  0.99309499  1
  O  O329  1  1.00483279  0.88986486  0.49407893  1
  O  O330  1  1.01486932  0.87546885  1.01092474  1
  O  O331  1  0.49432268  0.48921468  0.37618956  1
  O  O332  1  0.50108093  0.49292895  0.88080943  1
  O  O333  1  0.49214470  0.99286102  0.37896692  1
  O  O334  1  0.49942344  0.99500689  0.88130885  1
  O  O335  1  0.99041803  0.49767417  0.38958502  1
  O  O336  1  0.98864569  0.48964810  0.87475948  1
  O  O337  1  0.99616730  0.99411793  0.38644774  1
  O  O338  1  1.00205099  1.00030952  0.87451729  1
  O  O339  1  0.00879174  0.00830461  0.13215229  1
  O  O340  1  -0.00869889  0.00531227  0.61432031  1
  O  O341  1  -0.00455656  0.50712744  0.13315820  1
  O  O342  1  0.00140941  0.50418565  0.61754261  1
  O  O343  1  0.50623763  -0.00190910  0.11353840  1
  O  O344  1  0.51007909  0.00507388  0.61956117  1
  O  O345  1  0.50195263  0.50636629  0.11620786  1
  O  O346  1  0.50904937  0.51005528  0.62306904  1
  O  O347  1  0.23929457  0.37295527  0.24231976  1
  O  O348  1  0.24570146  0.38625881  0.74623798  1
  O  O349  1  0.25275856  0.87104061  0.24147191  1
  O  O350  1  0.24472618  0.88020803  0.74380208  1
  O  O351  1  0.74073410  0.37645667  0.23684141  1
  O  O352  1  0.73751666  0.37828601  0.75682961  1
  O  O353  1  0.74267934  0.88944125  0.23504523  1
  O  O354  1  0.73998652  0.87909842  0.74818540  1
  O  O355  1  0.25699824  0.12769905  0.26472199  1
  O  O356  1  0.25591642  0.11852091  0.74915025  1
  O  O357  1  0.25681972  0.62115660  0.25775602  1
  O  O358  1  0.25850296  0.61269480  0.74004994  1
  O  O359  1  0.75975917  0.11137627  0.24387559  1
  O  O360  1  0.74890196  0.12586320  0.76428254  1
  O  O361  1  0.74445590  0.61346439  0.24035763  1
  O  O362  1  0.74735867  0.62296957  0.76539386  1
  O  O363  1  0.36860025  0.11591916  0.37763329  1
  O  O364  1  0.36605788  0.12646771  0.86215367  1
  O  O365  1  0.37156461  0.61872794  0.37029755  1
  O  O366  1  0.38337981  0.62309382  0.85809796  1
  O  O367  1  0.88180621  0.11426710  0.36337933  1
  O  O368  1  0.86599770  0.11990837  0.87289809  1
  O  O369  1  0.87237098  0.60618583  0.38885176  1
  O  O370  1  0.87286734  0.60975294  0.88232439  1
  O  O371  1  0.13184430  0.36920014  0.13515315  1
  O  O372  1  0.13230415  0.37951129  0.63048789  1
  O  O373  1  0.13241050  0.87935698  0.12975432  1
  O  O374  1  0.13728251  0.86676710  0.63290702  1
  O  O375  1  0.63109893  0.37639597  0.12885981  1
  O  O376  1  0.61166987  0.38761047  0.63939332  1
  O  O377  1  0.63098535  0.88641442  0.12833226  1
  O  O378  1  0.62361346  0.88517246  0.63373340  1
  O  O379  1  0.11679813  0.25462968  0.25780513  1
  O  O380  1  0.13590781  0.26291279  0.75091423  1
  O  O381  1  0.13050396  0.74505766  0.26672946  1
  O  O382  1  0.11953813  0.75464149  0.75827792  1
  O  O383  1  0.62489638  0.25732243  0.25489020  1
  O  O384  1  0.62114393  0.25854567  0.75841430  1
  O  O385  1  0.61998102  0.75635498  0.25264355  1
  O  O386  1  0.62130883  0.75886221  0.75342951  1
  O  O387  1  0.37083906  0.25348020  0.23298474  1
  O  O388  1  0.37468633  0.23942710  0.74013815  1
  O  O389  1  0.38029634  0.74004033  0.24673236  1
  O  O390  1  0.38136453  0.74279188  0.74803237  1
  O  O391  1  0.87959416  0.24266166  0.24852453  1
  O  O392  1  0.87235823  0.25627064  0.73124460  1
  O  O393  1  0.88995426  0.80960016  0.22230771  1
  O  O394  1  0.88921157  0.75403914  0.74498006  1
  O  O395  1  0.37937472  0.50509820  0.48606088  1
  O  O396  1  0.38305863  0.49200915  0.99619652  1
  O  O397  1  0.37858198  0.99410059  0.49043168  1
  O  O398  1  0.38338351  0.99555715  0.99734388  1
  O  O399  1  0.88483213  0.49568631  0.50154891  1
  O  O400  1  0.86659087  0.48488211  0.98874746  1
  O  O401  1  0.88169163  1.00439289  0.49073803  1
  O  O402  1  0.87478013  1.00495960  0.97592967  1
  O  O403  1  0.13146221  0.00515697  0.02538665  1
  O  O404  1  0.11293766  0.00270674  0.50107954  1
  O  O405  1  0.15230564  0.50768612  -0.01857357  1
  O  O406  1  0.11525920  0.50629825  0.50190812  1
  O  O407  1  0.61231438  0.00001333  0.00826955  1
  O  O408  1  0.62015807  0.00476305  0.50559130  1
  O  O409  1  0.62213339  0.51146212  -0.00048188  1
  O  O410  1  0.61923242  0.51408449  0.50521853  1
  O  O411  1  0.36862918  0.36589525  0.12011712  1
  O  O412  1  0.37093604  0.36529175  0.63047478  1
  O  O413  1  0.36873958  0.86533317  0.12604413  1
  O  O414  1  0.36569135  0.87367602  0.61993016  1
  O  O415  1  0.86823305  0.36764137  0.12009470  1
  O  O416  1  0.87255980  0.36009162  0.61516237  1
  O  O417  1  0.85523669  0.90715189  0.10357059  1
  O  O418  1  0.87765100  0.86240999  0.62883346  1
  O  O419  1  0.13291248  0.13375386  0.37553374  1
  O  O420  1  0.13915441  0.12634182  0.86709895  1
  O  O421  1  0.12511703  0.63298033  0.38422200  1
  O  O422  1  0.12870438  0.63088954  0.86574423  1
  O  O423  1  0.62223770  0.13186097  0.37946771  1
  O  O424  1  0.63024130  0.13742335  0.87083889  1
  O  O425  1  0.61711142  0.63614025  0.38233971  1
  O  O426  1  0.63383521  0.62913128  0.88021195  1
