# generated using pymatgen
data_V85Zn86O256
_symmetry_space_group_name_H-M   'P 1'
_cell_length_a   16.92712982
_cell_length_b   16.92009448
_cell_length_c   16.92109364
_cell_angle_alpha   89.95718769
_cell_angle_beta   89.99479675
_cell_angle_gamma   90.02409305
_symmetry_Int_Tables_number   1
_chemical_formula_structural   V85Zn86O256
_chemical_formula_sum   'V85 Zn86 O256'
_cell_volume   4846.34554440
_cell_formula_units_Z   1
loop_
 _symmetry_equiv_pos_site_id
 _symmetry_equiv_pos_as_xyz
  1  'x, y, z'
loop_
 _atom_site_type_symbol
 _atom_site_label
 _atom_site_symmetry_multiplicity
 _atom_site_fract_x
 _atom_site_fract_y
 _atom_site_fract_z
 _atom_site_occupancy
  V  V0  1  0.00280287  0.61898283  0.62060498  1
  V  V1  1  0.75081876  -0.00039928  0.24358071  1
  V  V2  1  0.86807765  0.75089157  0.11873675  1
  V  V3  1  0.50147272  0.38075843  0.87167260  1
  V  V4  1  0.37819838  -0.00462766  0.89140891  1
  V  V5  1  0.62848260  0.63508871  0.00125023  1
  V  V6  1  0.49663557  0.48651886  0.49539565  1
  V  V7  1  0.75803435  0.49577688  0.25079075  1
  V  V8  1  0.75930025  0.61716572  0.37648617  1
  V  V9  1  0.00279163  0.74905143  0.75670730  1
  V  V10  1  0.23335421  0.62443892  0.88018725  1
  V  V11  1  0.37664067  0.25351799  0.62166243  1
  V  V12  1  0.25006849  0.00096028  0.75439739  1
  V  V13  1  0.37637660  0.88164467  0.50423579  1
  V  V14  1  0.75123454  0.12660642  0.37325167  1
  V  V15  1  0.25096895  0.49612911  0.75403750  1
  V  V16  1  0.62641834  0.87522228  0.24829998  1
  V  V17  1  0.87684482  0.39304114  0.49752532  1
  V  V18  1  0.37282006  0.62104068  0.76281343  1
  V  V19  1  0.62198419  0.25542230  0.37539560  1
  V  V20  1  0.87569833  0.61267846  0.75198170  1
  V  V21  1  0.25173970  0.37613969  0.61900220  1
  V  V22  1  0.12414376  0.50884727  0.11615216  1
  V  V23  1  0.62931125  0.37433872  0.24622353  1
  V  V24  1  0.62061443  0.12058294  -0.00182297  1
  V  V25  1  0.12585334  0.12495512  0.50005271  1
  V  V26  1  0.01004459  0.87398645  0.37185853  1
  V  V27  1  0.62114726  0.12396855  0.50382712  1
  V  V28  1  0.37591344  0.12697788  0.75254765  1
  V  V29  1  0.24938867  0.87401580  0.62788886  1
  V  V30  1  0.62355952  0.61459642  0.50229906  1
  V  V31  1  0.12675385  0.00540876  0.12160113  1
  V  V32  1  0.12151438  0.24729044  0.89274498  1
  V  V33  1  0.25047918  0.12466439  0.37501467  1
  V  V34  1  0.00414941  0.75173532  0.24687107  1
  V  V35  1  0.87595541  -0.00259941  0.87304780  1
  V  V36  1  0.50271006  0.88240839  0.37544155  1
  V  V37  1  0.37006796  0.26062150  0.11371394  1
  V  V38  1  0.24954155  0.74654477  0.49095424  1
  V  V39  1  0.25450094  0.25198827  0.49880912  1
  V  V40  1  0.87817380  0.13069241  0.74841063  1
  V  V41  1  0.12010473  0.36130035  0.74484969  1
  V  V42  1  0.12636037  0.61840917  0.49067770  1
  V  V43  1  0.00117124  0.13336091  0.62693952  1
  V  V44  1  0.00091696  0.00007965  0.50169335  1
  V  V45  1  0.73794777  -0.00464325  0.74237898  1
  V  V46  1  0.50921555  0.25505505  0.74848952  1
  V  V47  1  0.56032346  -0.04514238  0.55928946  1
  V  V48  1  0.74817617  0.12588419  0.87278474  1
  V  V49  1  0.49902832  0.61401645  0.62701810  1
  V  V50  1  0.37057411  0.74393684  0.62795252  1
  V  V51  1  0.87181645  0.38286604  -0.00350070  1
  V  V52  1  0.62719917  0.74679288  0.37321250  1
  V  V53  1  0.24515725  -0.00603225  0.25273449  1
  V  V54  1  0.62879947  0.75559229  0.86499034  1
  V  V55  1  0.00386960  0.00720190  -0.00251733  1
  V  V56  1  0.49407617  0.49691603  -0.00063291  1
  V  V57  1  0.24710554  0.13086026  0.88915984  1
  V  V58  1  0.00054580  0.25155037  0.25068171  1
  V  V59  1  0.87585852  0.87546939  0.50123965  1
  V  V60  1  -0.00267703  0.39190287  0.37732601  1
  V  V61  1  0.73143403  0.49739389  0.75093783  1
  V  V62  1  0.63068568  0.49559755  0.12239292  1
  V  V63  1  0.12361600  0.25243986  0.37398366  1
  V  V64  1  0.49953409  0.62520167  0.12818173  1
  V  V65  1  0.37570235  0.75313453  0.11390316  1
  V  V66  1  0.23058221  0.75149288  -0.00477329  1
  V  V67  1  0.49794616  0.25671051  0.25169226  1
  V  V68  1  0.12567040  0.86999584  0.75838079  1
  V  V69  1  -0.00693862  0.37542177  0.86728352  1
  V  V70  1  0.36881217  0.62984612  0.26025533  1
  V  V71  1  0.73934147  0.37952272  0.62737553  1
  V  V72  1  0.50233140  0.87675898  0.88290361  1
  V  V73  1  0.87195506  0.25690961  0.12377479  1
  V  V74  1  0.24854562  0.87392791  0.12461371  1
  V  V75  1  0.75419312  0.62545088  0.87866757  1
  V  V76  1  0.75632499  0.25110345  0.50173026  1
  V  V77  1  0.49861289  0.12058838  0.12133133  1
  V  V78  1  0.12968346  0.37848038  0.24663892  1
  V  V79  1  0.87751497  0.12527795  0.24539515  1
  V  V80  1  0.75162939  0.74755204  0.50018467  1
  V  V81  1  0.87526271  0.75139617  0.62814974  1
  V  V82  1  0.37568307  0.12496377  0.25091206  1
  V  V83  1  0.37363958  0.48347635  0.37574461  1
  V  V84  1  0.74720555  0.25530461  0.00210874  1
  Zn  Zn85  1  0.61874346  -0.00343816  0.11868762  1
  Zn  Zn86  1  0.12266450  0.49713316  0.62129384  1
  Zn  Zn87  1  0.00434993  0.87270739  0.88029337  1
  Zn  Zn88  1  0.87811123  -0.00088182  0.37137781  1
  Zn  Zn89  1  0.74491212  0.87011295  0.11506583  1
  Zn  Zn90  1  0.00185543  0.63008515  0.11706168  1
  Zn  Zn91  1  0.24898561  0.50340875  0.25038943  1
  Zn  Zn92  1  0.00952955  0.13098568  0.11860778  1
  Zn  Zn93  1  0.24818016  0.37666035  0.10359126  1
  Zn  Zn94  1  0.49973832  0.75174189  0.25010590  1
  Zn  Zn95  1  0.87097315  0.87547365  -0.00125709  1
  Zn  Zn96  1  0.87930922  0.62264933  0.25149023  1
  Zn  Zn97  1  0.73452631  0.87583837  0.62597992  1
  Zn  Zn98  1  0.50010381  0.12107566  0.62255792  1
  Zn  Zn99  1  0.12462505  -0.00057609  0.62850140  1
  Zn  Zn100  1  0.50013653  0.75259494  0.75127411  1
  Zn  Zn101  1  0.87900590  0.25680987  0.62885971  1
  Zn  Zn102  1  0.13088704  0.75007177  0.36774592  1
  Zn  Zn103  1  -0.00197982  0.50614502  -0.00929903  1
  Zn  Zn104  1  0.33493746  0.43811999  0.93913210  1
  Zn  Zn105  1  0.37908372  0.00256419  0.37954535  1
  Zn  Zn106  1  0.62518281  0.25511768  0.87205361  1
  Zn  Zn107  1  0.19062439  0.18943319  0.18514705  1
  Zn  Zn108  1  0.19019741  0.18516697  0.68809462  1
  Zn  Zn109  1  0.18733958  0.69036514  0.18783187  1
  Zn  Zn110  1  0.18656365  0.68434884  0.68762127  1
  Zn  Zn111  1  0.68728294  0.18761353  0.18364343  1
  Zn  Zn112  1  0.69046357  0.18528927  0.68343229  1
  Zn  Zn113  1  0.68951630  0.68416558  0.19040060  1
  Zn  Zn114  1  0.68748791  0.68364670  0.68689909  1
  Zn  Zn115  1  0.31058706  0.31121600  0.30799645  1
  Zn  Zn116  1  0.31109866  0.30970406  0.81326480  1
  Zn  Zn117  1  0.31732029  0.81480198  0.31103901  1
  Zn  Zn118  1  0.31382094  0.81135974  0.81900040  1
  Zn  Zn119  1  0.81357179  0.31549962  0.31459055  1
  Zn  Zn120  1  0.80914083  0.31344033  0.81117207  1
  Zn  Zn121  1  0.81762768  0.81083149  0.31072104  1
  Zn  Zn122  1  0.81079591  0.81286117  0.81184757  1
  Zn  Zn123  1  0.19135356  0.43975632  0.43373102  1
  Zn  Zn124  1  0.17468399  0.43486054  0.93310533  1
  Zn  Zn125  1  0.18955916  0.93758183  0.44002533  1
  Zn  Zn126  1  0.19011632  0.93666755  0.94141377  1
  Zn  Zn127  1  0.68700025  0.43551311  0.43686779  1
  Zn  Zn128  1  0.68260947  0.43963485  0.93425245  1
  Zn  Zn129  1  0.69732055  0.93570958  0.42988527  1
  Zn  Zn130  1  0.68887820  0.93665146  0.93566552  1
  Zn  Zn131  1  0.31121986  0.06726300  0.06690588  1
  Zn  Zn132  1  0.31283793  0.06371674  0.56683669  1
  Zn  Zn133  1  0.30591107  0.57039571  0.06815302  1
  Zn  Zn134  1  0.31170552  0.55964623  0.55920296  1
  Zn  Zn135  1  0.81243856  0.06334654  0.05987364  1
  Zn  Zn136  1  0.81275873  0.06281244  0.56392070  1
  Zn  Zn137  1  0.81354071  0.56777779  0.06541217  1
  Zn  Zn138  1  0.81022558  0.56255322  0.56895514  1
  Zn  Zn139  1  0.43994054  0.43963574  0.19013997  1
  Zn  Zn140  1  0.43573716  0.43589909  0.69034778  1
  Zn  Zn141  1  0.43376987  0.93709205  0.18734389  1
  Zn  Zn142  1  0.43386561  0.93256317  0.70073666  1
  Zn  Zn143  1  0.94181189  0.43590878  0.18462562  1
  Zn  Zn144  1  0.93567827  0.43540282  0.68444741  1
  Zn  Zn145  1  0.94010791  0.93532198  0.18436109  1
  Zn  Zn146  1  0.93676021  0.94034823  0.68871725  1
  Zn  Zn147  1  0.06333636  0.06170010  0.31121285  1
  Zn  Zn148  1  0.06349701  0.06602141  0.81346801  1
  Zn  Zn149  1  0.06379723  0.56649513  0.30631200  1
  Zn  Zn150  1  0.06216217  0.55552649  0.80663146  1
  Zn  Zn151  1  0.56412377  0.06500214  0.31249712  1
  Zn  Zn152  1  0.55924378  0.06317878  0.81372121  1
  Zn  Zn153  1  0.56195274  0.55915344  0.31394189  1
  Zn  Zn154  1  0.56085879  0.56612324  0.81744013  1
  Zn  Zn155  1  0.44042872  0.18909062  0.43809642  1
  Zn  Zn156  1  0.43871080  0.18993693  0.93509540  1
  Zn  Zn157  1  0.44106050  0.69002551  0.43955660  1
  Zn  Zn158  1  0.44065832  0.68748448  0.93922682  1
  Zn  Zn159  1  0.93795789  0.19003769  0.43518570  1
  Zn  Zn160  1  0.93770480  0.18950049  0.93619745  1
  Zn  Zn161  1  0.94193913  0.68739845  0.43697997  1
  Zn  Zn162  1  0.93876624  0.68488900  0.93830867  1
  Zn  Zn163  1  0.05653420  0.32090314  0.06340138  1
  Zn  Zn164  1  0.06236459  0.31475618  0.55683366  1
  Zn  Zn165  1  0.05865154  0.82341976  0.06661223  1
  Zn  Zn166  1  0.06509804  0.80939136  0.56629274  1
  Zn  Zn167  1  0.55886853  0.31195578  0.06102214  1
  Zn  Zn168  1  0.56357118  0.30932055  0.56305281  1
  Zn  Zn169  1  0.56073687  0.81354116  0.05954357  1
  Zn  Zn170  1  0.55934966  0.78916649  0.56220182  1
  O  O171  1  0.12819879  0.11202555  0.12873762  1
  O  O172  1  0.11899781  0.12245166  0.61949818  1
  O  O173  1  0.12575689  0.61171621  0.12925415  1
  O  O174  1  0.11773039  0.62347151  0.61637453  1
  O  O175  1  0.61473362  0.12505758  0.11783294  1
  O  O176  1  0.62503435  0.12586853  0.60880650  1
  O  O177  1  0.61876399  0.62103192  0.12042151  1
  O  O178  1  0.61211105  0.63027815  0.61503896  1
  O  O179  1  0.37771106  0.38469450  0.36773386  1
  O  O180  1  0.39112371  0.37271933  0.86589166  1
  O  O181  1  0.38624729  0.87458767  0.38653544  1
  O  O182  1  0.37540905  0.89059492  0.87734108  1
  O  O183  1  0.88502148  0.37193172  0.38446335  1
  O  O184  1  0.88291755  0.36526704  0.88195003  1
  O  O185  1  0.88330503  0.87456518  0.38836106  1
  O  O186  1  0.87754476  0.88889421  0.86961431  1
  O  O187  1  0.25330716  0.00476379  0.36930147  1
  O  O188  1  0.25814168  0.00714095  0.87239487  1
  O  O189  1  0.26792389  0.49909782  0.37101940  1
  O  O190  1  0.25029212  0.50590972  0.86959460  1
  O  O191  1  0.75613997  0.00759786  0.36147809  1
  O  O192  1  0.75611536  0.01034078  0.86502643  1
  O  O193  1  0.74408714  0.50625370  0.36490354  1
  O  O194  1  0.74370215  0.50919037  0.86086320  1
  O  O195  1  0.23911352  0.49730464  0.12810411  1
  O  O196  1  0.24934672  0.49005872  0.63008220  1
  O  O197  1  0.24804471  0.99407374  0.13109386  1
  O  O198  1  0.25073600  0.99367188  0.63718507  1
  O  O199  1  0.73615526  0.50733983  0.13336541  1
  O  O200  1  0.75079029  0.49460503  0.63999311  1
  O  O201  1  0.74681377  1.00300670  0.13613472  1
  O  O202  1  0.75178859  0.99832257  0.63755544  1
  O  O203  1  0.00898438  0.37008017  0.25684471  1
  O  O204  1  0.00699654  0.37512872  0.75256693  1
  O  O205  1  -0.00482595  0.86983561  0.26261084  1
  O  O206  1  0.00878289  0.86812009  0.74766565  1
  O  O207  1  0.51131615  0.36397375  0.24643360  1
  O  O208  1  0.50042843  0.36659366  0.75395279  1
  O  O209  1  0.50738247  0.87413818  0.25762092  1
  O  O210  1  0.49031580  0.86701031  0.77094343  1
  O  O211  1  0.49399829  0.13388313  0.24538882  1
  O  O212  1  0.48827937  0.13078771  0.74882812  1
  O  O213  1  0.49573006  0.62640871  0.24024057  1
  O  O214  1  0.48945208  0.62290297  0.74411450  1
  O  O215  1  0.99252940  0.13131945  0.24797631  1
  O  O216  1  0.99224985  0.11782919  0.73807888  1
  O  O217  1  0.99674413  0.63596457  0.24537303  1
  O  O218  1  0.99364060  0.63044869  0.74471419  1
  O  O219  1  0.38063642  0.24856912  0.01583946  1
  O  O220  1  0.36878326  0.24434600  0.50988427  1
  O  O221  1  0.36987199  0.74313998  0.01230103  1
  O  O222  1  0.37012664  0.75682875  0.50808364  1
  O  O223  1  0.86763889  0.25537264  0.00629006  1
  O  O224  1  0.86315045  0.25259021  0.49906207  1
  O  O225  1  0.87926930  0.75282566  0.01560716  1
  O  O226  1  0.87276898  0.75429864  0.50989647  1
  O  O227  1  0.13301841  0.24401822  0.49374799  1
  O  O228  1  0.12172536  0.25390034  0.99120962  1
  O  O229  1  0.13510473  0.74275517  0.49943001  1
  O  O230  1  0.13225600  0.75492888  1.00404396  1
  O  O231  1  0.63426679  0.24442866  0.49258088  1
  O  O232  1  0.63238381  0.24158190  0.99999811  1
  O  O233  1  0.63241360  0.73594695  0.49280000  1
  O  O234  1  0.62409435  0.73853122  0.99495948  1
  O  O235  1  0.49176265  0.24228341  0.13310821  1
  O  O236  1  0.49246236  0.24814772  0.63032388  1
  O  O237  1  0.49300912  0.74318727  0.12613655  1
  O  O238  1  0.48510403  0.73543324  0.62871419  1
  O  O239  1  0.99260183  0.24930133  0.13170578  1
  O  O240  1  0.99805228  0.23708536  0.61583740  1
  O  O241  1  0.99235177  0.75448809  0.13237599  1
  O  O242  1  0.99299471  0.74123315  0.63297258  1
  O  O243  1  0.00744285  0.25565403  0.36853756  1
  O  O244  1  0.01302047  0.25613920  0.87678901  1
  O  O245  1  0.00156614  0.75855524  0.36762558  1
  O  O246  1  -0.00855323  0.75417983  0.86007238  1
  O  O247  1  0.51003520  0.24521024  0.36473328  1
  O  O248  1  0.50159641  0.25638052  0.86447507  1
  O  O249  1  0.50923713  0.76307329  0.37678550  1
  O  O250  1  0.50993717  0.75408121  0.87536870  1
  O  O251  1  0.24602930  0.12864389  0.49431561  1
  O  O252  1  0.25220712  0.12631211  0.98846545  1
  O  O253  1  0.23757892  0.63362691  0.50585460  1
  O  O254  1  0.24917136  0.63918699  0.99358007  1
  O  O255  1  0.74650188  0.13186582  0.49431689  1
  O  O256  1  0.74578383  0.13408083  0.99069451  1
  O  O257  1  0.74271589  0.62537288  0.49615300  1
  O  O258  1  0.74243012  0.61781440  0.98848727  1
  O  O259  1  0.25418573  0.38015845  -0.00958129  1
  O  O260  1  0.24519268  0.36980046  0.51138224  1
  O  O261  1  0.25009460  0.86049917  0.00637662  1
  O  O262  1  0.25792256  0.86796226  0.50764102  1
  O  O263  1  0.75370929  0.36213365  -0.01146398  1
  O  O264  1  0.75665920  0.36956601  0.50446674  1
  O  O265  1  0.75717319  0.88287154  0.00335229  1
  O  O266  1  0.75938859  0.86892665  0.50242489  1
  O  O267  1  0.12798372  0.49410846  0.24236403  1
  O  O268  1  0.13672826  0.48808721  0.74533330  1
  O  O269  1  0.13906087  1.00398988  0.24502980  1
  O  O270  1  0.13731405  0.99620373  0.75129760  1
  O  O271  1  0.62931214  0.49120864  0.24395490  1
  O  O272  1  0.63323629  0.50625159  0.74775718  1
  O  O273  1  0.63294043  0.99298662  0.24889337  1
  O  O274  1  0.63941062  1.00686157  0.75222786  1
  O  O275  1  0.36548148  0.00927507  0.25206080  1
  O  O276  1  0.36406300  0.00784101  0.75824229  1
  O  O277  1  0.37784287  0.51133891  0.26023315  1
  O  O278  1  0.36036936  0.50690376  0.74550129  1
  O  O279  1  0.87031039  0.00880369  0.24784608  1
  O  O280  1  0.86831922  0.01024454  0.75534921  1
  O  O281  1  0.86117495  0.49709350  0.24134037  1
  O  O282  1  0.87074278  0.51111772  0.74692098  1
  O  O283  1  0.11882729  0.37199663  0.36928506  1
  O  O284  1  0.11634569  0.36144176  0.86461679  1
  O  O285  1  0.11351431  0.87251730  0.38310518  1
  O  O286  1  0.12507125  0.87953829  0.86221014  1
  O  O287  1  0.62816600  0.36172676  0.36756021  1
  O  O288  1  0.61008935  0.37179928  0.87607459  1
  O  O289  1  0.62224838  0.87082242  0.36618308  1
  O  O290  1  0.61829608  0.86617625  0.87707646  1
  O  O291  1  0.37869321  0.13430113  0.13536565  1
  O  O292  1  0.37512369  0.13420097  0.63458405  1
  O  O293  1  0.38276926  0.63141521  0.13585334  1
  O  O294  1  0.37666276  0.62902206  0.63214132  1
  O  O295  1  0.87550721  0.13464169  0.13422887  1
  O  O296  1  0.88319967  0.12706345  0.63097982  1
  O  O297  1  0.87572973  0.63809326  0.13050712  1
  O  O298  1  0.88103167  0.63308108  0.63052079  1
  O  O299  1  0.26605704  0.25445548  0.12833864  1
  O  O300  1  0.25700034  0.25530023  0.62019818  1
  O  O301  1  0.25351890  0.75536817  0.11632439  1
  O  O302  1  0.25806605  0.75249367  0.61882324  1
  O  O303  1  0.75841826  0.24637547  0.11385425  1
  O  O304  1  0.75348646  0.25760699  0.61713858  1
  O  O305  1  0.76378924  0.75080162  0.13353515  1
  O  O306  1  0.75695459  0.75274568  0.61994431  1
  O  O307  1  0.24511022  0.24499436  0.37902586  1
  O  O308  1  0.23472914  0.24263712  0.86916749  1
  O  O309  1  0.25144840  0.75654392  0.38722644  1
  O  O310  1  0.24936763  0.74406330  0.88873864  1
  O  O311  1  0.74402125  0.24557055  0.38129107  1
  O  O312  1  0.74710823  0.23897096  0.87799787  1
  O  O313  1  0.74651979  0.74258228  0.38088596  1
  O  O314  1  0.74200313  0.73892446  0.86803364  1
  O  O315  1  -0.00480885  0.11338229  0.00192206  1
  O  O316  1  0.00363576  0.11744180  0.50307944  1
  O  O317  1  -0.00551883  0.61734734  0.00348886  1
  O  O318  1  0.01545654  0.63248943  0.50708386  1
  O  O319  1  0.50815148  0.13185502  0.00828615  1
  O  O320  1  0.51143039  0.12363880  0.50112712  1
  O  O321  1  0.50842987  0.62092302  0.01099136  1
  O  O322  1  0.50585186  0.61881530  0.50698950  1
  O  O323  1  0.50469347  0.38734888  0.50367677  1
  O  O324  1  0.50096094  0.38614394  0.99267743  1
  O  O325  1  0.49821704  0.87939116  0.49921045  1
  O  O326  1  0.49800443  0.87253422  0.98545711  1
  O  O327  1  0.98974964  0.37381784  0.49045219  1
  O  O328  1  0.98828513  0.37905563  0.98921327  1
  O  O329  1  0.99585659  0.88153380  0.49832574  1
  O  O330  1  0.99270951  0.88981300  0.99732852  1
  O  O331  1  0.48721372  0.50405515  0.38277917  1
  O  O332  1  0.50209677  0.49515950  0.88555865  1
  O  O333  1  0.49984599  0.98777289  0.37180046  1
  O  O334  1  0.48536233  0.99603622  0.87239329  1
  O  O335  1  1.00186359  0.49078646  0.36914672  1
  O  O336  1  1.00511871  0.48110818  0.87270110  1
  O  O337  1  0.99933995  0.99437066  0.38504536  1
  O  O338  1  0.99338336  1.00066806  0.87925802  1
  O  O339  1  0.01017416  0.00181399  0.11851296  1
  O  O340  1  0.00048511  0.00773030  0.61372467  1
  O  O341  1  0.01463103  0.50067762  0.12561060  1
  O  O342  1  0.00078046  0.51493384  0.62885941  1
  O  O343  1  0.49777931  0.01583672  0.13144213  1
  O  O344  1  0.49608374  0.00011719  0.62761956  1
  O  O345  1  0.50949362  0.50726790  0.12189261  1
  O  O346  1  0.48855492  0.50908093  0.61551767  1
  O  O347  1  0.23647357  0.37633706  0.24917792  1
  O  O348  1  0.24343879  0.37846697  0.74125615  1
  O  O349  1  0.25472674  0.88382264  0.24321784  1
  O  O350  1  0.24614841  0.88031494  0.74883774  1
  O  O351  1  0.73827979  0.37997471  0.25307675  1
  O  O352  1  0.75235677  0.38926991  0.74459109  1
  O  O353  1  0.74292315  0.88327154  0.25066743  1
  O  O354  1  0.75160327  0.89034425  0.74614417  1
  O  O355  1  0.25860906  0.12066607  0.25608306  1
  O  O356  1  0.25829023  0.11834173  0.75716449  1
  O  O357  1  0.26578339  0.62559637  0.24696210  1
  O  O358  1  0.25340589  0.61661474  0.75699837  1
  O  O359  1  0.75635993  0.12057153  0.25267316  1
  O  O360  1  0.75598895  0.11799677  0.75452579  1
  O  O361  1  0.75090525  0.61413591  0.26065870  1
  O  O362  1  0.75566117  0.61441350  0.75320866  1
  O  O363  1  0.37234305  0.12436848  0.36528542  1
  O  O364  1  0.36895890  0.11974127  0.86971560  1
  O  O365  1  0.38237098  0.62818922  0.36140565  1
  O  O366  1  0.36874105  0.63014797  0.86502164  1
  O  O367  1  0.87091514  0.12638266  0.36116603  1
  O  O368  1  0.86840174  0.11901558  0.86797663  1
  O  O369  1  0.86269560  0.62811544  0.37645501  1
  O  O370  1  0.86350601  0.63206797  0.86426936  1
  O  O371  1  0.12661095  0.38308792  0.13183106  1
  O  O372  1  0.13077251  0.37528279  0.62849914  1
  O  O373  1  0.13960338  0.88771201  0.12431857  1
  O  O374  1  0.13286625  0.87750079  0.63529621  1
  O  O375  1  0.62131994  0.38341810  0.13216218  1
  O  O376  1  0.64016117  0.37287189  0.61932707  1
  O  O377  1  0.62378293  0.87652073  0.13569300  1
  O  O378  1  0.61634241  0.87883525  0.60927340  1
  O  O379  1  0.12067197  0.25723320  0.25285594  1
  O  O380  1  0.12690940  0.25939482  0.74888205  1
  O  O381  1  0.11208808  0.74890963  0.25056519  1
  O  O382  1  0.11574339  0.75757766  0.74413818  1
  O  O383  1  0.62073656  0.25499169  0.25434003  1
  O  O384  1  0.61192290  0.24091621  0.74748066  1
  O  O385  1  0.62440159  0.75793844  0.25512550  1
  O  O386  1  0.62160505  0.74343673  0.76087500  1
  O  O387  1  0.38299224  0.24366412  0.24643362  1
  O  O388  1  0.38029197  0.24169478  0.74298055  1
  O  O389  1  0.37800868  0.74109102  0.24339691  1
  O  O390  1  0.37038091  0.73971899  0.74303005  1
  O  O391  1  0.87777047  0.24639804  0.24260252  1
  O  O392  1  0.86924850  0.23540297  0.74823683  1
  O  O393  1  0.88609699  0.74838994  0.24308707  1
  O  O394  1  0.87886027  0.74480350  0.73965324  1
  O  O395  1  0.38109109  0.50384535  0.48405303  1
  O  O396  1  0.38954609  0.51313617  1.00735800  1
  O  O397  1  0.37018438  0.98608485  0.50143652  1
  O  O398  1  0.37303816  1.00614570  0.98947020  1
  O  O399  1  0.86950744  0.49234277  0.50031647  1
  O  O400  1  0.86808890  0.48490778  1.00599207  1
  O  O401  1  0.88208270  0.99283397  0.49823244  1
  O  O402  1  0.88088646  1.00400939  0.98810547  1
  O  O403  1  0.11800337  -0.00193577  0.00755526  1
  O  O404  1  0.11809009  0.00614426  0.50321384  1
  O  O405  1  0.12066225  0.49641953  0.01333699  1
  O  O406  1  0.13096347  0.51455330  0.50072575  1
  O  O407  1  0.63008784  0.01614259  0.00059503  1
  O  O408  1  0.62793658  0.00587199  0.49421078  1
  O  O409  1  0.61763956  0.50894166  0.00747635  1
  O  O410  1  0.61596019  0.50890655  0.49324816  1
  O  O411  1  0.37595729  0.36375055  0.13084300  1
  O  O412  1  0.36593280  0.36209531  0.63036184  1
  O  O413  1  0.36370073  0.86546769  0.12992267  1
  O  O414  1  0.37137071  0.86518498  0.62194237  1
  O  O415  1  0.87897247  0.36319875  0.11634489  1
  O  O416  1  0.86783545  0.37393369  0.61439805  1
  O  O417  1  0.87110806  0.86268088  0.12768977  1
  O  O418  1  0.87766781  0.86800770  0.61527370  1
  O  O419  1  0.13018614  0.13095995  0.37996652  1
  O  O420  1  0.13079513  0.13954936  0.87195126  1
  O  O421  1  0.12272632  0.62860311  0.38725613  1
  O  O422  1  0.13455965  0.62186018  0.86775181  1
  O  O423  1  0.63128919  0.13430929  0.38120945  1
  O  O424  1  0.63143264  0.12816087  0.88046925  1
  O  O425  1  0.63220192  0.62814083  0.38109323  1
  O  O426  1  0.63133147  0.63305911  0.88305548  1
