# generated using pymatgen
data_V85Zn86O256
_symmetry_space_group_name_H-M   'P 1'
_cell_length_a   16.94151611
_cell_length_b   16.95292765
_cell_length_c   16.94298501
_cell_angle_alpha   90.02865228
_cell_angle_beta   90.06818083
_cell_angle_gamma   90.04975010
_symmetry_Int_Tables_number   1
_chemical_formula_structural   V85Zn86O256
_chemical_formula_sum   'V85 Zn86 O256'
_cell_volume   4866.15997736
_cell_formula_units_Z   1
loop_
 _symmetry_equiv_pos_site_id
 _symmetry_equiv_pos_as_xyz
  1  'x, y, z'
loop_
 _atom_site_type_symbol
 _atom_site_label
 _atom_site_symmetry_multiplicity
 _atom_site_fract_x
 _atom_site_fract_y
 _atom_site_fract_z
 _atom_site_occupancy
  V  V0  1  0.13002910  0.12271918  0.51467156  1
  V  V1  1  0.75041409  0.49691768  0.73577084  1
  V  V2  1  0.49429140  0.87174438  0.36521479  1
  V  V3  1  0.61243716  0.50439878  0.61396644  1
  V  V4  1  0.37213696  0.49761940  0.37239539  1
  V  V5  1  0.62856240  0.12548741  0.50108486  1
  V  V6  1  0.49563249  0.74692353  0.73805616  1
  V  V7  1  0.74950881  -0.00031057  0.75054350  1
  V  V8  1  0.87609452  0.49999627  0.36995493  1
  V  V9  1  0.87716543  0.12561602  0.25056690  1
  V  V10  1  0.73477722  0.13035096  0.87796578  1
  V  V11  1  0.87296588  0.62447111  0.74959020  1
  V  V12  1  0.62460553  0.75098491  0.36479423  1
  V  V13  1  0.62689534  0.37103670  0.74552561  1
  V  V14  1  0.25629070  0.75655765  0.01315377  1
  V  V15  1  0.25280812  0.62774535  0.87593316  1
  V  V16  1  0.12644538  0.75232108  0.87425392  1
  V  V17  1  0.74702715  0.75384500  -0.00341799  1
  V  V18  1  0.24828889  0.37103403  0.61828628  1
  V  V19  1  0.87480077  0.00337482  0.87609820  1
  V  V20  1  0.73243564  0.60311190  0.89718560  1
  V  V21  1  0.38243160  0.37648448  0.50040903  1
  V  V22  1  0.74754228  0.62113513  0.37983369  1
  V  V23  1  0.25677866  0.25845634  0.00169739  1
  V  V24  1  0.75279755  0.13144836  0.38172568  1
  V  V25  1  0.00214623  0.87513546  0.87571779  1
  V  V26  1  0.38632099  0.62373717  0.24732103  1
  V  V27  1  0.12771942  0.25186677  0.87705511  1
  V  V28  1  0.00179646  0.24672793  0.74501076  1
  V  V29  1  0.24736387  0.11431798  0.36923073  1
  V  V30  1  0.50323238  0.24573235  0.75126716  1
  V  V31  1  0.50062869  0.37257319  0.87138927  1
  V  V32  1  0.00370755  0.25017998  0.25110701  1
  V  V33  1  0.25805561  0.88115469  0.62328358  1
  V  V34  1  0.37060937  -0.00362197  0.87664336  1
  V  V35  1  0.74250523  0.74656188  0.50087989  1
  V  V36  1  0.37879976  0.62849364  0.73814886  1
  V  V37  1  0.12229372  0.49997867  0.13248514  1
  V  V38  1  0.37597714  0.49948760  0.87944388  1
  V  V39  1  0.24753735  0.37916064  0.13459348  1
  V  V40  1  0.00356972  0.37451669  0.87316627  1
  V  V41  1  0.36909852  0.24535844  0.61724281  1
  V  V42  1  0.64161628  0.38119680  0.25263685  1
  V  V43  1  0.49829104  0.87296307  0.87869296  1
  V  V44  1  0.87152683  0.25295754  0.12277397  1
  V  V45  1  0.00808922  0.62560750  0.62318053  1
  V  V46  1  0.24269070  0.61657238  0.37379090  1
  V  V47  1  0.00486775  0.00267415  0.51429698  1
  V  V48  1  0.38365994  0.25479733  0.13563350  1
  V  V49  1  0.37039306  0.12096507  0.75011248  1
  V  V50  1  0.00394830  0.37222460  0.37469797  1
  V  V51  1  0.88059684  -0.00010687  0.37589988  1
  V  V52  1  0.39264769  0.38961014  0.01370558  1
  V  V53  1  0.49709938  0.36969891  0.36483725  1
  V  V54  1  0.87290964  0.63336441  0.25120468  1
  V  V55  1  0.00347423  0.00269731  0.00281641  1
  V  V56  1  0.73419147  0.25139468  0.00060315  1
  V  V57  1  0.74905712  0.87322814  0.62513922  1
  V  V58  1  0.13210003  0.24498153  0.37993732  1
  V  V59  1  0.38359907  0.12297280  0.25160885  1
  V  V60  1  0.87973685  0.49832027  0.86826153  1
  V  V61  1  0.87491878  0.74758014  0.62404313  1
  V  V62  1  0.87819790  0.12410797  0.74747618  1
  V  V63  1  0.00776571  0.50159102  0.50053619  1
  V  V64  1  -0.00239967  0.50499884  0.00035416  1
  V  V65  1  0.49810484  0.12005749  0.62152441  1
  V  V66  1  0.12959157  0.89144120  0.74371327  1
  V  V67  1  0.25150362  0.12334150  0.87563732  1
  V  V68  1  0.13247005  0.86176254  0.24544207  1
  V  V69  1  0.87913284  0.87835538  0.00061225  1
  V  V70  1  0.61852221  0.24611173  0.37280418  1
  V  V71  1  0.87951790  0.75412757  0.12895159  1
  V  V72  1  0.74826152  0.00074179  0.25201671  1
  V  V73  1  0.62280694  0.87340873  0.74775713  1
  V  V74  1  0.87008156  0.24629643  0.62148938  1
  V  V75  1  0.87246064  0.37231475  -0.00195517  1
  V  V76  1  -0.00107268  0.63280614  0.13040282  1
  V  V77  1  0.87611881  0.87516594  0.49973485  1
  V  V78  1  0.87083987  0.37002081  0.49936111  1
  V  V79  1  0.24934992  0.49935597  0.74728051  1
  V  V80  1  0.00343528  0.12379023  0.12428974  1
  V  V81  1  0.75310250  0.87598205  0.12491330  1
  V  V82  1  0.14491627  -0.00102831  0.13307571  1
  V  V83  1  0.62681997  0.01128067  0.11641498  1
  V  V84  1  0.12031300  0.74622707  0.38644327  1
  Zn  Zn85  1  0.62640627  0.75018105  0.87517028  1
  Zn  Zn86  1  0.13171740  0.12594965  0.00391300  1
  Zn  Zn87  1  0.49846125  0.62634108  0.58801746  1
  Zn  Zn88  1  0.37829793  0.87154427  0.50395505  1
  Zn  Zn89  1  0.62401657  -0.00282617  0.62047427  1
  Zn  Zn90  1  0.41793499  0.77656665  0.16034036  1
  Zn  Zn91  1  0.51460478  0.14356211  0.12136602  1
  Zn  Zn92  1  0.37409293  0.87883969  0.01583434  1
  Zn  Zn93  1  0.12569445  0.62757267  0.00251012  1
  Zn  Zn94  1  0.12784803  0.37859393  0.25684594  1
  Zn  Zn95  1  0.49696889  -0.00233972  0.49360624  1
  Zn  Zn96  1  0.12709625  0.37445267  0.74692458  1
  Zn  Zn97  1  0.12934808  0.50240772  0.62078924  1
  Zn  Zn98  1  0.74365902  0.36804109  0.61379371  1
  Zn  Zn99  1  0.25220202  0.74146999  0.51053222  1
  Zn  Zn100  1  0.62226437  0.86838141  0.24272062  1
  Zn  Zn101  1  0.36884336  -0.00608492  0.37360472  1
  Zn  Zn102  1  0.00075055  0.75086138  0.75021257  1
  Zn  Zn103  1  0.50313447  0.00985630  -0.00320818  1
  Zn  Zn104  1  0.53993587  0.55086117  0.05691670  1
  Zn  Zn105  1  -0.00016474  0.86857265  0.36887119  1
  Zn  Zn106  1  0.69891027  0.53565928  0.21424020  1
  Zn  Zn107  1  0.19162423  0.18869041  0.19029719  1
  Zn  Zn108  1  0.18871442  0.18698505  0.69055909  1
  Zn  Zn109  1  0.19091783  0.68035205  0.19471099  1
  Zn  Zn110  1  0.18902382  0.69355208  0.69065030  1
  Zn  Zn111  1  0.69122372  0.19404087  0.19307395  1
  Zn  Zn112  1  0.68854244  0.18537606  0.68704162  1
  Zn  Zn113  1  0.56977623  0.66948926  0.19277166  1
  Zn  Zn114  1  0.68225938  0.68276394  0.68817223  1
  Zn  Zn115  1  0.30862868  0.30705016  0.31428303  1
  Zn  Zn116  1  0.31631247  0.31253585  0.80979997  1
  Zn  Zn117  1  0.30597690  0.80448087  0.31418820  1
  Zn  Zn118  1  0.31103078  0.81259976  0.80792073  1
  Zn  Zn119  1  0.81632510  0.30820832  0.31674674  1
  Zn  Zn120  1  0.80980182  0.30917692  0.81269187  1
  Zn  Zn121  1  0.81080090  0.81278874  0.31294241  1
  Zn  Zn122  1  0.81318975  0.81057990  0.81380855  1
  Zn  Zn123  1  0.19116583  0.43587703  0.44067765  1
  Zn  Zn124  1  0.18883828  0.43888716  0.94261321  1
  Zn  Zn125  1  0.18498654  0.93396238  0.43806601  1
  Zn  Zn126  1  0.18817892  0.93800615  0.94140326  1
  Zn  Zn127  1  0.68766225  0.43535991  0.43128489  1
  Zn  Zn128  1  0.69098700  0.42859330  0.92588845  1
  Zn  Zn129  1  0.68466689  0.93703454  0.43657539  1
  Zn  Zn130  1  0.68718447  0.93807022  0.93557896  1
  Zn  Zn131  1  0.32365625  0.06999251  0.05981204  1
  Zn  Zn132  1  0.30695847  0.04983043  0.55971305  1
  Zn  Zn133  1  0.30869803  0.56619353  0.06676206  1
  Zn  Zn134  1  0.31278921  0.56128129  0.55653543  1
  Zn  Zn135  1  0.81098199  0.06849031  0.06041292  1
  Zn  Zn136  1  0.81389647  0.06106806  0.56486543  1
  Zn  Zn137  1  0.72099909  0.56325518  0.06588789  1
  Zn  Zn138  1  0.81882357  0.55992394  0.55859062  1
  Zn  Zn139  1  0.44300821  0.44311295  0.19119738  1
  Zn  Zn140  1  0.43629512  0.43830792  0.68815325  1
  Zn  Zn141  1  0.43973523  0.94758705  0.18920962  1
  Zn  Zn142  1  0.43522173  0.93991792  0.69092163  1
  Zn  Zn143  1  0.88283704  0.46983764  0.15700011  1
  Zn  Zn144  1  0.94042069  0.43350613  0.68306851  1
  Zn  Zn145  1  0.94521755  0.93671839  0.19224698  1
  Zn  Zn146  1  0.93866195  0.93417664  0.69049210  1
  Zn  Zn147  1  0.06541938  0.05817783  0.31104393  1
  Zn  Zn148  1  0.06284752  0.06663815  0.81644810  1
  Zn  Zn149  1  0.05741041  0.56488200  0.31101247  1
  Zn  Zn150  1  0.06595301  0.56479316  0.80972864  1
  Zn  Zn151  1  0.56101237  0.06005998  0.30985432  1
  Zn  Zn152  1  0.55903663  0.05761009  0.80996820  1
  Zn  Zn153  1  0.54184461  0.57685004  0.37794619  1
  Zn  Zn154  1  0.54350055  0.58290446  0.86138220  1
  Zn  Zn155  1  0.43570216  0.18576128  0.43759924  1
  Zn  Zn156  1  0.44144062  0.19101488  0.94257852  1
  Zn  Zn157  1  0.42855911  0.69490106  0.43694649  1
  Zn  Zn158  1  0.43745731  0.69106987  0.94433979  1
  Zn  Zn159  1  0.94448036  0.18432806  0.44204616  1
  Zn  Zn160  1  0.93646517  0.18716079  0.93530024  1
  Zn  Zn161  1  0.93875005  0.68715580  0.44077993  1
  Zn  Zn162  1  0.93131293  0.68706045  0.93821057  1
  Zn  Zn163  1  0.06236264  0.31337020  0.06173658  1
  Zn  Zn164  1  0.06171034  0.30922387  0.56246533  1
  Zn  Zn165  1  0.07023675  0.81450196  0.06317085  1
  Zn  Zn166  1  0.06313127  0.81504585  0.56302964  1
  Zn  Zn167  1  0.55692222  0.34596249  0.07643924  1
  Zn  Zn168  1  0.56172583  0.30618036  0.56071112  1
  Zn  Zn169  1  0.56523241  0.81665320  0.06196163  1
  Zn  Zn170  1  0.55948696  0.81159320  0.55666763  1
  O  O171  1  0.12114234  0.11712856  0.12557101  1
  O  O172  1  0.12928969  0.12606918  0.61373809  1
  O  O173  1  0.11678671  0.61806655  0.12469555  1
  O  O174  1  0.11133832  0.62427635  0.63613148  1
  O  O175  1  0.63182659  0.11535908  0.13235678  1
  O  O176  1  0.61693972  0.12402076  0.61764316  1
  O  O177  1  0.62195785  0.58658251  0.13221406  1
  O  O178  1  0.62075697  0.60810548  0.62529833  1
  O  O179  1  0.37689065  0.37381986  0.38067763  1
  O  O180  1  0.38045602  0.38293259  0.88053128  1
  O  O181  1  0.38622947  0.87296863  0.36558798  1
  O  O182  1  0.38012587  0.88371432  0.87118031  1
  O  O183  1  0.88440420  0.37965166  0.38025965  1
  O  O184  1  0.88439255  0.37774111  0.87632671  1
  O  O185  1  0.87705050  0.88373394  0.37986420  1
  O  O186  1  0.88250870  0.88298561  0.87865448  1
  O  O187  1  0.24729685  0.01035778  0.37676226  1
  O  O188  1  0.25680480  0.01161220  0.88197435  1
  O  O189  1  0.25202849  0.50712918  0.37486791  1
  O  O190  1  0.25338207  0.50667686  0.86810931  1
  O  O191  1  0.76013277  0.00594800  0.36897748  1
  O  O192  1  0.75614045  0.00715605  0.87008269  1
  O  O193  1  0.76372967  0.51031721  0.38738600  1
  O  O194  1  0.76154335  0.49901845  0.85239919  1
  O  O195  1  0.23387389  0.49186493  0.11820901  1
  O  O196  1  0.24987980  0.49316089  0.63079998  1
  O  O197  1  0.24164284  1.00848831  0.11900524  1
  O  O198  1  0.24470428  0.98257331  0.62993240  1
  O  O199  1  0.77638673  0.50216512  0.13848655  1
  O  O200  1  0.75301579  0.49293767  0.62745338  1
  O  O201  1  0.74797845  0.99698575  0.13099062  1
  O  O202  1  0.74953736  0.99180989  0.63361083  1
  O  O203  1  0.00313684  0.36679279  0.26807890  1
  O  O204  1  0.00273836  0.36760456  0.75765713  1
  O  O205  1  0.02184138  0.88487622  0.25592295  1
  O  O206  1  0.00896844  0.87357414  0.75960331  1
  O  O207  1  0.50782143  0.37359425  0.26286163  1
  O  O208  1  0.50421289  0.36460011  0.75086051  1
  O  O209  1  0.50619379  0.87743668  0.25960202  1
  O  O210  1  0.50592648  0.86787062  0.75210858  1
  O  O211  1  0.48852586  0.12786030  0.24630840  1
  O  O212  1  0.49338985  0.12880831  0.74266155  1
  O  O213  1  0.48957064  0.61773761  0.26752065  1
  O  O214  1  0.48987832  0.63605644  0.76320734  1
  O  O215  1  0.99585266  0.12887148  0.24356930  1
  O  O216  1  0.99056175  0.13430389  0.75763401  1
  O  O217  1  0.98785286  0.62501017  0.24142024  1
  O  O218  1  0.98797024  0.62504613  0.74598334  1
  O  O219  1  0.36802075  0.26304172  0.00943698  1
  O  O220  1  0.37419680  0.25120344  0.51280563  1
  O  O221  1  0.36167062  0.75346063  -0.00066319  1
  O  O222  1  0.36423434  0.75949218  0.49683918  1
  O  O223  1  0.87360702  0.25591290  0.00590644  1
  O  O224  1  0.88543858  0.25498991  0.51049214  1
  O  O225  1  0.87180525  0.76240777  0.00658618  1
  O  O226  1  0.86821725  0.75810113  0.50465929  1
  O  O227  1  0.11467535  0.23062796  0.49428848  1
  O  O228  1  0.13896509  0.25214192  0.99569211  1
  O  O229  1  0.12614086  0.75052602  0.48883519  1
  O  O230  1  0.13505512  0.75015062  0.98931791  1
  O  O231  1  0.62352618  0.23437910  0.49121080  1
  O  O232  1  0.63891951  0.26987081  1.01743846  1
  O  O233  1  0.63943715  0.75575053  0.49088159  1
  O  O234  1  0.64331161  0.75973524  0.99469477  1
  O  O235  1  0.48671291  0.26059938  0.12387548  1
  O  O236  1  0.49165649  0.23690178  0.63087345  1
  O  O237  1  0.51409968  0.73839447  0.12215496  1
  O  O238  1  0.50777380  0.74077384  0.63418129  1
  O  O239  1  0.99666718  0.23950896  0.12778598  1
  O  O240  1  0.99161855  0.25426998  0.63973825  1
  O  O241  1  0.99806945  0.73966988  0.11561786  1
  O  O242  1  0.99375206  0.74284484  0.62547679  1
  O  O243  1  0.00910759  0.25384519  0.37296239  1
  O  O244  1  0.00568242  0.25553279  0.86787209  1
  O  O245  1  0.01458376  0.74707521  0.37808934  1
  O  O246  1  0.00750779  0.75618034  0.87766222  1
  O  O247  1  0.50837467  0.25350430  0.37807370  1
  O  O248  1  0.48968960  0.25308585  0.85626076  1
  O  O249  1  0.51204174  0.76337341  0.37459832  1
  O  O250  1  0.50094061  0.76343739  0.86725076  1
  O  O251  1  0.23438261  0.11812229  0.49377655  1
  O  O252  1  0.25541902  0.13893946  0.99105998  1
  O  O253  1  0.25149405  0.62341777  0.48194832  1
  O  O254  1  0.24867007  0.63445380  0.99135882  1
  O  O255  1  0.74331163  0.11733575  0.49253884  1
  O  O256  1  0.75199637  0.13799868  0.99009025  1
  O  O257  1  0.76223309  0.63653597  0.49299691  1
  O  O258  1  0.76719444  0.64354266  0.99619356  1
  O  O259  1  0.25985405  0.37298247  0.01036984  1
  O  O260  1  0.25948084  0.37396953  0.51260535  1
  O  O261  1  0.25147376  0.85994560  -0.00228953  1
  O  O262  1  0.24571960  0.87604987  0.51523898  1
  O  O263  1  0.76611533  0.36666585  -0.01153262  1
  O  O264  1  0.76707677  0.37357281  0.49513547  1
  O  O265  1  0.76023048  0.87558962  0.00435546  1
  O  O266  1  0.75654798  0.87057683  0.50570725  1
  O  O267  1  0.11389996  0.49671593  0.23609282  1
  O  O268  1  0.13919066  0.49797285  0.74872661  1
  O  O269  1  0.12871827  0.99788625  0.23598771  1
  O  O270  1  0.12241847  0.98932054  0.75744031  1
  O  O271  1  0.62690709  0.48084055  0.28203456  1
  O  O272  1  0.63822556  0.48781479  0.73068006  1
  O  O273  1  0.64027825  1.00135698  0.24347488  1
  O  O274  1  0.62910236  0.98750614  0.74614738  1
  O  O275  1  0.37539228  0.01908029  0.25395209  1
  O  O276  1  0.37765340  0.01373999  0.76076146  1
  O  O277  1  0.37764414  0.50328081  0.26411806  1
  O  O278  1  0.36459696  0.50469162  0.75729054  1
  O  O279  1  0.86820387  0.00508762  0.25688942  1
  O  O280  1  0.87127899  0.00634490  0.75500504  1
  O  O281  1  0.88537121  0.50868027  0.26693326  1
  O  O282  1  0.87282058  0.50406666  0.74853820  1
  O  O283  1  0.12116112  0.36439267  0.37984906  1
  O  O284  1  0.12113571  0.36949858  0.87406944  1
  O  O285  1  0.12400908  0.85936760  0.36970360  1
  O  O286  1  0.12181064  0.87043896  0.86946821  1
  O  O287  1  0.61516589  0.36155697  0.37996461  1
  O  O288  1  0.61626742  0.37903076  0.85483216  1
  O  O289  1  0.62230607  0.86700500  0.36806514  1
  O  O290  1  0.61708668  0.87613829  0.86547034  1
  O  O291  1  0.37449359  0.13729544  0.13864633  1
  O  O292  1  0.37672391  0.12662726  0.63016289  1
  O  O293  1  0.37778708  0.60946841  0.14638379  1
  O  O294  1  0.38347708  0.61358481  0.63496346  1
  O  O295  1  0.88436924  0.13220820  0.12932095  1
  O  O296  1  0.87221126  0.12979810  0.63859387  1
  O  O297  1  0.88288817  0.63854816  0.13623407  1
  O  O298  1  0.88478385  0.62874480  0.63112881  1
  O  O299  1  0.25440013  0.25912821  0.11774054  1
  O  O300  1  0.25882852  0.25821680  0.63298191  1
  O  O301  1  0.24377856  0.74168833  0.11084136  1
  O  O302  1  0.23564816  0.77005742  0.62449505  1
  O  O303  1  0.76605679  0.24417935  0.11864797  1
  O  O304  1  0.76520684  0.25013994  0.62850260  1
  O  O305  1  0.76023698  0.76897073  0.11576159  1
  O  O306  1  0.75289104  0.75209242  0.61851765  1
  O  O307  1  0.23637145  0.24121477  0.37782294  1
  O  O308  1  0.24937525  0.24862488  0.88277707  1
  O  O309  1  0.23584090  0.73671558  0.37737926  1
  O  O310  1  0.24485792  0.74291945  0.87830518  1
  O  O311  1  0.74609512  0.23517112  0.37575612  1
  O  O312  1  0.74976033  0.24185409  0.88522282  1
  O  O313  1  0.74643260  0.74474498  0.38257384  1
  O  O314  1  0.75292456  0.74335137  0.88433999  1
  O  O315  1  0.00444095  0.12276168  0.00771459  1
  O  O316  1  0.01090800  0.11022659  0.49940747  1
  O  O317  1  -0.00048158  0.61808204  0.00444537  1
  O  O318  1  -0.00562315  0.61403652  0.51126054  1
  O  O319  1  0.49402392  0.12295348  0.01055211  1
  O  O320  1  0.50578449  0.12179397  0.50712280  1
  O  O321  1  0.51078429  0.61218489  -0.03208755  1
  O  O322  1  0.50348157  0.62327767  0.47647825  1
  O  O323  1  0.48578744  0.36316213  0.49438769  1
  O  O324  1  0.50102723  0.35428242  0.97406016  1
  O  O325  1  0.50153812  0.87740704  0.48415137  1
  O  O326  1  0.49972377  0.88228853  0.98964867  1
  O  O327  1  0.99387527  0.37807044  0.49165729  1
  O  O328  1  0.99416775  0.37882237  0.99028895  1
  O  O329  1  0.99595348  0.88709267  0.49561413  1
  O  O330  1  0.99875449  0.88217336  0.99520157  1
  O  O331  1  0.48419471  0.47952254  0.38176143  1
  O  O332  1  0.48582912  0.48401135  0.85941044  1
  O  O333  1  0.50077340  0.98530078  0.37262861  1
  O  O334  1  0.49131793  0.98956667  0.87324064  1
  O  O335  1  0.99744335  0.49225763  0.38206294  1
  O  O336  1  0.99965096  0.49538204  0.87842587  1
  O  O337  1  0.98796402  1.00257137  0.37975187  1
  O  O338  1  0.99534889  0.99703788  0.88371682  1
  O  O339  1  0.00312649  0.01307934  0.12209204  1
  O  O340  1  -0.00637315  -0.00136028  0.61239450  1
  O  O341  1  -0.00542560  0.51297993  0.11574184  1
  O  O342  1  0.00259554  0.50608496  0.61779355  1
  O  O343  1  0.52241755  0.00367854  0.12753366  1
  O  O344  1  0.50052438  0.01142077  0.62597728  1
  O  O345  1  0.48656677  0.45162377  0.08631627  1
  O  O346  1  0.50949368  0.50018314  0.62404802  1
  O  O347  1  0.24514060  0.37085959  0.23882221  1
  O  O348  1  0.25307545  0.38305515  0.73964311  1
  O  O349  1  0.23190504  0.87513229  0.25791447  1
  O  O350  1  0.23561633  0.87321148  0.74425567  1
  O  O351  1  0.74208182  0.37574804  0.26651280  1
  O  O352  1  0.74319818  0.37784940  0.74466954  1
  O  O353  1  0.75158924  0.88472705  0.24088462  1
  O  O354  1  0.74275004  0.87824812  0.74671104  1
  O  O355  1  0.26038674  0.13093866  0.26124055  1
  O  O356  1  0.25799537  0.13218475  0.76500872  1
  O  O357  1  0.26009928  0.62216684  0.26534439  1
  O  O358  1  0.25757611  0.61994882  0.75433084  1
  O  O359  1  0.75891819  0.11927454  0.25878826  1
  O  O360  1  0.75647994  0.11960466  0.75679747  1
  O  O361  1  0.76576830  0.62212466  0.26536464  1
  O  O362  1  0.76336522  0.61439222  0.74033861  1
  O  O363  1  0.36681003  0.12720360  0.36583741  1
  O  O364  1  0.36995682  0.12058825  0.86869043  1
  O  O365  1  0.36478714  0.61303864  0.36827330  1
  O  O366  1  0.36389186  0.61911509  0.86716777  1
  O  O367  1  0.87044900  0.11992751  0.37322185  1
  O  O368  1  0.86821831  0.12098256  0.86503934  1
  O  O369  1  0.87279337  0.61957118  0.37183240  1
  O  O370  1  0.86469170  0.61564651  0.86739572  1
  O  O371  1  0.12905330  0.38185538  0.12635510  1
  O  O372  1  0.13400638  0.37464616  0.62595312  1
  O  O373  1  0.12594680  0.88645476  0.13504101  1
  O  O374  1  0.11942207  0.87728613  0.64207230  1
  O  O375  1  0.63341283  0.38183483  0.15227513  1
  O  O376  1  0.62415108  0.37675114  0.62972938  1
  O  O377  1  0.63843738  0.88873169  0.12545355  1
  O  O378  1  0.63023602  0.87504858  0.63037922  1
  O  O379  1  0.11889712  0.25042248  0.26007491  1
  O  O380  1  0.11736643  0.25042324  0.75783025  1
  O  O381  1  0.12609387  0.75777878  0.25377158  1
  O  O382  1  0.12169431  0.75636079  0.76497635  1
  O  O383  1  0.63125957  0.25988988  0.26569200  1
  O  O384  1  0.61486184  0.25644285  0.74068007  1
  O  O385  1  0.63193149  0.74669948  0.26147480  1
  O  O386  1  0.61985262  0.76143922  0.74987343  1
  O  O387  1  0.37131437  0.24179819  0.24387025  1
  O  O388  1  0.38099716  0.23906423  0.73984355  1
  O  O389  1  0.37323831  0.72983289  0.25418171  1
  O  O390  1  0.38280158  0.74062665  0.75043426  1
  O  O391  1  0.88256357  0.24548503  0.24260306  1
  O  O392  1  0.88132377  0.24245883  0.74572731  1
  O  O393  1  0.87301566  0.74617370  0.24270442  1
  O  O394  1  0.87633257  0.74070248  0.74426411  1
  O  O395  1  0.36795894  0.48590584  0.48807852  1
  O  O396  1  0.36450939  0.50120059  0.98528806  1
  O  O397  1  0.37796235  0.99101159  0.49264677  1
  O  O398  1  0.37691008  0.99728607  0.98808143  1
  O  O399  1  0.88762463  0.48995667  0.49170629  1
  O  O400  1  0.88791083  0.48855791  0.98819852  1
  O  O401  1  0.88396981  0.99713966  0.49416425  1
  O  O402  1  0.88191426  0.99792894  0.99613969  1
  O  O403  1  0.12025329  0.00110488  0.01405530  1
  O  O404  1  0.11204588  0.00775546  0.49669196  1
  O  O405  1  0.11070801  0.50023722  0.00802081  1
  O  O406  1  0.11226234  0.49508165  0.50124657  1
  O  O407  1  0.63045755  0.00212600  0.01381218  1
  O  O408  1  0.62228753  0.01154235  0.50047845  1
  O  O409  1  0.67131647  0.53234705  -0.03363924  1
  O  O410  1  0.63136857  0.49005613  0.51652148  1
  O  O411  1  0.36344573  0.37064533  0.12979327  1
  O  O412  1  0.37140810  0.36672089  0.61876124  1
  O  O413  1  0.38076432  0.87551148  0.12899112  1
  O  O414  1  0.36209683  0.87705112  0.63022070  1
  O  O415  1  0.88776051  0.36350920  0.11008475  1
  O  O416  1  0.87512491  0.36505349  0.61531933  1
  O  O417  1  0.87354225  0.87600133  0.12166135  1
  O  O418  1  0.86927548  0.86670981  0.62251046  1
  O  O419  1  0.13070226  0.12794373  0.37837756  1
  O  O420  1  0.13481830  0.13293027  0.88053067  1
  O  O421  1  0.13169252  0.63321924  0.36651601  1
  O  O422  1  0.13605826  0.63239139  0.87536152  1
  O  O423  1  0.63186582  0.12769903  0.37893640  1
  O  O424  1  0.63596766  0.12010000  0.86764876  1
  O  O425  1  0.64215754  0.63314629  0.37407527  1
  O  O426  1  0.64628910  0.63356438  0.84794521  1
