# generated using pymatgen
data_V85Zn86O256
_symmetry_space_group_name_H-M   'P 1'
_cell_length_a   16.92314411
_cell_length_b   16.91816981
_cell_length_c   16.92678554
_cell_angle_alpha   90.02307836
_cell_angle_beta   90.05572333
_cell_angle_gamma   90.01843337
_symmetry_Int_Tables_number   1
_chemical_formula_structural   V85Zn86O256
_chemical_formula_sum   'V85 Zn86 O256'
_cell_volume   4846.28176984
_cell_formula_units_Z   1
loop_
 _symmetry_equiv_pos_site_id
 _symmetry_equiv_pos_as_xyz
  1  'x, y, z'
loop_
 _atom_site_type_symbol
 _atom_site_label
 _atom_site_symmetry_multiplicity
 _atom_site_fract_x
 _atom_site_fract_y
 _atom_site_fract_z
 _atom_site_occupancy
  V  V0  1  0.12558917  0.00022415  0.61375634  1
  V  V1  1  0.37806320  0.87677117  0.50192690  1
  V  V2  1  0.25275768  0.49726431  0.24823723  1
  V  V3  1  0.25771526  0.01098659  0.24851202  1
  V  V4  1  0.50228277  0.49447900  -0.00381312  1
  V  V5  1  0.87350550  0.63086556  0.75181775  1
  V  V6  1  0.37645499  0.50068276  0.37133589  1
  V  V7  1  0.62992389  0.87975471  0.75148169  1
  V  V8  1  0.87641922  0.62229347  0.25893086  1
  V  V9  1  0.12540172  0.62674955  0.49982299  1
  V  V10  1  0.49786058  0.24030728  0.25068598  1
  V  V11  1  0.12921114  0.24422222  0.38738259  1
  V  V12  1  0.86695436  0.25127667  0.12678954  1
  V  V13  1  0.49420906  0.00489422  -0.00648251  1
  V  V14  1  0.75163922  0.87697900  0.12491049  1
  V  V15  1  0.11980713  0.75292867  0.37355000  1
  V  V16  1  0.87432987  0.24484803  0.63113443  1
  V  V17  1  0.62816077  0.75198865  0.87504510  1
  V  V18  1  0.25782126  0.86722010  0.12796479  1
  V  V19  1  0.12444555  0.49911859  0.62284704  1
  V  V20  1  -0.00303361  0.38071307  0.37458541  1
  V  V21  1  0.00160300  0.75273848  0.75105749  1
  V  V22  1  0.37682997  0.36850632  -0.00732677  1
  V  V23  1  0.88020821  0.74867809  0.13249817  1
  V  V24  1  0.74411284  0.63849980  0.37344111  1
  V  V25  1  0.62391321  0.00079506  0.12784984  1
  V  V26  1  0.06819225  0.06691326  -0.04901378  1
  V  V27  1  0.25681063  0.87196908  0.63031773  1
  V  V28  1  0.62526991  0.62628676  0.00390464  1
  V  V29  1  0.61704746  0.37765185  0.75575722  1
  V  V30  1  -0.00231825  0.24345241  0.75152240  1
  V  V31  1  0.00175317  0.62486639  0.13145553  1
  V  V32  1  0.87368596  0.38301550  0.49817445  1
  V  V33  1  0.12426156  0.74942193  0.87910615  1
  V  V34  1  0.38120703  0.86335305  -0.00137937  1
  V  V35  1  0.62697452  0.64187180  0.49634665  1
  V  V36  1  0.25506423  0.75290057  0.50336963  1
  V  V37  1  0.37843137  0.49438087  0.87342434  1
  V  V38  1  -0.00047871  0.62779469  0.62330044  1
  V  V39  1  0.88126690  0.00715435  0.37133305  1
  V  V40  1  0.75457785  0.11611667  0.86734849  1
  V  V41  1  0.75358365  0.12515471  0.36679576  1
  V  V42  1  0.12780386  0.24942129  0.87864741  1
  V  V43  1  0.37865030  0.00899775  0.37188654  1
  V  V44  1  -0.00012957  0.49972963  -0.00096222  1
  V  V45  1  0.12428397  0.37178561  0.74871058  1
  V  V46  1  0.75356329  0.75090988  -0.00000635  1
  V  V47  1  0.25433191  0.00513895  0.76307674  1
  V  V48  1  -0.00407914  0.24558959  0.25021044  1
  V  V49  1  0.62011150  0.00970125  0.62744359  1
  V  V50  1  0.38378116  0.11819788  0.75528072  1
  V  V51  1  0.75047027  0.48968400  0.25538176  1
  V  V52  1  0.37067078  0.36823799  0.50061602  1
  V  V53  1  0.50385138  0.37741207  0.36399019  1
  V  V54  1  0.49801812  0.75119406  0.74425553  1
  V  V55  1  0.12451546  0.87324587  0.75410129  1
  V  V56  1  0.75033073  0.50194733  0.75005902  1
  V  V57  1  0.12519182  0.37216926  0.24866285  1
  V  V58  1  0.86455524  0.37821102  0.00378778  1
  V  V59  1  0.24995826  0.37034779  0.12158104  1
  V  V60  1  0.37550463  0.62780188  0.74193765  1
  V  V61  1  0.62702806  0.25399214  0.36795886  1
  V  V62  1  0.25033882  0.62712813  0.37486150  1
  V  V63  1  0.62336736  0.50378724  0.62369078  1
  V  V64  1  -0.00772158  0.11960186  0.12889053  1
  V  V65  1  0.50805078  0.87084154  0.37271064  1
  V  V66  1  0.62927459  0.48864317  0.12994660  1
  V  V67  1  0.49825604  0.24982328  0.73916969  1
  V  V68  1  0.00625971  0.88189498  0.38231983  1
  V  V69  1  0.50331888  0.50146881  0.49705729  1
  V  V70  1  0.37457107  0.63810305  0.24279940  1
  V  V71  1  0.37393287  0.24102422  0.12900755  1
  V  V72  1  -0.00027070  0.11942529  0.61191061  1
  V  V73  1  0.24631230  0.23380682  -0.00305116  1
  V  V74  1  0.25121251  0.62217503  0.87697562  1
  V  V75  1  0.86889418  0.75346140  0.61816276  1
  V  V76  1  0.62062643  0.24975670  0.87679587  1
  V  V77  1  0.74917797  0.24778028  0.50010896  1
  V  V78  1  0.12286148  0.00456702  0.12632736  1
  V  V79  1  0.89350911  0.87731612  -0.00201161  1
  V  V80  1  0.25024171  0.49573112  0.74884226  1
  V  V81  1  0.74903723  0.88227450  0.62068798  1
  V  V82  1  0.74901057  0.37542282  0.62558833  1
  V  V83  1  0.12266584  0.87439721  0.25138175  1
  V  V84  1  0.87289531  0.87927658  0.49652643  1
  Zn  Zn85  1  0.36891607  0.23385692  0.61651381  1
  Zn  Zn86  1  0.75123779  0.62665107  0.87574707  1
  Zn  Zn87  1  0.61853216  0.12937520  0.50287475  1
  Zn  Zn88  1  -0.00350403  0.37525682  0.87430177  1
  Zn  Zn89  1  0.49841272  0.00893186  0.50309447  1
  Zn  Zn90  1  0.12530528  0.49799430  0.12330117  1
  Zn  Zn91  1  0.25529071  0.74242626  0.00684530  1
  Zn  Zn92  1  -0.00540672  0.50484210  0.49491228  1
  Zn  Zn93  1  0.49710239  0.87856933  0.87216691  1
  Zn  Zn94  1  0.74605876  0.25053722  0.00138628  1
  Zn  Zn95  1  0.62823674  0.12494527  0.00107431  1
  Zn  Zn96  1  0.24533506  0.36346295  0.61720521  1
  Zn  Zn97  1  0.49628265  0.63110364  0.61864214  1
  Zn  Zn98  1  -0.11161743  1.00804356  0.87248489  1
  Zn  Zn99  1  0.51136254  0.75077903  0.24554606  1
  Zn  Zn100  1  0.49815430  0.12144765  0.12806623  1
  Zn  Zn101  1  0.87537095  0.49957737  0.87421150  1
  Zn  Zn102  1  0.49488475  0.63099612  0.12073881  1
  Zn  Zn103  1  0.63525577  0.86896812  0.25690584  1
  Zn  Zn104  1  0.25097277  0.13320116  0.39980853  1
  Zn  Zn105  1  0.75694555  0.00541916  0.24514583  1
  Zn  Zn106  1  0.12719089  0.62237239  0.00375612  1
  Zn  Zn107  1  0.18229091  0.18649343  0.18603677  1
  Zn  Zn108  1  0.19004883  0.18448894  0.68109017  1
  Zn  Zn109  1  0.18570251  0.68751321  0.19027717  1
  Zn  Zn110  1  0.19057089  0.68763060  0.68788564  1
  Zn  Zn111  1  0.68427320  0.18715673  0.18842862  1
  Zn  Zn112  1  0.69046468  0.18896971  0.69392837  1
  Zn  Zn113  1  0.68652218  0.68903832  0.18785207  1
  Zn  Zn114  1  0.68754708  0.69203569  0.68390806  1
  Zn  Zn115  1  0.31301300  0.30934431  0.31443445  1
  Zn  Zn116  1  0.31114107  0.30536186  0.80882552  1
  Zn  Zn117  1  0.30994811  0.81966921  0.31788389  1
  Zn  Zn118  1  0.31377570  0.81063437  0.81805934  1
  Zn  Zn119  1  0.81541957  0.31228810  0.31257453  1
  Zn  Zn120  1  0.80879080  0.31253672  0.81636015  1
  Zn  Zn121  1  0.81650686  0.81383449  0.31029917  1
  Zn  Zn122  1  0.82951393  0.84605122  0.80102657  1
  Zn  Zn123  1  0.18530591  0.43769676  0.43420479  1
  Zn  Zn124  1  0.18665142  0.43308376  0.93766577  1
  Zn  Zn125  1  0.20199069  0.96721805  0.45259932  1
  Zn  Zn126  1  0.19486144  0.92750634  0.93851414  1
  Zn  Zn127  1  0.68769772  0.43999931  0.43323887  1
  Zn  Zn128  1  0.68775726  0.43850618  0.93504164  1
  Zn  Zn129  1  0.69054106  0.94187771  0.44216796  1
  Zn  Zn130  1  0.68689826  0.93804228  0.94278600  1
  Zn  Zn131  1  0.31464309  0.05739000  0.06195657  1
  Zn  Zn132  1  0.31315894  0.06151178  0.56774411  1
  Zn  Zn133  1  0.31343343  0.55683319  0.06251956  1
  Zn  Zn134  1  0.31202850  0.55794703  0.56090323  1
  Zn  Zn135  1  0.81367593  0.06139184  0.05145645  1
  Zn  Zn136  1  0.81275645  0.06129736  0.56041743  1
  Zn  Zn137  1  0.81112444  0.56264044  0.06754969  1
  Zn  Zn138  1  0.80849560  0.56700632  0.56091415  1
  Zn  Zn139  1  0.43847199  0.43670339  0.18139149  1
  Zn  Zn140  1  0.43888840  0.43786809  0.68384563  1
  Zn  Zn141  1  0.43884859  0.93479423  0.18626465  1
  Zn  Zn142  1  0.43896782  0.93863305  0.68928370  1
  Zn  Zn143  1  0.93422683  0.43830236  0.18694842  1
  Zn  Zn144  1  0.93799654  0.43672236  0.68649187  1
  Zn  Zn145  1  0.93980741  0.93570245  0.19160226  1
  Zn  Zn146  1  0.93738108  0.94158963  0.69136117  1
  Zn  Zn147  1  0.06375195  0.06288458  0.31197759  1
  Zn  Zn148  1  0.06614635  0.06604500  0.78800673  1
  Zn  Zn149  1  0.06450073  0.56071177  0.31140956  1
  Zn  Zn150  1  0.06170124  0.56266237  0.81269755  1
  Zn  Zn151  1  0.56785710  0.06044213  0.31546814  1
  Zn  Zn152  1  0.56666838  0.06463579  0.81297977  1
  Zn  Zn153  1  0.56509262  0.56777242  0.30964536  1
  Zn  Zn154  1  0.56138978  0.56557237  0.81540206  1
  Zn  Zn155  1  0.44184297  0.18561466  0.43648661  1
  Zn  Zn156  1  0.43796517  0.18568087  0.92997393  1
  Zn  Zn157  1  0.43685600  0.68953281  0.43405594  1
  Zn  Zn158  1  0.44160591  0.68581772  0.93256721  1
  Zn  Zn159  1  0.93751796  0.19270580  0.43858923  1
  Zn  Zn160  1  0.92993995  0.19344838  0.93637375  1
  Zn  Zn161  1  0.93619480  0.69146985  0.43618370  1
  Zn  Zn162  1  0.93923885  0.69062743  0.93974189  1
  Zn  Zn163  1  0.05758927  0.31091159  0.06176436  1
  Zn  Zn164  1  0.05825872  0.31242111  0.56286386  1
  Zn  Zn165  1  0.06843828  0.80770209  0.06784962  1
  Zn  Zn166  1  0.06439244  0.81738847  0.56306117  1
  Zn  Zn167  1  0.55979682  0.31146022  0.06273403  1
  Zn  Zn168  1  0.56109643  0.31446112  0.56002285  1
  Zn  Zn169  1  0.56162774  0.81145957  0.06994903  1
  Zn  Zn170  1  0.56009698  0.81901664  0.56442549  1
  O  O171  1  0.11515570  0.11258101  0.12610905  1
  O  O172  1  0.11109104  0.11381981  0.63143552  1
  O  O173  1  0.11693232  0.62045298  0.12683760  1
  O  O174  1  0.12161304  0.61962059  0.62003448  1
  O  O175  1  0.62170318  0.11614759  0.12260972  1
  O  O176  1  0.63423655  0.11191649  0.62853113  1
  O  O177  1  0.62675116  0.61705464  0.11223803  1
  O  O178  1  0.62589550  0.61992979  0.61452886  1
  O  O179  1  0.38178843  0.38105585  0.38229520  1
  O  O180  1  0.36835257  0.37661709  0.88542176  1
  O  O181  1  0.38188662  0.88452035  0.38336454  1
  O  O182  1  0.37713430  0.87383610  0.89282964  1
  O  O183  1  0.88470928  0.36874925  0.38548928  1
  O  O184  1  0.87715768  0.37689609  0.88538446  1
  O  O185  1  0.88456090  0.87950082  0.37962127  1
  O  O186  1  0.88196144  0.84427532  0.90274573  1
  O  O187  1  0.26026956  -0.00724793  0.35641679  1
  O  O188  1  0.24642201  -0.00463594  0.86115680  1
  O  O189  1  0.25399611  0.50704944  0.36784225  1
  O  O190  1  0.25552253  0.50395893  0.86956153  1
  O  O191  1  0.75816736  0.01023380  0.37460855  1
  O  O192  1  0.74515125  0.01402350  0.88003352  1
  O  O193  1  0.74342726  0.50965436  0.35987408  1
  O  O194  1  0.75188352  0.50421340  0.86121325  1
  O  O195  1  0.24858566  0.48826287  0.13038989  1
  O  O196  1  0.23740918  0.49790213  0.62887854  1
  O  O197  1  0.24564731  0.99310495  0.13354043  1
  O  O198  1  0.24250947  0.98553830  0.63552720  1
  O  O199  1  0.73732529  0.50374452  0.13659087  1
  O  O200  1  0.74411920  0.49794171  0.63383339  1
  O  O201  1  0.74582177  0.99439444  0.12234100  1
  O  O202  1  0.74365163  0.98919284  0.62339536  1
  O  O203  1  0.00623363  0.37060415  0.25546044  1
  O  O204  1  0.00608111  0.36317001  0.74810552  1
  O  O205  1  0.01542737  0.87899524  0.26089891  1
  O  O206  1  0.01756076  0.86739077  0.74413414  1
  O  O207  1  0.49531657  0.37016244  0.26029424  1
  O  O208  1  0.50814177  0.36912871  0.74676377  1
  O  O209  1  0.49937757  0.87556424  0.26460179  1
  O  O210  1  0.50839147  0.86843799  0.75246039  1
  O  O211  1  0.50241860  0.13694824  0.25261630  1
  O  O212  1  0.49112963  0.13020440  0.75146289  1
  O  O213  1  0.48369075  0.62637738  0.25248387  1
  O  O214  1  0.49211414  0.63144656  0.74873500  1
  O  O215  1  1.00282135  0.13430947  0.24166330  1
  O  O216  1  0.99450764  0.13874636  0.73947995  1
  O  O217  1  0.99002621  0.61545267  0.24431004  1
  O  O218  1  0.99209245  0.63022655  0.74261071  1
  O  O219  1  0.36936628  0.25315663  0.00225265  1
  O  O220  1  0.37989242  0.26511068  0.49697879  1
  O  O221  1  0.37700161  0.75912299  -0.00176746  1
  O  O222  1  0.36257219  0.75764122  0.49417379  1
  O  O223  1  0.87427700  0.26133775  0.00954574  1
  O  O224  1  0.86835703  0.25984712  0.51033105  1
  O  O225  1  0.87272603  0.74858074  0.01696949  1
  O  O226  1  0.87913112  0.76093323  0.50908277  1
  O  O227  1  0.12175457  0.25551054  0.48564904  1
  O  O228  1  0.13241475  0.25522184  0.99143699  1
  O  O229  1  0.13594763  0.74714737  0.49597025  1
  O  O230  1  0.13037896  0.74455561  0.99297264  1
  O  O231  1  0.63397967  0.25274931  0.49192033  1
  O  O232  1  0.62391394  0.25054300  0.99123496  1
  O  O233  1  0.62050656  0.74061333  0.50534606  1
  O  O234  1  0.62973462  0.74389660  0.99487607  1
  O  O235  1  0.49267506  0.24880823  0.13398799  1
  O  O236  1  0.49629803  0.25459727  0.63539230  1
  O  O237  1  0.49954597  0.74400478  0.13104451  1
  O  O238  1  0.50358389  0.74911158  0.63913881  1
  O  O239  1  0.99414071  0.24137372  0.13218535  1
  O  O240  1  0.99366990  0.24125016  0.62959578  1
  O  O241  1  0.99592367  0.73442835  0.12412967  1
  O  O242  1  0.99330065  0.74581948  0.62992637  1
  O  O243  1  0.00730970  0.25801569  0.36802854  1
  O  O244  1  0.00735466  0.24994882  0.86788692  1
  O  O245  1  0.01455416  0.75708526  0.37886982  1
  O  O246  1  0.01684075  0.73799843  0.86776099  1
  O  O247  1  0.50621246  0.25774141  0.36769093  1
  O  O248  1  0.51345498  0.24584421  0.86236364  1
  O  O249  1  0.49466617  0.76792410  0.37274287  1
  O  O250  1  0.51223269  0.75154714  0.86624368  1
  O  O251  1  0.23061280  0.07514761  0.49421386  1
  O  O252  1  0.25137278  0.13435669  1.00394804  1
  O  O253  1  0.24702925  0.63317727  0.49610298  1
  O  O254  1  0.25118171  0.62267366  0.99133286  1
  O  O255  1  0.74953424  0.13866724  0.49462595  1
  O  O256  1  0.74714115  0.13121289  0.98964640  1
  O  O257  1  0.74219898  0.61946745  0.48324051  1
  O  O258  1  0.74454221  0.63168037  0.99859199  1
  O  O259  1  0.25672853  0.36642627  0.00576833  1
  O  O260  1  0.26757107  0.38530761  0.49649987  1
  O  O261  1  0.26470567  0.87214662  0.00922921  1
  O  O262  1  0.25790614  0.87119272  0.50820227  1
  O  O263  1  0.76049650  0.37518941  -0.00124798  1
  O  O264  1  0.75434609  0.36759077  0.50326106  1
  O  O265  1  0.75768731  0.86890617  0.01081808  1
  O  O266  1  0.75879598  0.87417217  0.50704979  1
  O  O267  1  0.13236305  0.48639506  0.24999117  1
  O  O268  1  0.12827807  0.49438250  0.74232659  1
  O  O269  1  0.13563299  0.99456427  0.24402793  1
  O  O270  1  0.13709867  0.98964403  0.74359120  1
  O  O271  1  0.63294430  0.50546960  0.23747196  1
  O  O272  1  0.62924403  0.49650034  0.74672168  1
  O  O273  1  0.62988402  0.99517627  0.23913589  1
  O  O274  1  0.62194820  0.99173574  0.74046020  1
  O  O275  1  0.36520819  -0.00188876  0.25346800  1
  O  O276  1  0.36637070  0.00497929  0.75151164  1
  O  O277  1  0.37011018  0.50287710  0.25397841  1
  O  O278  1  0.37152749  0.50350184  0.75501231  1
  O  O279  1  0.87513210  -0.00307317  0.26587191  1
  O  O280  1  0.87080965  -0.04729432  0.77747804  1
  O  O281  1  0.85915712  0.50792248  0.24379012  1
  O  O282  1  0.86740877  0.51026335  0.74712328  1
  O  O283  1  0.11974936  0.36582239  0.36761021  1
  O  O284  1  0.12047144  0.36575121  0.86712634  1
  O  O285  1  0.12175608  0.87231785  0.37087925  1
  O  O286  1  0.13240270  0.86230833  0.86695202  1
  O  O287  1  0.61544550  0.36667509  0.37972616  1
  O  O288  1  0.62973268  0.36974814  0.86206860  1
  O  O289  1  0.61113242  0.88551591  0.37755250  1
  O  O290  1  0.62465392  0.86920643  0.86850679  1
  O  O291  1  0.37616576  0.13739424  0.12205376  1
  O  O292  1  0.37100142  0.12051531  0.64362256  1
  O  O293  1  0.37217902  0.61996208  0.13981989  1
  O  O294  1  0.37426468  0.61946555  0.63796196  1
  O  O295  1  0.88661660  0.13052312  0.11652652  1
  O  O296  1  0.88507313  0.13197247  0.61992537  1
  O  O297  1  0.88036102  0.63020711  0.13627838  1
  O  O298  1  0.87647281  0.63463788  0.63116900  1
  O  O299  1  0.25453955  0.25215754  0.11952191  1
  O  O300  1  0.25517369  0.25143758  0.62334916  1
  O  O301  1  0.24394662  0.76304656  0.12483367  1
  O  O302  1  0.24771854  0.76188224  0.61868220  1
  O  O303  1  0.76349489  0.24458272  0.12721075  1
  O  O304  1  0.75572167  0.25332631  0.61943928  1
  O  O305  1  0.75962096  0.75640710  0.11996299  1
  O  O306  1  0.76210868  0.76107834  0.62730367  1
  O  O307  1  0.23578631  0.24755949  0.37336651  1
  O  O308  1  0.23607748  0.25049129  0.88076056  1
  O  O309  1  0.24094110  0.74816170  0.38390046  1
  O  O310  1  0.24258021  0.73857581  0.87734560  1
  O  O311  1  0.74498586  0.24728483  0.38043172  1
  O  O312  1  0.73719197  0.24420925  0.87509735  1
  O  O313  1  0.75511108  0.73733993  0.37264115  1
  O  O314  1  0.73715240  0.75015323  0.88029696  1
  O  O315  1  0.00313652  0.12588798  0.00538194  1
  O  O316  1  0.00112284  0.12962717  0.51333068  1
  O  O317  1  -0.00075411  0.61334823  0.00820344  1
  O  O318  1  0.00556513  0.62497561  0.50465437  1
  O  O319  1  0.49934493  0.11369045  0.00124074  1
  O  O320  1  0.50522908  0.12299171  0.50046183  1
  O  O321  1  0.50734948  0.61590967  -0.00023300  1
  O  O322  1  0.50671744  0.61972354  0.49660850  1
  O  O323  1  0.49244233  0.38367835  0.49022108  1
  O  O324  1  0.48962078  0.38227163  1.00305874  1
  O  O325  1  0.49293715  0.87855854  0.49122984  1
  O  O326  1  0.49189325  0.88142977  1.00044624  1
  O  O327  1  0.99064934  0.37679241  0.49295660  1
  O  O328  1  0.99151804  0.38743201  1.00086628  1
  O  O329  1  0.99201215  0.86921772  0.48809668  1
  O  O330  1  0.99219586  0.87179016  1.01077255  1
  O  O331  1  0.49913092  0.49496039  0.37780638  1
  O  O332  1  0.49518289  0.50209509  0.88749875  1
  O  O333  1  0.49221473  0.99291165  0.37426593  1
  O  O334  1  0.50698532  0.99764887  0.89034123  1
  O  O335  1  1.00559871  0.48554454  0.37654795  1
  O  O336  1  0.99620518  0.49942892  0.88346249  1
  O  O337  1  0.99602114  0.99397219  0.37470885  1
  O  O338  1  1.01305548  1.01353414  0.88328428  1
  O  O339  1  0.00827033  0.00715172  0.13109048  1
  O  O340  1  0.00453663  0.01319940  0.63338485  1
  O  O341  1  0.00020447  0.50874544  0.11915530  1
  O  O342  1  0.01034559  0.50728340  0.62358540  1
  O  O343  1  0.50686708  0.00069180  0.11815058  1
  O  O344  1  0.51680779  -0.00540822  0.62436954  1
  O  O345  1  0.51075935  0.50483238  0.11635419  1
  O  O346  1  0.50582054  0.50521372  0.61408304  1
  O  O347  1  0.24324706  0.37506234  0.24388416  1
  O  O348  1  0.24255719  0.38029367  0.74730018  1
  O  O349  1  0.24351472  0.88285900  0.24364311  1
  O  O350  1  0.24928310  0.87883790  0.74633511  1
  O  O351  1  0.75180297  0.39017937  0.25676581  1
  O  O352  1  0.74337854  0.38403414  0.74420578  1
  O  O353  1  0.75613059  0.87944383  0.23620168  1
  O  O354  1  0.73409923  0.86589505  0.73905691  1
  O  O355  1  0.24571652  0.11119384  0.24920624  1
  O  O356  1  0.25294993  0.10822393  0.74923505  1
  O  O357  1  0.25807649  0.61942922  0.25433877  1
  O  O358  1  0.25697803  0.61788471  0.75599749  1
  O  O359  1  0.75103924  0.12692762  0.26288109  1
  O  O360  1  0.75009800  0.12720930  0.76726162  1
  O  O361  1  0.75572297  0.61972183  0.25956054  1
  O  O362  1  0.75689231  0.62027840  0.74824611  1
  O  O363  1  0.36806708  0.11340113  0.37930143  1
  O  O364  1  0.37046092  0.12858520  0.85591079  1
  O  O365  1  0.36846840  0.61977336  0.36645873  1
  O  O366  1  0.36670814  0.61770657  0.86693149  1
  O  O367  1  0.86881095  0.11872523  0.38372572  1
  O  O368  1  0.86213322  0.12330361  0.87850407  1
  O  O369  1  0.86833014  0.62738807  0.36562309  1
  O  O370  1  0.87380630  0.62830917  0.86129156  1
  O  O371  1  0.12938636  0.37272851  0.13323230  1
  O  O372  1  0.12389284  0.38279587  0.62834296  1
  O  O373  1  0.13101947  0.88450805  0.13279601  1
  O  O374  1  0.13500258  0.87565262  0.63704589  1
  O  O375  1  0.62294379  0.39012456  0.12185247  1
  O  O376  1  0.63036608  0.38252295  0.63222129  1
  O  O377  1  0.63702892  0.88328680  0.12384242  1
  O  O378  1  0.63211772  0.88274260  0.63042780  1
  O  O379  1  0.11568491  0.25874226  0.25330052  1
  O  O380  1  0.11780431  0.25051067  0.75722553  1
  O  O381  1  0.13286009  0.76118927  0.26166464  1
  O  O382  1  0.12384566  0.75471694  0.75654944  1
  O  O383  1  0.61791034  0.25103260  0.26062006  1
  O  O384  1  0.61780477  0.25946363  0.75219730  1
  O  O385  1  0.62664394  0.75554079  0.25226006  1
  O  O386  1  0.61887758  0.75415428  0.75720297  1
  O  O387  1  0.38356019  0.25539071  0.24080618  1
  O  O388  1  0.38328404  0.24001909  0.74758879  1
  O  O389  1  0.36869992  0.73819348  0.25593233  1
  O  O390  1  0.38422236  0.73996620  0.75804611  1
  O  O391  1  0.88804565  0.25548413  0.24339499  1
  O  O392  1  0.88005525  0.25879150  0.73763741  1
  O  O393  1  0.87438481  0.74099235  0.24006852  1
  O  O394  1  0.88113908  0.74850947  0.74171218  1
  O  O395  1  0.38701669  0.49812340  0.49163164  1
  O  O396  1  0.38318737  0.49038669  0.99544463  1
  O  O397  1  0.37782146  0.99049850  0.49096654  1
  O  O398  1  0.38969859  0.99084568  1.00453679  1
  O  O399  1  0.87417332  0.48757076  0.50755420  1
  O  O400  1  0.87941855  0.49552682  1.00044603  1
  O  O401  1  0.87279889  0.98772204  0.48957535  1
  O  O402  1  0.87673695  0.98170388  0.99045003  1
  O  O403  1  0.12845093  -0.00005312  0.00507838  1
  O  O404  1  0.10858626  -0.02746988  0.51927656  1
  O  O405  1  0.11537987  0.49994806  0.00167374  1
  O  O406  1  0.12373326  0.50722845  0.50651981  1
  O  O407  1  0.61202920  -0.00156359  0.01083371  1
  O  O408  1  0.62609410  0.00327452  0.51609952  1
  O  O409  1  0.62130794  0.50470421  0.00590402  1
  O  O410  1  0.61485010  0.50458984  0.50153908  1
  O  O411  1  0.36995731  0.36435032  0.11396406  1
  O  O412  1  0.37509081  0.37998573  0.60649984  1
  O  O413  1  0.36783476  0.87805555  0.11442391  1
  O  O414  1  0.37036719  0.88019105  0.61407919  1
  O  O415  1  0.88026811  0.36461603  0.11677272  1
  O  O416  1  0.86842803  0.36811218  0.61914080  1
  O  O417  1  0.87387433  0.86757832  0.11958122  1
  O  O418  1  0.87004730  0.87273040  0.61598438  1
  O  O419  1  0.12369400  0.14172153  0.37100567  1
  O  O420  1  0.11862791  0.12707784  0.88308117  1
  O  O421  1  0.13032267  0.63285317  0.37862661  1
  O  O422  1  0.13858243  0.62709402  0.87405812  1
  O  O423  1  0.63576273  0.13422413  0.37806268  1
  O  O424  1  0.63285246  0.13341952  0.87735481  1
  O  O425  1  0.63579256  0.62660218  0.38031841  1
  O  O426  1  0.62711535  0.63134603  0.88668580  1
