# generated using pymatgen
data_V85Zn86O256
_symmetry_space_group_name_H-M   'P 1'
_cell_length_a   16.94411651
_cell_length_b   16.94801872
_cell_length_c   16.94120824
_cell_angle_alpha   89.99965022
_cell_angle_beta   90.01846589
_cell_angle_gamma   89.91685356
_symmetry_Int_Tables_number   1
_chemical_formula_structural   V85Zn86O256
_chemical_formula_sum   'V85 Zn86 O256'
_cell_volume   4864.98790643
_cell_formula_units_Z   1
loop_
 _symmetry_equiv_pos_site_id
 _symmetry_equiv_pos_as_xyz
  1  'x, y, z'
loop_
 _atom_site_type_symbol
 _atom_site_label
 _atom_site_symmetry_multiplicity
 _atom_site_fract_x
 _atom_site_fract_y
 _atom_site_fract_z
 _atom_site_occupancy
  V  V0  1  0.37729531  0.87034961  0.49717693  1
  V  V1  1  0.38008043  0.12185545  0.25173386  1
  V  V2  1  0.74974676  0.01058466  0.76358138  1
  V  V3  1  0.00011420  0.37478854  0.37502129  1
  V  V4  1  0.50746461  0.87048854  0.87809401  1
  V  V5  1  0.87344883  0.88081009  0.50225656  1
  V  V6  1  0.37406135  0.50487052  0.37452540  1
  V  V7  1  0.87492047  0.75089969  0.11893000  1
  V  V8  1  0.24142573  0.12159235  0.87058497  1
  V  V9  1  0.87944280  0.37110016  -0.00232030  1
  V  V10  1  -0.00101410  0.74891591  0.75956573  1
  V  V11  1  0.62664224  0.24333700  0.87676274  1
  V  V12  1  0.61999991  0.12134840  0.51748067  1
  V  V13  1  0.49374675  0.50091214  -0.00271076  1
  V  V14  1  0.50065517  0.37193163  0.87685027  1
  V  V15  1  0.13794876  0.48930507  0.63646593  1
  V  V16  1  0.74782844  0.49956664  0.75303474  1
  V  V17  1  0.61312158  0.50322605  0.62725008  1
  V  V18  1  0.25224956  -0.00380380  0.25578789  1
  V  V19  1  0.12721844  0.27066560  0.86838423  1
  V  V20  1  0.75364900  0.37161515  0.12531021  1
  V  V21  1  0.00409502  0.12792483  0.61887688  1
  V  V22  1  0.13247835  0.24420452  0.38144562  1
  V  V23  1  0.74745018  0.12147388  0.38212324  1
  V  V24  1  0.62349412  0.24693392  0.37802163  1
  V  V25  1  0.00139217  0.75117074  0.25257749  1
  V  V26  1  0.37783997  0.23596526  0.12220023  1
  V  V27  1  0.12271977  0.50214990  0.12327705  1
  V  V28  1  0.50151016  0.24284288  0.73938834  1
  V  V29  1  0.05335263  -0.04367826  0.55924466  1
  V  V30  1  0.00728316  0.87570246  0.37494775  1
  V  V31  1  0.87296594  0.62698927  0.24761530  1
  V  V32  1  0.74904920  -0.00162329  0.25287731  1
  V  V33  1  0.00984600  0.50647838  0.50035177  1
  V  V34  1  0.87392383  0.13386192  0.24605421  1
  V  V35  1  0.12859604  0.87167164  0.24811975  1
  V  V36  1  0.87206711  0.74800661  0.62727483  1
  V  V37  1  0.62429162  0.37484751  0.25105322  1
  V  V38  1  0.00728677  0.62300232  0.62589392  1
  V  V39  1  0.36183395  0.24723455  0.61962908  1
  V  V40  1  0.62266463  0.63489132  -0.00600581  1
  V  V41  1  0.37203050  0.76009324  0.12138087  1
  V  V42  1  0.37937470  0.11955205  0.74207130  1
  V  V43  1  0.87367658  0.37737890  0.50133694  1
  V  V44  1  0.62368884  0.50209348  0.12339931  1
  V  V45  1  0.00244667  0.89614147  0.87590635  1
  V  V46  1  0.62339039  0.37403652  0.74983834  1
  V  V47  1  0.37469927  -0.00579407  0.87416200  1
  V  V48  1  0.61662959  0.87583278  0.25273262  1
  V  V49  1  0.74734677  0.63461867  0.87212048  1
  V  V50  1  0.25049961  0.74396130  -0.00258191  1
  V  V51  1  0.61848751  0.00538796  0.12582079  1
  V  V52  1  0.48919449  -0.00074619  0.00344907  1
  V  V53  1  0.00993713  0.26451714  0.74776099  1
  V  V54  1  0.49950037  0.24664687  0.24705454  1
  V  V55  1  0.50951209  0.74747893  0.74946776  1
  V  V56  1  0.23804304  0.88942411  0.10459390  1
  V  V57  1  0.50540241  -0.00525477  0.51854451  1
  V  V58  1  0.12372730  0.37356650  0.25071619  1
  V  V59  1  0.24602911  0.24567883  -0.00050120  1
  V  V60  1  0.74831543  0.37652822  0.62736823  1
  V  V61  1  0.49944831  0.37484495  0.37829738  1
  V  V62  1  0.49641168  0.62845794  0.12684360  1
  V  V63  1  0.37550821  0.74846607  0.62241844  1
  V  V64  1  0.61774675  0.75410682  0.37502257  1
  V  V65  1  0.74972497  0.50070096  0.24881450  1
  V  V66  1  0.23817817  0.74985236  0.50018989  1
  V  V67  1  0.87391305  0.50139424  0.37569738  1
  V  V68  1  0.74906088  0.75110320  0.50092247  1
  V  V69  1  0.75431650  0.24478568  0.00520235  1
  V  V70  1  0.87883748  0.89256046  -0.00431661  1
  V  V71  1  -0.00073666  0.49746791  -0.00996239  1
  V  V72  1  0.88429118  0.00217358  0.37753171  1
  V  V73  1  0.36014003  0.36856579  0.49886917  1
  V  V74  1  0.74918723  0.87596970  0.12327602  1
  V  V75  1  0.74768402  0.62599806  0.37531803  1
  V  V76  1  0.24647346  -0.01026456  0.73492227  1
  V  V77  1  0.23274791  0.63081828  0.37578077  1
  V  V78  1  0.36948804  0.62994541  0.74789817  1
  V  V79  1  0.61848905  0.12387207  0.00069091  1
  V  V80  1  0.61692003  0.62527570  0.50448696  1
  V  V81  1  0.35862037  0.47640414  0.83923986  1
  V  V82  1  0.87698659  0.25059358  0.62894709  1
  V  V83  1  0.25333636  0.37515505  0.12618077  1
  V  V84  1  0.39061927  -0.00604329  0.37728146  1
  Zn  Zn85  1  -0.00229610  0.25137069  0.24573887  1
  Zn  Zn86  1  0.37145744  0.62879029  0.25094879  1
  Zn  Zn87  1  0.09152377  0.03995632  0.05906939  1
  Zn  Zn88  1  0.74248347  0.89085196  0.62738058  1
  Zn  Zn89  1  0.62737969  0.88304240  0.74584243  1
  Zn  Zn90  1  0.87617569  0.49295325  0.87091396  1
  Zn  Zn91  1  0.12311733  0.87665406  0.73614285  1
  Zn  Zn92  1  0.49448352  0.50081443  0.50498371  1
  Zn  Zn93  1  0.49522967  0.75394315  0.25177036  1
  Zn  Zn94  1  0.87450999  0.62230775  0.75194529  1
  Zn  Zn95  1  -0.01480347  0.14361367  0.10366459  1
  Zn  Zn96  1  0.24958716  0.50445179  0.24933364  1
  Zn  Zn97  1  0.74663714  0.75534356  -0.00592145  1
  Zn  Zn98  1  0.74755932  0.24862241  0.50439372  1
  Zn  Zn99  1  0.25716575  0.12932074  0.38252935  1
  Zn  Zn100  1  0.13255763  0.12361385  0.50627915  1
  Zn  Zn101  1  0.12087078  0.62601038  -0.00640378  1
  Zn  Zn102  1  -0.00049301  0.62439898  0.12326237  1
  Zn  Zn103  1  0.88115100  0.11609190  0.76934878  1
  Zn  Zn104  1  0.12758622  0.74908544  0.87178703  1
  Zn  Zn105  1  0.37902766  0.37291927  0.00664428  1
  Zn  Zn106  1  0.24739142  0.61995500  0.87108938  1
  Zn  Zn107  1  0.19121024  0.18766252  0.19124884  1
  Zn  Zn108  1  0.18778456  0.18308537  0.68771901  1
  Zn  Zn109  1  0.18789137  0.69066100  0.18684733  1
  Zn  Zn110  1  0.18588058  0.68860451  0.68416251  1
  Zn  Zn111  1  0.68712337  0.18489317  0.18917709  1
  Zn  Zn112  1  0.69452787  0.18448232  0.69237151  1
  Zn  Zn113  1  0.68630205  0.69010452  0.18452192  1
  Zn  Zn114  1  0.68457499  0.69111228  0.68598392  1
  Zn  Zn115  1  0.31242803  0.31308697  0.31061624  1
  Zn  Zn116  1  0.31631183  0.30692489  0.81076978  1
  Zn  Zn117  1  0.31415622  0.81062765  0.31342906  1
  Zn  Zn118  1  0.31434486  0.81337466  0.81432506  1
  Zn  Zn119  1  0.80747560  0.31218453  0.31849813  1
  Zn  Zn120  1  0.83707759  0.27256265  0.84051832  1
  Zn  Zn121  1  0.81096443  0.81412136  0.31306761  1
  Zn  Zn122  1  0.81352189  0.82077247  0.81291993  1
  Zn  Zn123  1  0.18670957  0.44244090  0.43650559  1
  Zn  Zn124  1  0.19079177  0.43742675  0.94360278  1
  Zn  Zn125  1  0.19449068  0.93386176  0.43271929  1
  Zn  Zn126  1  0.19050701  0.93174368  0.93030416  1
  Zn  Zn127  1  0.68620387  0.43907890  0.43992215  1
  Zn  Zn128  1  0.68554952  0.43837686  0.93822435  1
  Zn  Zn129  1  0.68525337  0.93720821  0.44110310  1
  Zn  Zn130  1  0.68656465  0.93971584  0.93665022  1
  Zn  Zn131  1  0.28847429  0.05227733  0.05345575  1
  Zn  Zn132  1  0.31329022  0.06333874  0.55870843  1
  Zn  Zn133  1  0.31222653  0.56517393  0.06358101  1
  Zn  Zn134  1  0.31276839  0.56708601  0.56033483  1
  Zn  Zn135  1  0.80637803  0.06475068  0.06340332  1
  Zn  Zn136  1  0.81282358  0.06386546  0.56981319  1
  Zn  Zn137  1  0.81189073  0.56187512  0.05800594  1
  Zn  Zn138  1  0.81012891  0.56403704  0.56608670  1
  Zn  Zn139  1  0.43594835  0.43767187  0.18928922  1
  Zn  Zn140  1  0.42425206  0.42782922  0.68752394  1
  Zn  Zn141  1  0.43348776  0.93626524  0.18341714  1
  Zn  Zn142  1  0.43328439  0.92771640  0.68838244  1
  Zn  Zn143  1  0.93817254  0.43561504  0.18341642  1
  Zn  Zn144  1  0.93831683  0.44003024  0.68720489  1
  Zn  Zn145  1  0.93680706  0.94070727  0.18404480  1
  Zn  Zn146  1  0.92267411  0.93661159  0.69640391  1
  Zn  Zn147  1  0.06301312  0.06090259  0.22909615  1
  Zn  Zn148  1  0.06742605  0.06846555  0.79677744  1
  Zn  Zn149  1  0.05986537  0.56085608  0.30838938  1
  Zn  Zn150  1  0.06633572  0.56203212  0.81091624  1
  Zn  Zn151  1  0.56114849  0.06230626  0.31545602  1
  Zn  Zn152  1  0.56567500  0.05945155  0.81196106  1
  Zn  Zn153  1  0.56106585  0.56334513  0.31338189  1
  Zn  Zn154  1  0.55630807  0.56382370  0.81375209  1
  Zn  Zn155  1  0.43923783  0.18281681  0.44089501  1
  Zn  Zn156  1  0.43589251  0.18154581  0.93420470  1
  Zn  Zn157  1  0.43792611  0.68628817  0.43709063  1
  Zn  Zn158  1  0.43071307  0.68526966  0.93210231  1
  Zn  Zn159  1  0.94295438  0.18952774  0.43769485  1
  Zn  Zn160  1  0.96722831  0.16514578  0.92694478  1
  Zn  Zn161  1  0.93775901  0.68864271  0.43707098  1
  Zn  Zn162  1  0.93325377  0.68158646  0.93770079  1
  Zn  Zn163  1  0.06263668  0.30794123  0.06256692  1
  Zn  Zn164  1  0.06523832  0.31714904  0.56148976  1
  Zn  Zn165  1  0.06116696  0.81359916  0.05897512  1
  Zn  Zn166  1  0.05814862  0.79279625  0.56077654  1
  Zn  Zn167  1  0.56340798  0.31183705  0.06542102  1
  Zn  Zn168  1  0.55997429  0.31189339  0.56189605  1
  Zn  Zn169  1  0.55898384  0.81681185  0.06211828  1
  Zn  Zn170  1  0.55955851  0.81382113  0.56632935  1
  O  O171  1  0.11657371  0.12096534  0.14510795  1
  O  O172  1  0.11253363  0.12613035  0.62463819  1
  O  O173  1  0.12510685  0.61049564  0.12774627  1
  O  O174  1  0.11095305  0.62064317  0.62568393  1
  O  O175  1  0.62399761  0.11151056  0.12339957  1
  O  O176  1  0.62530292  0.13447242  0.61552702  1
  O  O177  1  0.61742613  0.62110497  0.11693916  1
  O  O178  1  0.62795357  0.61647590  0.61606652  1
  O  O179  1  0.38064295  0.37906156  0.38120035  1
  O  O180  1  0.38838047  0.37282572  0.88769953  1
  O  O181  1  0.37714620  0.87816208  0.38669155  1
  O  O182  1  0.38277173  0.88969977  0.87070594  1
  O  O183  1  0.87798441  0.38095791  0.38182903  1
  O  O184  1  0.86609018  0.37325680  0.89360991  1
  O  O185  1  0.88141693  0.87989569  0.38305949  1
  O  O186  1  0.88839222  0.87230394  0.88857636  1
  O  O187  1  0.26732777  -0.00458826  0.36611017  1
  O  O188  1  0.25789414  0.00556944  0.86689901  1
  O  O189  1  0.25585408  0.51411052  0.37539199  1
  O  O190  1  0.26791381  0.49893997  0.88475062  1
  O  O191  1  0.75513647  0.00554519  0.37270617  1
  O  O192  1  0.74710422  0.00150973  0.86545580  1
  O  O193  1  0.75447741  0.50490796  0.36906094  1
  O  O194  1  0.74537405  0.50420832  0.86255800  1
  O  O195  1  0.24388408  0.49133272  0.12497854  1
  O  O196  1  0.23537058  0.50753704  0.61692654  1
  O  O197  1  0.27497410  0.98715613  0.14889098  1
  O  O198  1  0.25927602  0.99630568  0.63719300  1
  O  O199  1  0.74245737  0.49497221  0.12931309  1
  O  O200  1  0.74005191  0.49765737  0.63589292  1
  O  O201  1  0.73987063  0.99458301  0.13189037  1
  O  O202  1  0.75912609  1.00209013  0.64402529  1
  O  O203  1  0.00649638  0.37816213  0.25779585  1
  O  O204  1  0.00211498  0.36410481  0.74338403  1
  O  O205  1  0.00476339  0.86989065  0.25644236  1
  O  O206  1  -0.00322201  0.86960126  0.76436486  1
  O  O207  1  0.50354651  0.36983104  0.26055383  1
  O  O208  1  0.50348725  0.36437083  0.75858607  1
  O  O209  1  0.51333963  0.87458530  0.24445301  1
  O  O210  1  0.50111564  0.86481809  0.75840500  1
  O  O211  1  0.48880952  0.12951828  0.25280831  1
  O  O212  1  0.49185585  0.13217085  0.75731092  1
  O  O213  1  0.50245342  0.62695465  0.23535342  1
  O  O214  1  0.49177241  0.64367812  0.75917987  1
  O  O215  1  0.97673326  0.12962463  0.26656089  1
  O  O216  1  0.99715303  0.13824080  0.73841992  1
  O  O217  1  0.99194178  0.63380625  0.24807257  1
  O  O218  1  0.99580523  0.63158717  0.74383838  1
  O  O219  1  0.37081813  0.24879843  0.00766726  1
  O  O220  1  0.37935317  0.25885799  0.50401329  1
  O  O221  1  0.36509347  0.73989430  0.01057218  1
  O  O222  1  0.37547390  0.75391521  0.50477537  1
  O  O223  1  0.85633315  0.25759699  0.00934092  1
  O  O224  1  0.87663023  0.26420836  0.50702387  1
  O  O225  1  0.87561085  0.75493373  0.01119010  1
  O  O226  1  0.87239538  0.76028499  0.50566544  1
  O  O227  1  0.12060213  0.25291651  0.48413997  1
  O  O228  1  0.13587095  0.25917689  0.98343747  1
  O  O229  1  0.13884808  0.74888125  0.49655131  1
  O  O230  1  0.13412455  0.74698097  0.99980755  1
  O  O231  1  0.62149501  0.23976669  0.49384561  1
  O  O232  1  0.62412821  0.24159761  0.99619669  1
  O  O233  1  0.62736092  0.74296689  0.49285122  1
  O  O234  1  0.62538239  0.73866744  1.00543750  1
  O  O235  1  0.48978515  0.25541848  0.13450898  1
  O  O236  1  0.49329525  0.25390744  0.63700045  1
  O  O237  1  0.49114044  0.74428954  0.12376402  1
  O  O238  1  0.49112505  0.75181092  0.64116054  1
  O  O239  1  0.99692329  0.25236955  0.13242263  1
  O  O240  1  0.99717344  0.24733055  0.62745104  1
  O  O241  1  0.99198329  0.75104891  0.13489687  1
  O  O242  1  0.98897480  0.74130859  0.63374940  1
  O  O243  1  0.00785671  0.26110015  0.36994508  1
  O  O244  1  0.02153891  0.25400866  0.86563151  1
  O  O245  1  -0.00995284  0.75974328  0.36122378  1
  O  O246  1  -0.00239463  0.74746301  0.86471029  1
  O  O247  1  0.50386292  0.25555121  0.36868145  1
  O  O248  1  0.50687608  0.25531220  0.87061877  1
  O  O249  1  0.51396441  0.74472669  0.37098498  1
  O  O250  1  0.48780091  0.76095565  0.86499258  1
  O  O251  1  0.24580045  0.12150362  0.49434692  1
  O  O252  1  0.25482539  0.13946445  0.98702413  1
  O  O253  1  0.25590839  0.63699004  0.48479432  1
  O  O254  1  0.24586339  0.63297359  1.00020381  1
  O  O255  1  0.74113651  0.12400963  0.49578518  1
  O  O256  1  0.73365187  0.13451372  1.00905454  1
  O  O257  1  0.74139019  0.63031295  0.49460961  1
  O  O258  1  0.73945521  0.62539801  0.99108152  1
  O  O259  1  0.25422340  0.36505159  0.01202927  1
  O  O260  1  0.26227469  0.37392340  0.49098893  1
  O  O261  1  0.25409965  0.85856783  0.00313965  1
  O  O262  1  0.25944607  0.85733847  0.49137991  1
  O  O263  1  0.74967168  0.37056993  0.00977780  1
  O  O264  1  0.75696673  0.37494649  0.50686495  1
  O  O265  1  0.76079396  0.87436073  0.00256829  1
  O  O266  1  0.75783548  0.86815221  0.50240507  1
  O  O267  1  0.12615934  0.48964502  0.24319872  1
  O  O268  1  0.12579704  0.50067816  0.73582395  1
  O  O269  1  0.14019964  0.98337764  0.26143049  1
  O  O270  1  0.14168977  0.99608139  0.74711419  1
  O  O271  1  0.63062360  0.49479216  0.24608210  1
  O  O272  1  0.62534691  0.49644028  0.74440269  1
  O  O273  1  0.62764809  0.99487657  0.24557425  1
  O  O274  1  0.63917068  1.00155772  0.75111308  1
  O  O275  1  0.37907222  0.00388561  0.26013915  1
  O  O276  1  0.36971554  0.00284768  0.75414777  1
  O  O277  1  0.37104188  0.50066399  0.26169933  1
  O  O278  1  0.39877053  0.52754410  0.74312492  1
  O  O279  1  0.86591768  0.00728505  0.26038265  1
  O  O280  1  0.86328531  0.00346510  0.76173182  1
  O  O281  1  0.86898727  0.50597154  0.25394974  1
  O  O282  1  0.86269766  0.49946516  0.75102834  1
  O  O283  1  0.12019142  0.37429360  0.36761845  1
  O  O284  1  0.13880951  0.36870780  0.86709025  1
  O  O285  1  0.11195545  0.87463313  0.37051350  1
  O  O286  1  0.10948431  0.87137019  0.87475936  1
  O  O287  1  0.61834474  0.37059418  0.37115697  1
  O  O288  1  0.61402452  0.37051105  0.87100947  1
  O  O289  1  0.63225818  0.86579737  0.36550871  1
  O  O290  1  0.61047607  0.87722081  0.87374113  1
  O  O291  1  0.36735834  0.13329744  0.13196307  1
  O  O292  1  0.37553777  0.13044027  0.63438437  1
  O  O293  1  0.38222848  0.63213807  0.12937332  1
  O  O294  1  0.37510700  0.63743289  0.63079962  1
  O  O295  1  0.86878283  0.12293206  0.14293929  1
  O  O296  1  0.88490694  0.13967135  0.62129542  1
  O  O297  1  0.87283035  0.63408915  0.12970811  1
  O  O298  1  0.88313414  0.63142602  0.62734767  1
  O  O299  1  0.25567015  0.25420285  0.11763497  1
  O  O300  1  0.26311115  0.25050176  0.63297521  1
  O  O301  1  0.25424859  0.75900536  0.11822522  1
  O  O302  1  0.25614270  0.74373528  0.60709001  1
  O  O303  1  0.73590490  0.26156698  0.11838545  1
  O  O304  1  0.75933797  0.25768400  0.62436890  1
  O  O305  1  0.75756672  0.75867753  0.12217837  1
  O  O306  1  0.76355580  0.74300814  0.61869300  1
  O  O307  1  0.23674726  0.25113097  0.36934271  1
  O  O308  1  0.24605038  0.24529770  0.87742898  1
  O  O309  1  0.25382703  0.73743540  0.38254801  1
  O  O310  1  0.25099695  0.74873515  0.88427179  1
  O  O311  1  0.74171747  0.24063458  0.38222047  1
  O  O312  1  0.73038272  0.26065595  0.89012627  1
  O  O313  1  0.74197842  0.74529535  0.38111781  1
  O  O314  1  0.75466407  0.73837379  0.87477277  1
  O  O315  1  0.01715729  0.10814348  0.00187065  1
  O  O316  1  0.00472165  0.12685458  0.51155023  1
  O  O317  1  0.00019181  0.61405017  0.00460356  1
  O  O318  1  -0.00788138  0.61689127  0.50856181  1
  O  O319  1  0.50920307  0.11564397  -0.00154692  1
  O  O320  1  0.50803390  0.10737650  0.49743779  1
  O  O321  1  0.50381326  0.62036746  0.00548094  1
  O  O322  1  0.51290636  0.62002517  0.49597834  1
  O  O323  1  0.49634015  0.37591166  0.48656617  1
  O  O324  1  0.50448528  0.38341082  0.99380239  1
  O  O325  1  0.49517646  0.88586764  0.50151600  1
  O  O326  1  0.50010249  0.88654743  0.99203517  1
  O  O327  1  0.99142051  0.38516825  0.49410173  1
  O  O328  1  0.98825979  0.38215762  1.00713847  1
  O  O329  1  0.99610286  0.87903298  0.49630034  1
  O  O330  1  0.99183385  0.87844579  0.98864092  1
  O  O331  1  0.49215770  0.49178048  0.37571110  1
  O  O332  1  0.48722974  0.48984086  0.87859524  1
  O  O333  1  0.49339549  0.99719609  0.38222748  1
  O  O334  1  0.49272463  0.99431172  0.88177385  1
  O  O335  1  0.99284147  0.49691458  0.38173348  1
  O  O336  1  0.99897183  0.50077900  0.88642461  1
  O  O337  1  0.98538214  0.98998633  0.37133450  1
  O  O338  1  1.00644488  0.99400251  0.86655310  1
  O  O339  1  0.00556802  0.01343422  0.13782622  1
  O  O340  1  -0.00906588  0.00870243  0.62662451  1
  O  O341  1  0.00835853  0.50041697  0.11738444  1
  O  O342  1  0.00401059  0.50707080  0.61757487  1
  O  O343  1  0.50538214  -0.00555164  0.11495576  1
  O  O344  1  0.49624558  -0.00408397  0.61680768  1
  O  O345  1  0.50429097  0.50715665  0.11949468  1
  O  O346  1  0.51112786  0.48922323  0.62466405  1
  O  O347  1  0.24351895  0.37723779  0.23988831  1
  O  O348  1  0.32460850  0.40756987  0.76070678  1
  O  O349  1  0.24243902  0.87611294  0.24687141  1
  O  O350  1  0.24811303  0.88581376  0.75153148  1
  O  O351  1  0.74449792  0.37916444  0.24482755  1
  O  O352  1  0.73798006  0.38413759  0.74366511  1
  O  O353  1  0.74201825  0.88068932  0.24397071  1
  O  O354  1  0.74909427  0.88744173  0.75123301  1
  O  O355  1  0.26417751  0.11523791  0.25714577  1
  O  O356  1  0.25888724  0.11316383  0.75329857  1
  O  O357  1  0.24975816  0.62626939  0.26309502  1
  O  O358  1  0.26514120  0.63202213  0.74821696  1
  O  O359  1  0.75542056  0.11972169  0.26111723  1
  O  O360  1  0.75869513  0.11781062  0.75423873  1
  O  O361  1  0.75322311  0.62114186  0.25412271  1
  O  O362  1  0.74716728  0.61815687  0.75663440  1
  O  O363  1  0.37783942  0.11462815  0.36874030  1
  O  O364  1  0.36740689  0.11666444  0.86231786  1
  O  O365  1  0.37513234  0.61530060  0.37198321  1
  O  O366  1  0.36980213  0.61567814  0.85927222  1
  O  O367  1  0.86347053  0.11926120  0.37666265  1
  O  O368  1  0.87513773  0.16908768  0.86995455  1
  O  O369  1  0.86768867  0.62092758  0.36871877  1
  O  O370  1  0.86128686  0.61608030  0.87385483  1
  O  O371  1  0.13281986  0.38263897  0.13105003  1
  O  O372  1  0.12655582  0.38989554  0.62132992  1
  O  O373  1  0.13266661  0.87171192  0.13319525  1
  O  O374  1  0.10394945  0.88418725  0.61683441  1
  O  O375  1  0.63052309  0.38292490  0.13236492  1
  O  O376  1  0.62938818  0.38060545  0.62874407  1
  O  O377  1  0.62976854  0.88409779  0.13041529  1
  O  O378  1  0.63569542  0.85425818  0.63384277  1
  O  O379  1  0.12561032  0.26458047  0.25811307  1
  O  O380  1  0.12541233  0.25083374  0.75943823  1
  O  O381  1  0.11469379  0.76015033  0.24743374  1
  O  O382  1  0.11386655  0.75759264  0.74624664  1
  O  O383  1  0.61944406  0.25408266  0.25693393  1
  O  O384  1  0.61967453  0.25183626  0.75815937  1
  O  O385  1  0.62512840  0.75884629  0.25656939  1
  O  O386  1  0.61078082  0.74554097  0.75549196  1
  O  O387  1  0.37855549  0.24066478  0.24507593  1
  O  O388  1  0.38300315  0.23858587  0.74249727  1
  O  O389  1  0.37757792  0.74895360  0.23949077  1
  O  O390  1  0.37927547  0.74480651  0.74287964  1
  O  O391  1  0.86701747  0.23608778  0.25696827  1
  O  O392  1  0.88554491  0.26066532  0.73413525  1
  O  O393  1  0.87866462  0.74891125  0.23902776  1
  O  O394  1  0.88073221  0.74972282  0.74248733  1
  O  O395  1  0.37561470  0.48893334  0.49167861  1
  O  O396  1  0.38946941  0.49733510  1.00921104  1
  O  O397  1  0.38602479  0.99122311  0.49675587  1
  O  O398  1  0.38217095  1.00983300  0.99075152  1
  O  O399  1  0.87796528  0.49217991  0.49694611  1
  O  O400  1  0.88193395  0.49044829  0.99904374  1
  O  O401  1  0.86843613  0.98796593  0.49369756  1
  O  O402  1  0.87090816  0.99083657  1.00406733  1
  O  O403  1  0.18639066  -0.01367874  0.03003809  1
  O  O404  1  0.12184922  -0.00075009  0.49505724  1
  O  O405  1  0.11703856  0.49848563  0.00733262  1
  O  O406  1  0.11210757  0.49966545  0.50286210  1
  O  O407  1  0.61688254  0.00576602  0.00770415  1
  O  O408  1  0.61296717  0.00368818  0.50174234  1
  O  O409  1  0.61263463  0.50807266  0.00364027  1
  O  O410  1  0.62419460  0.50787867  0.50931084  1
  O  O411  1  0.36708241  0.36475459  0.12820536  1
  O  O412  1  0.37925257  0.36473782  0.60409975  1
  O  O413  1  0.36563985  0.86426944  0.12333478  1
  O  O414  1  0.37626125  0.86075150  0.61200723  1
  O  O415  1  0.85858270  0.38162136  0.11893374  1
  O  O416  1  0.86951981  0.37407630  0.61655637  1
  O  O417  1  0.87155796  0.87068620  0.11496149  1
  O  O418  1  0.87515748  0.86526076  0.61657522  1
  O  O419  1  0.12505748  0.14403089  0.37144612  1
  O  O420  1  0.13971027  0.13085819  0.86590578  1
  O  O421  1  0.13437343  0.62195659  0.37356274  1
  O  O422  1  0.13093069  0.62922818  0.87509702  1
  O  O423  1  0.63489164  0.12584820  0.38049646  1
  O  O424  1  0.61908700  0.13396396  0.88642952  1
  O  O425  1  0.63078406  0.63048749  0.38061440  1
  O  O426  1  0.63123103  0.61863928  0.88456395  1
