# generated using pymatgen
data_V85Zn86O256
_symmetry_space_group_name_H-M   'P 1'
_cell_length_a   16.93988855
_cell_length_b   16.93377100
_cell_length_c   16.94147095
_cell_angle_alpha   89.98167276
_cell_angle_beta   89.99983416
_cell_angle_gamma   90.01121049
_symmetry_Int_Tables_number   1
_chemical_formula_structural   V85Zn86O256
_chemical_formula_sum   'V85 Zn86 O256'
_cell_volume   4859.76552552
_cell_formula_units_Z   1
loop_
 _symmetry_equiv_pos_site_id
 _symmetry_equiv_pos_as_xyz
  1  'x, y, z'
loop_
 _atom_site_type_symbol
 _atom_site_label
 _atom_site_symmetry_multiplicity
 _atom_site_fract_x
 _atom_site_fract_y
 _atom_site_fract_z
 _atom_site_occupancy
  V  V0  1  0.75035470  0.12228798  0.37644557  1
  V  V1  1  0.24582212  0.24833649  0.49713640  1
  V  V2  1  0.37404921  0.11963779  0.75681468  1
  V  V3  1  0.12989714  0.62185508  0.00212309  1
  V  V4  1  0.00467554  0.62312271  0.62164662  1
  V  V5  1  0.37322015  -0.00111511  0.37815751  1
  V  V6  1  0.74839103  0.75485189  0.00058383  1
  V  V7  1  0.13373190  0.75035231  0.87601323  1
  V  V8  1  -0.00713847  0.50321182  -0.01045379  1
  V  V9  1  0.62232276  0.25667428  0.37185687  1
  V  V10  1  0.00053595  0.48509885  0.49934434  1
  V  V11  1  0.49978548  0.62939969  0.62966440  1
  V  V12  1  0.62768359  -0.00449334  0.12506274  1
  V  V13  1  0.37490864  0.37430804  0.50129634  1
  V  V14  1  0.75211196  0.62365775  0.37581872  1
  V  V15  1  0.87136182  0.62304832  0.25137561  1
  V  V16  1  0.13317154  0.24688658  0.87559219  1
  V  V17  1  0.37205809  0.24956127  0.11456182  1
  V  V18  1  0.49961787  0.12437701  0.62575578  1
  V  V19  1  0.62430033  0.62293282  0.00138483  1
  V  V20  1  0.75554561  -0.00379749  0.24655332  1
  V  V21  1  -0.00593535  0.37364879  0.87200437  1
  V  V22  1  0.62424063  0.75185921  0.37666109  1
  V  V23  1  0.00415307  0.87612592  0.87664225  1
  V  V24  1  0.35775577  0.61679478  0.75882596  1
  V  V25  1  0.87451616  0.48359667  0.38001154  1
  V  V26  1  -0.00125398  0.62742341  0.12303243  1
  V  V27  1  0.00175364  0.75032273  0.74905314  1
  V  V28  1  0.62764556  0.87435383  0.24848721  1
  V  V29  1  0.24842080  0.37304309  0.12090612  1
  V  V30  1  0.45958413  0.06830258  0.06866170  1
  V  V31  1  0.49366451  0.89094242  0.87446462  1
  V  V32  1  0.00341934  0.11038865  0.62273297  1
  V  V33  1  0.88251003  0.62058535  0.75243795  1
  V  V34  1  0.63226731  0.25423516  0.87102570  1
  V  V35  1  0.75639178  0.62321474  0.87489904  1
  V  V36  1  0.00312755  0.13168564  0.12949081  1
  V  V37  1  0.23890237  0.38606243  0.62434190  1
  V  V38  1  0.87484164  0.37119571  0.00383741  1
  V  V39  1  0.37399197  0.24965200  0.62361900  1
  V  V40  1  0.10898610  0.26166863  0.36782444  1
  V  V41  1  0.74735560  -0.00717886  0.75388404  1
  V  V42  1  0.88162715  0.13026634  0.25285660  1
  V  V43  1  0.25199466  -0.00717341  0.74689060  1
  V  V44  1  0.12864110  0.87801934  0.73506440  1
  V  V45  1  0.48904249  0.50158429  -0.00269618  1
  V  V46  1  0.87756903  0.25744778  0.62017699  1
  V  V47  1  0.25636750  0.74968318  -0.00106462  1
  V  V48  1  0.87808580  -0.00282188  0.38918598  1
  V  V49  1  0.14843589  0.42118456  0.77306711  1
  V  V50  1  0.25452239  0.49833221  0.24518047  1
  V  V51  1  0.62534988  0.12695234  0.49954004  1
  V  V52  1  0.62729157  0.62600362  0.50208342  1
  V  V53  1  0.75185173  0.12748982  0.87793947  1
  V  V54  1  0.38057461  0.12317702  0.25004194  1
  V  V55  1  0.24952036  0.87161901  0.12488069  1
  V  V56  1  0.12338646  0.74780795  0.37505127  1
  V  V57  1  0.87463863  -0.00114770  0.87785349  1
  V  V58  1  0.87475373  0.87649486  0.00683509  1
  V  V59  1  0.75668263  0.87616879  0.62317209  1
  V  V60  1  0.50194612  0.25231029  0.74663534  1
  V  V61  1  0.49798872  0.25637284  0.24753264  1
  V  V62  1  0.37413455  0.50151249  0.37613334  1
  V  V63  1  0.87776300  0.12360730  0.75119984  1
  V  V64  1  0.12683464  0.62141493  0.49929618  1
  V  V65  1  0.12176863  0.11271968  0.50057904  1
  V  V66  1  0.86846167  0.75254071  0.12627148  1
  V  V67  1  0.09715632  0.47743031  0.15349052  1
  V  V68  1  0.36054042  0.75269264  0.62420894  1
  V  V69  1  -0.00418449  0.87694782  0.38586907  1
  V  V70  1  0.12744683  0.12645418  0.00033788  1
  V  V71  1  0.62506693  -0.00578895  0.62969717  1
  V  V72  1  0.00802775  0.24734943  0.74900496  1
  V  V73  1  0.50185416  0.49970084  0.50219250  1
  V  V74  1  0.63171749  0.12006047  0.00545808  1
  V  V75  1  0.74332493  0.48496557  0.24404754  1
  V  V76  1  0.70096508  0.30907482  0.05710643  1
  V  V77  1  0.62274110  0.75789490  0.86652180  1
  V  V78  1  0.24697789  -0.00170053  0.25214427  1
  V  V79  1  0.24875058  0.62989808  0.37535953  1
  V  V80  1  0.49819438  -0.00536192  0.50133779  1
  V  V81  1  0.75593250  0.49817881  0.74906737  1
  V  V82  1  0.35791336  0.87213422  0.50547016  1
  V  V83  1  0.75909987  0.75457091  0.50000387  1
  V  V84  1  0.49307129  0.38306615  0.86798312  1
  Zn  Zn85  1  0.62926520  0.49884700  0.62562610  1
  Zn  Zn86  1  0.12178422  0.87313974  0.25052249  1
  Zn  Zn87  1  0.49905668  0.62468880  0.12633850  1
  Zn  Zn88  1  0.38067184  0.63075698  0.24814339  1
  Zn  Zn89  1  0.12191209  -0.00141874  0.12543814  1
  Zn  Zn90  1  0.50267287  0.74722582  0.24518702  1
  Zn  Zn91  1  0.37918428  0.89124049  -0.00082025  1
  Zn  Zn92  1  0.24616391  0.12811426  0.37271508  1
  Zn  Zn93  1  0.00220374  0.00049170  0.00414109  1
  Zn  Zn94  1  0.87928911  0.75421679  0.62183412  1
  Zn  Zn95  1  0.75767049  0.25579043  0.49544200  1
  Zn  Zn96  1  0.37996153  0.74855293  0.12723479  1
  Zn  Zn97  1  0.87441369  0.25280007  0.12864198  1
  Zn  Zn98  1  0.36422565  0.37685883  -0.01178991  1
  Zn  Zn99  1  0.62788401  0.37910356  0.74599599  1
  Zn  Zn100  1  0.75524545  0.38155905  0.61392577  1
  Zn  Zn101  1  0.62525335  0.48988509  0.12451975  1
  Zn  Zn102  1  -0.00167207  0.75258875  0.25035491  1
  Zn  Zn103  1  0.49846159  0.75447883  0.74808401  1
  Zn  Zn104  1  0.49734738  0.87161461  0.37665193  1
  Zn  Zn105  1  0.50138415  0.37830764  0.37135961  1
  Zn  Zn106  1  0.25542483  0.12144708  0.87921137  1
  Zn  Zn107  1  0.18915310  0.18882722  0.18949911  1
  Zn  Zn108  1  0.19004268  0.18261520  0.68413770  1
  Zn  Zn109  1  0.18893143  0.68335282  0.19001705  1
  Zn  Zn110  1  0.18515890  0.68665742  0.68638943  1
  Zn  Zn111  1  0.68236527  0.17815725  0.19417602  1
  Zn  Zn112  1  0.69192048  0.18546920  0.68803571  1
  Zn  Zn113  1  0.68708468  0.68608008  0.18670215  1
  Zn  Zn114  1  0.69142742  0.68475547  0.68660259  1
  Zn  Zn115  1  0.30889836  0.31406170  0.30927488  1
  Zn  Zn116  1  0.31229296  0.31189592  0.80595032  1
  Zn  Zn117  1  0.31314176  0.81139170  0.31439482  1
  Zn  Zn118  1  0.31780949  0.81318798  0.81122266  1
  Zn  Zn119  1  0.80993399  0.30881771  0.31416459  1
  Zn  Zn120  1  0.81848798  0.31192578  0.81018043  1
  Zn  Zn121  1  0.81302356  0.81443815  0.31362399  1
  Zn  Zn122  1  0.81499884  0.81086822  0.81260787  1
  Zn  Zn123  1  0.18627616  0.43751122  0.43653802  1
  Zn  Zn124  1  0.17886190  0.43884611  0.94530654  1
  Zn  Zn125  1  0.18467099  0.93515814  0.43496787  1
  Zn  Zn126  1  0.19163779  0.94139270  0.93370313  1
  Zn  Zn127  1  0.69024626  0.43519918  0.43961811  1
  Zn  Zn128  1  0.68271192  0.44492878  0.92872295  1
  Zn  Zn129  1  0.68916075  0.93741938  0.43833047  1
  Zn  Zn130  1  0.68504738  0.93581304  0.93984989  1
  Zn  Zn131  1  0.29484787  0.06446395  0.06510495  1
  Zn  Zn132  1  0.30838119  0.06127359  0.56698888  1
  Zn  Zn133  1  0.31201748  0.56367158  0.06460325  1
  Zn  Zn134  1  0.31291361  0.56579965  0.56433049  1
  Zn  Zn135  1  0.81358055  0.06464195  0.06662022  1
  Zn  Zn136  1  0.81259859  0.06837202  0.56637726  1
  Zn  Zn137  1  0.81193525  0.55889666  0.06144413  1
  Zn  Zn138  1  0.81933785  0.56425395  0.56355230  1
  Zn  Zn139  1  0.43606102  0.43803971  0.18314476  1
  Zn  Zn140  1  0.43341189  0.44013530  0.68566471  1
  Zn  Zn141  1  0.43413568  0.92568044  0.19294565  1
  Zn  Zn142  1  0.43753833  0.93352485  0.69292758  1
  Zn  Zn143  1  0.92746310  0.43820232  0.18505621  1
  Zn  Zn144  1  0.95107821  0.44003687  0.68978341  1
  Zn  Zn145  1  0.94273030  0.94068406  0.19242278  1
  Zn  Zn146  1  0.93704987  0.93549134  0.68994818  1
  Zn  Zn147  1  0.06261020  0.06361539  0.31806917  1
  Zn  Zn148  1  0.06735763  0.05878388  0.81173645  1
  Zn  Zn149  1  0.05554578  0.54763967  0.30921302  1
  Zn  Zn150  1  0.07799341  0.56363310  0.81451811  1
  Zn  Zn151  1  0.56065936  0.06191991  0.31276383  1
  Zn  Zn152  1  0.56558788  0.06693603  0.81250798  1
  Zn  Zn153  1  0.56442185  0.56274095  0.31253804  1
  Zn  Zn154  1  0.56594399  0.56569758  0.81176151  1
  Zn  Zn155  1  0.43695023  0.18540628  0.43562802  1
  Zn  Zn156  1  0.44209238  0.19445073  0.93120324  1
  Zn  Zn157  1  0.43707211  0.68823211  0.44142023  1
  Zn  Zn158  1  0.43901915  0.68637647  0.93411554  1
  Zn  Zn159  1  0.94264937  0.18627308  0.43796020  1
  Zn  Zn160  1  0.94105908  0.18913261  0.94111297  1
  Zn  Zn161  1  0.94028294  0.68513898  0.43588969  1
  Zn  Zn162  1  0.93920410  0.69144033  0.93600414  1
  Zn  Zn163  1  0.05945062  0.30905561  0.06034200  1
  Zn  Zn164  1  0.06565958  0.30576037  0.56336121  1
  Zn  Zn165  1  0.06438926  0.81184474  0.06337096  1
  Zn  Zn166  1  0.06534888  0.80695133  0.55806998  1
  Zn  Zn167  1  0.53755375  0.31054504  0.05815064  1
  Zn  Zn168  1  0.56751797  0.31606253  0.56334184  1
  Zn  Zn169  1  0.55994191  0.81525514  0.05874938  1
  Zn  Zn170  1  0.56504343  0.81260070  0.56498206  1
  O  O171  1  0.12066453  0.12574533  0.11901455  1
  O  O172  1  0.11670421  0.13081190  0.61088645  1
  O  O173  1  0.11176369  0.62184620  0.12110290  1
  O  O174  1  0.11362155  0.62916670  0.61565877  1
  O  O175  1  0.62482569  0.11107533  0.11840757  1
  O  O176  1  0.62194596  0.11697293  0.61787415  1
  O  O177  1  0.62789028  0.62480349  0.10921789  1
  O  O178  1  0.61840797  0.62410749  0.61864568  1
  O  O179  1  0.37346692  0.38743619  0.38218445  1
  O  O180  1  0.38716330  0.36777469  0.87174334  1
  O  O181  1  0.37648546  0.88014847  0.38789978  1
  O  O182  1  0.38823751  0.87603302  0.87904271  1
  O  O183  1  0.87590837  0.38532367  0.37018927  1
  O  O184  1  0.88847232  0.37065196  0.88112150  1
  O  O185  1  0.88648707  0.88117850  0.37320222  1
  O  O186  1  0.88261700  0.87708653  0.88521155  1
  O  O187  1  0.25572045  0.00118879  0.36830321  1
  O  O188  1  0.24852858  0.00618119  0.85840456  1
  O  O189  1  0.25659800  0.50661042  0.36954090  1
  O  O190  1  0.18624053  0.49180735  0.84401324  1
  O  O191  1  0.75654695  0.00284134  0.36776709  1
  O  O192  1  0.75261594  0.00345830  0.86979242  1
  O  O193  1  0.75877296  0.50352742  0.36791348  1
  O  O194  1  0.74961084  0.51654860  0.86818553  1
  O  O195  1  0.24635062  0.49243056  0.13258356  1
  O  O196  1  0.24964210  0.48489204  0.61751540  1
  O  O197  1  0.24530667  0.98997406  0.13503624  1
  O  O198  1  0.24796432  1.00633354  0.64560836  1
  O  O199  1  0.74771972  0.50155854  0.13963740  1
  O  O200  1  0.75412930  0.50217047  0.63462973  1
  O  O201  1  0.74410149  1.00257619  0.13871567  1
  O  O202  1  0.74523809  0.99583509  0.63220323  1
  O  O203  1  0.02978828  0.44362648  0.23133812  1
  O  O204  1  0.00203750  0.36274194  0.75885916  1
  O  O205  1  0.00321165  0.87139251  0.26044625  1
  O  O206  1  0.00757931  0.87058550  0.75731020  1
  O  O207  1  0.49251714  0.36128802  0.25226557  1
  O  O208  1  0.50163013  0.37135395  0.75194530  1
  O  O209  1  0.51534802  0.87389809  0.25689737  1
  O  O210  1  0.49953154  0.87094280  0.76633457  1
  O  O211  1  0.48614283  0.13060094  0.25537720  1
  O  O212  1  0.49477024  0.13052580  0.74406575  1
  O  O213  1  0.50066146  0.62688683  0.24721148  1
  O  O214  1  0.49924627  0.62654927  0.73696785  1
  O  O215  1  0.99158967  0.11781558  0.24475320  1
  O  O216  1  0.99690685  0.12757035  0.74489033  1
  O  O217  1  0.98603679  0.62350959  0.24112200  1
  O  O218  1  0.99912151  0.62961793  0.74427287  1
  O  O219  1  0.38080634  0.25056391  0.01075996  1
  O  O220  1  0.36943181  0.25320902  0.50516761  1
  O  O221  1  0.36066723  0.74570211  -0.00348136  1
  O  O222  1  0.37942171  0.75910965  0.51305897  1
  O  O223  1  0.87774906  0.26440139  0.00188575  1
  O  O224  1  0.87793894  0.24127650  0.51703852  1
  O  O225  1  0.86871327  0.75637242  0.00584370  1
  O  O226  1  0.86242063  0.74446674  0.49969762  1
  O  O227  1  0.13150047  0.24294451  0.49139188  1
  O  O228  1  0.11696773  0.24162582  0.98649561  1
  O  O229  1  0.12124041  0.73663807  0.48512899  1
  O  O230  1  0.13399651  0.74498781  0.99541809  1
  O  O231  1  0.61913758  0.23647913  0.49293205  1
  O  O232  1  0.63172567  0.24941979  0.99837742  1
  O  O233  1  0.63489392  0.74625291  0.49444459  1
  O  O234  1  0.63408415  0.74586691  0.99127211  1
  O  O235  1  0.48708623  0.24721393  0.13509068  1
  O  O236  1  0.49585818  0.24476471  0.62773292  1
  O  O237  1  0.50026006  0.74734133  0.12483721  1
  O  O238  1  0.49727578  0.74308671  0.62737700  1
  O  O239  1  0.99814487  0.23694270  0.12622864  1
  O  O240  1  0.99393387  0.24169104  0.63193017  1
  O  O241  1  0.98893227  0.74120480  0.12375243  1
  O  O242  1  0.99911051  0.74261289  0.63007454  1
  O  O243  1  0.00851639  0.25265745  0.37432404  1
  O  O244  1  0.00587883  0.25463641  0.86686719  1
  O  O245  1  0.00390602  0.75818581  0.37239314  1
  O  O246  1  0.00727162  0.76188837  0.87107060  1
  O  O247  1  0.50464377  0.25057133  0.36793449  1
  O  O248  1  0.51369511  0.25958874  0.86730530  1
  O  O249  1  0.51569797  0.74977005  0.38003306  1
  O  O250  1  0.51496036  0.75031514  0.87204771  1
  O  O251  1  0.23982444  0.13155566  0.50081310  1
  O  O252  1  0.23461531  0.12918722  0.99682127  1
  O  O253  1  0.23475073  0.61343083  0.49241905  1
  O  O254  1  0.23604842  0.63071503  1.00493145  1
  O  O255  1  0.74038465  0.12959128  0.49589461  1
  O  O256  1  0.74036059  0.12279802  0.99463473  1
  O  O257  1  0.74634202  0.63121343  0.49598171  1
  O  O258  1  0.74845983  0.63366046  0.99219552  1
  O  O259  1  0.24986768  0.38242302  0.01234819  1
  O  O260  1  0.25317033  0.36887306  0.50855658  1
  O  O261  1  0.25333454  0.86937396  0.00661414  1
  O  O262  1  0.25887161  0.87930501  0.50187439  1
  O  O263  1  0.75396631  0.37433920  -0.00507769  1
  O  O264  1  0.75355089  0.36833840  0.50066366  1
  O  O265  1  0.75874582  0.86272152  -0.00526394  1
  O  O266  1  0.74603453  0.86702810  0.50991717  1
  O  O267  1  0.14813492  0.52114647  0.24460848  1
  O  O268  1  0.08843277  0.48806783  0.72654694  1
  O  O269  1  0.13828903  1.00105250  0.25286107  1
  O  O270  1  0.13484583  0.98829233  0.75180502  1
  O  O271  1  0.63913276  0.49942643  0.24941402  1
  O  O272  1  0.64055527  0.50331414  0.74791407  1
  O  O273  1  0.63228179  0.99530494  0.24610198  1
  O  O274  1  0.63542039  1.00833411  0.74057785  1
  O  O275  1  0.36776540  0.00286884  0.25560124  1
  O  O276  1  0.36635161  0.00755352  0.74625037  1
  O  O277  1  0.36976473  0.50116401  0.25923265  1
  O  O278  1  0.37531666  0.51818568  0.74272035  1
  O  O279  1  0.86788306  0.00638303  0.25742173  1
  O  O280  1  0.86838704  0.00370087  0.75920674  1
  O  O281  1  0.86406786  0.50559080  0.25940004  1
  O  O282  1  0.87542350  0.51380086  0.74718644  1
  O  O283  1  0.12750753  0.36078481  0.37807702  1
  O  O284  1  0.11368559  0.36331888  0.86977571  1
  O  O285  1  0.11575797  0.86563427  0.37447729  1
  O  O286  1  0.11772356  0.86859378  0.87219022  1
  O  O287  1  0.62168607  0.35980943  0.37890187  1
  O  O288  1  0.61880089  0.36815516  0.86855622  1
  O  O289  1  0.62516645  0.86742902  0.36974397  1
  O  O290  1  0.61961280  0.86229191  0.87843127  1
  O  O291  1  0.38078124  0.12647823  0.12789513  1
  O  O292  1  0.38142385  0.13054046  0.63207040  1
  O  O293  1  0.37858795  0.62835675  0.12762992  1
  O  O294  1  0.38090768  0.63678123  0.62663541  1
  O  O295  1  0.88297720  0.12706108  0.13445141  1
  O  O296  1  0.88386915  0.13079300  0.63335778  1
  O  O297  1  0.87815211  0.63161436  0.12965834  1
  O  O298  1  0.88760182  0.63119698  0.63254937  1
  O  O299  1  0.25961456  0.25884797  0.13005817  1
  O  O300  1  0.25490443  0.25445671  0.61386941  1
  O  O301  1  0.24861964  0.75600488  0.11720970  1
  O  O302  1  0.26197647  0.74679305  0.62226803  1
  O  O303  1  0.74814940  0.24690194  0.12304147  1
  O  O304  1  0.76902418  0.24823050  0.62934985  1
  O  O305  1  0.76071782  0.74661037  0.11613412  1
  O  O306  1  0.75023216  0.75906901  0.61835091  1
  O  O307  1  0.25354966  0.24957778  0.38881044  1
  O  O308  1  0.23622592  0.24861273  0.86685401  1
  O  O309  1  0.24262602  0.73661181  0.37380799  1
  O  O310  1  0.24029668  0.75824651  0.88199636  1
  O  O311  1  0.73956512  0.23979949  0.37449184  1
  O  O312  1  0.73998049  0.24592631  0.86663970  1
  O  O313  1  0.74301363  0.74670644  0.38172074  1
  O  O314  1  0.74263406  0.74451052  0.87976370  1
  O  O315  1  0.00829107  0.12288989  0.00913189  1
  O  O316  1  0.01276455  0.12471678  0.50767186  1
  O  O317  1  0.00340261  0.62210344  0.00410821  1
  O  O318  1  0.00735402  0.61939246  0.50504011  1
  O  O319  1  0.51359289  0.13008948  -0.00022115  1
  O  O320  1  0.50391113  0.11349323  0.50579700  1
  O  O321  1  0.50886561  0.61747566  -0.00330857  1
  O  O322  1  0.50486590  0.61952803  0.51010344  1
  O  O323  1  0.49362673  0.38381221  0.49909395  1
  O  O324  1  0.49385926  0.38428454  0.98596294  1
  O  O325  1  0.49908400  0.88694319  0.50196668  1
  O  O326  1  0.49772654  0.87273708  0.98180034  1
  O  O327  1  1.00327499  0.38669413  0.50732358  1
  O  O328  1  0.99382627  0.38337503  0.99390324  1
  O  O329  1  1.00148639  0.87041264  0.48543397  1
  O  O330  1  0.99341933  0.87508634  0.99361548  1
  O  O331  1  0.49328510  0.50084376  0.38573358  1
  O  O332  1  0.50879209  0.49108320  0.88034862  1
  O  O333  1  0.49271597  0.99868153  0.38567917  1
  O  O334  1  0.50758170  0.98957753  0.87248106  1
  O  O335  1  0.98368935  0.50281175  0.38675107  1
  O  O336  1  1.00615734  0.49162710  0.88363999  1
  O  O337  1  0.99317768  0.98635838  0.37385404  1
  O  O338  1  0.99496636  0.98844866  0.87637562  1
  O  O339  1  0.00305049  0.01192592  0.12418495  1
  O  O340  1  -0.00366791  0.01102263  0.62969073  1
  O  O341  1  -0.00598988  0.51398202  0.10815303  1
  O  O342  1  -0.01328550  0.50943276  0.60517322  1
  O  O343  1  0.50681068  -0.00019726  0.13280018  1
  O  O344  1  0.50785182  0.00271033  0.62239178  1
  O  O345  1  0.50650683  0.49751934  0.11288994  1
  O  O346  1  0.50036875  0.50708781  0.61376770  1
  O  O347  1  0.25444356  0.38582080  0.23671973  1
  O  O348  1  0.24443155  0.37523661  0.73698822  1
  O  O349  1  0.24800331  0.88129802  0.24399929  1
  O  O350  1  0.24456667  0.88413585  0.75292703  1
  O  O351  1  0.75123130  0.38633352  0.25098258  1
  O  O352  1  0.75713459  0.39173120  0.75344566  1
  O  O353  1  0.73888751  0.88301184  0.25507233  1
  O  O354  1  0.75322712  0.88651042  0.74625545  1
  O  O355  1  0.26282696  0.11591980  0.24859453  1
  O  O356  1  0.25919410  0.11897247  0.75194116  1
  O  O357  1  0.25929219  0.62017007  0.26013965  1
  O  O358  1  0.25745070  0.62534891  0.74801443  1
  O  O359  1  0.75645280  0.11418336  0.25827446  1
  O  O360  1  0.75738502  0.11410437  0.75713607  1
  O  O361  1  0.75880333  0.62014089  0.25466605  1
  O  O362  1  0.76195433  0.61982686  0.75516343  1
  O  O363  1  0.37040975  0.11703659  0.36812689  1
  O  O364  1  0.37656327  0.13373428  0.86051364  1
  O  O365  1  0.36678258  0.61521330  0.38180124  1
  O  O366  1  0.37620911  0.63058068  0.85702428  1
  O  O367  1  0.87290921  0.11737613  0.37066768  1
  O  O368  1  0.87144740  0.11963269  0.87323109  1
  O  O369  1  0.87014767  0.62023330  0.36632831  1
  O  O370  1  0.86819843  0.63324970  0.86642365  1
  O  O371  1  0.12928512  0.38063347  0.11988385  1
  O  O372  1  0.13831028  0.36869328  0.62958807  1
  O  O373  1  0.13523034  0.87532807  0.12831509  1
  O  O374  1  0.12216522  0.86665420  0.63644472  1
  O  O375  1  0.63293668  0.36478370  0.10846690  1
  O  O376  1  0.63424546  0.37897227  0.62930906  1
  O  O377  1  0.62364160  0.88681017  0.13170839  1
  O  O378  1  0.63501422  0.88841082  0.62266385  1
  O  O379  1  0.13232416  0.24282557  0.27090185  1
  O  O380  1  0.11441890  0.23916156  0.75584294  1
  O  O381  1  0.12178272  0.74595803  0.26247821  1
  O  O382  1  0.12146478  0.75553335  0.75904434  1
  O  O383  1  0.61113786  0.23928711  0.25988725  1
  O  O384  1  0.62020398  0.24892602  0.75603996  1
  O  O385  1  0.62949161  0.75779146  0.25846602  1
  O  O386  1  0.62904026  0.74481029  0.76488925  1
  O  O387  1  0.37845862  0.24048057  0.24357586  1
  O  O388  1  0.38156978  0.24332869  0.74052184  1
  O  O389  1  0.38291377  0.75145596  0.25035906  1
  O  O390  1  0.37561158  0.74233095  0.73719228  1
  O  O391  1  0.86880764  0.23419411  0.25064583  1
  O  O392  1  0.88759565  0.24175661  0.74451499  1
  O  O393  1  0.87260676  0.74285515  0.24180708  1
  O  O394  1  0.88429797  0.74146649  0.74901669  1
  O  O395  1  0.38196976  0.49660194  0.49535371  1
  O  O396  1  0.38560633  0.50107818  0.99746722  1
  O  O397  1  0.38084505  0.99374862  0.50083847  1
  O  O398  1  0.38700051  1.01298060  1.01508270  1
  O  O399  1  0.88136687  0.50243481  0.48620154  1
  O  O400  1  0.88095533  0.48887608  0.99996431  1
  O  O401  1  0.86714455  1.00480395  0.48799940  1
  O  O402  1  0.87450732  0.99159765  0.99648539  1
  O  O403  1  0.12361214  0.01013543  0.00117055  1
  O  O404  1  0.12945452  0.01407353  0.49713315  1
  O  O405  1  0.11152757  0.50973165  0.01082978  1
  O  O406  1  0.10765722  0.50527557  0.49105823  1
  O  O407  1  0.62879226  0.00699836  0.01068283  1
  O  O408  1  0.61908305  0.00877256  0.50591426  1
  O  O409  1  0.61917311  0.50862034  0.00081355  1
  O  O410  1  0.61710479  0.50735395  0.49850228  1
  O  O411  1  0.36690380  0.36630855  0.11894659  1
  O  O412  1  0.36551511  0.36815711  0.62027342  1
  O  O413  1  0.36277734  0.87218146  0.11945371  1
  O  O414  1  0.37917605  0.86075965  0.62089515  1
  O  O415  1  0.87401729  0.36994936  0.11574521  1
  O  O416  1  0.88010096  0.35919511  0.63399819  1
  O  O417  1  0.88146392  0.86838579  0.11473843  1
  O  O418  1  0.86182781  0.87392858  0.62902908  1
  O  O419  1  0.12539193  0.13228847  0.38812641  1
  O  O420  1  0.12216037  0.13177540  0.88295396  1
  O  O421  1  0.12882444  0.62662595  0.37901119  1
  O  O422  1  0.11505497  0.64100510  0.88926501  1
  O  O423  1  0.62823810  0.12751950  0.38368860  1
  O  O424  1  0.63015474  0.13486960  0.88408868  1
  O  O425  1  0.63350622  0.63236297  0.38112561  1
  O  O426  1  0.63363120  0.63515668  0.88405945  1
