# generated using pymatgen
data_V85Zn86O256
_symmetry_space_group_name_H-M   'P 1'
_cell_length_a   16.98928555
_cell_length_b   16.97358504
_cell_length_c   16.97518120
_cell_angle_alpha   90.11784023
_cell_angle_beta   89.91185781
_cell_angle_gamma   90.00106824
_symmetry_Int_Tables_number   1
_chemical_formula_structural   V85Zn86O256
_chemical_formula_sum   'V85 Zn86 O256'
_cell_volume   4895.10129269
_cell_formula_units_Z   1
loop_
 _symmetry_equiv_pos_site_id
 _symmetry_equiv_pos_as_xyz
  1  'x, y, z'
loop_
 _atom_site_type_symbol
 _atom_site_label
 _atom_site_symmetry_multiplicity
 _atom_site_fract_x
 _atom_site_fract_y
 _atom_site_fract_z
 _atom_site_occupancy
  V  V0  1  0.37309255  0.87332247  0.49774060  1
  V  V1  1  0.37559627  -0.00159529  0.36936707  1
  V  V2  1  0.74373549  0.62787151  0.86592243  1
  V  V3  1  0.37154924  0.24523688  0.62930194  1
  V  V4  1  0.75348007  0.38242162  0.12523950  1
  V  V5  1  0.62735105  0.87115468  0.24670791  1
  V  V6  1  0.49594462  0.12695280  0.62654248  1
  V  V7  1  0.12696284  0.24867184  0.36821242  1
  V  V8  1  0.37563740  0.37684767  0.48971924  1
  V  V9  1  0.37220497  0.62078801  0.75380813  1
  V  V10  1  0.75452150  0.49873340  0.74605720  1
  V  V11  1  0.01248996  0.24800580  0.24260405  1
  V  V12  1  0.12703230  0.49712496  0.62533331  1
  V  V13  1  0.63302122  0.12755725  0.00202342  1
  V  V14  1  0.62225673  0.50058571  0.62048124  1
  V  V15  1  -0.00517580  0.62706205  0.62465407  1
  V  V16  1  0.35910411  0.37372921  0.00334255  1
  V  V17  1  0.74494433  0.87695164  0.62556196  1
  V  V18  1  0.25352506  0.61675470  0.37413808  1
  V  V19  1  0.12790240  0.87654414  0.23437484  1
  V  V20  1  0.87209571  0.74479807  0.62551902  1
  V  V21  1  0.62837025  0.14326201  0.49335236  1
  V  V22  1  0.49919300  0.62199181  0.12598591  1
  V  V23  1  0.87153563  0.87501805  0.49919030  1
  V  V24  1  -0.00044592  0.62311913  0.12813682  1
  V  V25  1  0.51808609  0.26949762  0.26392540  1
  V  V26  1  0.12917451  0.37774155  0.75150057  1
  V  V27  1  0.25016391  0.24920957  0.49782971  1
  V  V28  1  0.87726087  0.49959874  0.36686617  1
  V  V29  1  0.74750713  0.12413410  0.85707775  1
  V  V30  1  -0.00293446  0.00234946  0.50207080  1
  V  V31  1  0.12872523  0.48898707  0.12474726  1
  V  V32  1  0.62327929  0.73876207  0.37787593  1
  V  V33  1  0.61683770  0.76114157  0.88020938  1
  V  V34  1  0.37065118  0.26000663  0.13064719  1
  V  V35  1  0.12554490  0.62317456  0.49862815  1
  V  V36  1  0.00788964  0.37304713  0.36897252  1
  V  V37  1  0.49756931  0.25492508  0.75791598  1
  V  V38  1  0.61728653  0.88266130  0.75197104  1
  V  V39  1  0.50383182  0.48660042  -0.00473569  1
  V  V40  1  0.25277475  0.01965294  0.74769325  1
  V  V41  1  0.86210449  0.75402790  0.12744576  1
  V  V42  1  0.87420270  0.24720290  0.61985265  1
  V  V43  1  0.37718477  0.61415641  0.25296339  1
  V  V44  1  0.12007616  -0.00342648  0.62977337  1
  V  V45  1  -0.00165823  0.74904480  0.24772097  1
  V  V46  1  0.49890228  0.74520148  0.25116828  1
  V  V47  1  -0.00025588  0.10720591  0.11057090  1
  V  V48  1  0.50009485  0.00180026  0.49748517  1
  V  V49  1  0.49169899  0.50159343  0.49580767  1
  V  V50  1  0.12423461  0.75004129  0.37470544  1
  V  V51  1  0.49545438  0.75529031  0.75261860  1
  V  V52  1  0.87849710  0.25060009  0.11859254  1
  V  V53  1  0.25090059  0.12232582  0.36865746  1
  V  V54  1  0.11960158  0.12424959  0.50124015  1
  V  V55  1  0.93118879  0.68156237  0.80313828  1
  V  V56  1  0.62668100  0.00292596  0.62234820  1
  V  V57  1  0.12981635  0.24101248  0.88321171  1
  V  V58  1  0.25116215  0.37806004  0.62827217  1
  V  V59  1  0.50177759  0.62456435  0.62672978  1
  V  V60  1  0.87574452  0.12422740  0.24904254  1
  V  V61  1  0.50154950  0.87194248  0.37273151  1
  V  V62  1  0.74200950  0.74233462  0.50046729  1
  V  V63  1  0.25158122  0.62564489  0.87700649  1
  V  V64  1  0.24833024  0.74943346  0.49751721  1
  V  V65  1  0.12846213  0.63331822  0.00267033  1
  V  V66  1  0.89047869  0.12264486  0.74199753  1
  V  V67  1  0.86009683  0.36964732  0.49678658  1
  V  V68  1  0.36510934  0.75157399  0.12382546  1
  V  V69  1  0.00025265  0.37758101  0.86989431  1
  V  V70  1  0.63168848  0.49903609  0.13427711  1
  V  V71  1  0.74747920  0.61697738  0.37351268  1
  V  V72  1  0.87758002  0.38140505  -0.00572107  1
  V  V73  1  0.87989047  -0.00234102  0.87410597  1
  V  V74  1  0.62628222  0.62343922  -0.00157756  1
  V  V75  1  -0.00027801  0.87429179  0.37717032  1
  V  V76  1  0.37618170  0.49213353  0.87350394  1
  V  V77  1  0.87257545  0.00167598  0.37587954  1
  V  V78  1  0.50923973  0.13741147  0.13083010  1
  V  V79  1  0.24578320  0.87457422  0.63149288  1
  V  V80  1  0.62808233  -0.00082445  0.12574539  1
  V  V81  1  0.24961919  -0.00663382  0.24135063  1
  V  V82  1  0.24722973  0.48759495  0.24794510  1
  V  V83  1  -0.00062654  0.49442329  0.49968454  1
  V  V84  1  0.75073490  -0.00459621  0.25076780  1
  Zn  Zn85  1  0.37415755  0.74926278  0.62447371  1
  Zn  Zn86  1  0.62420728  0.25784406  0.87830103  1
  Zn  Zn87  1  0.24343760  0.76139306  0.00009740  1
  Zn  Zn88  1  0.00047147  0.50716290  -0.00437014  1
  Zn  Zn89  1  0.27706857  0.19495593  -0.03295497  1
  Zn  Zn90  1  0.74796842  0.75901618  0.00203609  1
  Zn  Zn91  1  0.87666680  0.50443351  0.86777828  1
  Zn  Zn92  1  0.17208681  0.04317288  0.07310867  1
  Zn  Zn93  1  0.87216944  0.88922436  0.00877459  1
  Zn  Zn94  1  0.87097150  0.61995228  0.24918979  1
  Zn  Zn95  1  0.12760960  0.75637910  0.85023971  1
  Zn  Zn96  1  0.05532700  0.92317677  0.81393705  1
  Zn  Zn97  1  0.74301743  0.36882614  0.62340642  1
  Zn  Zn98  1  0.74828100  0.14313967  0.37608149  1
  Zn  Zn99  1  0.37243966  0.01077298  0.86351038  1
  Zn  Zn100  1  0.62056701  0.38069373  0.75848435  1
  Zn  Zn101  1  0.70483145  0.43120168  0.29820459  1
  Zn  Zn102  1  0.75223630  0.25209856  -0.00519190  1
  Zn  Zn103  1  0.00260543  0.25008786  0.74406582  1
  Zn  Zn104  1  0.38140853  0.87744255  -0.01120002  1
  Zn  Zn105  1  0.38383893  0.12869789  0.25082976  1
  Zn  Zn106  1  0.50898933  -0.02095903  -0.02157872  1
  Zn  Zn107  1  0.19696005  0.17826826  0.16652533  1
  Zn  Zn108  1  0.17711823  0.19144820  0.68390733  1
  Zn  Zn109  1  0.18586752  0.68202769  0.19095227  1
  Zn  Zn110  1  0.19442625  0.67984845  0.68339597  1
  Zn  Zn111  1  0.69321226  0.19465229  0.19141568  1
  Zn  Zn112  1  0.68393394  0.19400906  0.68206830  1
  Zn  Zn113  1  0.68497540  0.67903077  0.19406766  1
  Zn  Zn114  1  0.68111950  0.68985593  0.68932886  1
  Zn  Zn115  1  0.31820974  0.30892741  0.30797774  1
  Zn  Zn116  1  0.31290962  0.31043143  0.81196500  1
  Zn  Zn117  1  0.31244241  0.80763610  0.30825222  1
  Zn  Zn118  1  0.31675987  0.81670427  0.81786633  1
  Zn  Zn119  1  0.82586704  0.30680004  0.30984827  1
  Zn  Zn120  1  0.80979400  0.31089172  0.80694667  1
  Zn  Zn121  1  0.81030869  0.80943323  0.31318528  1
  Zn  Zn122  1  0.79975956  0.81893294  0.81231698  1
  Zn  Zn123  1  0.18910970  0.43469473  0.43687651  1
  Zn  Zn124  1  0.18698348  0.44445509  0.93625371  1
  Zn  Zn125  1  0.18542339  0.93662329  0.43451061  1
  Zn  Zn126  1  0.20845132  0.92513727  0.92591663  1
  Zn  Zn127  1  0.67183302  0.32140987  0.42283291  1
  Zn  Zn128  1  0.68970662  0.43715714  0.93438812  1
  Zn  Zn129  1  0.68603249  0.93739233  0.43513907  1
  Zn  Zn130  1  0.69703656  0.94095506  0.93856546  1
  Zn  Zn131  1  0.33786946  0.07025958  0.04800449  1
  Zn  Zn132  1  0.30954753  0.06174991  0.55927223  1
  Zn  Zn133  1  0.31193596  0.56049310  0.06139146  1
  Zn  Zn134  1  0.31364909  0.56302070  0.56702108  1
  Zn  Zn135  1  0.81082648  0.06124777  0.06088647  1
  Zn  Zn136  1  0.80707212  0.06619172  0.56382328  1
  Zn  Zn137  1  0.81473151  0.56765037  0.05670746  1
  Zn  Zn138  1  0.81142470  0.55889346  0.55846915  1
  Zn  Zn139  1  0.44247945  0.43810200  0.18903791  1
  Zn  Zn140  1  0.43386498  0.43510535  0.68764217  1
  Zn  Zn141  1  0.42687006  0.95352577  0.15870720  1
  Zn  Zn142  1  0.43256383  0.94035330  0.68619396  1
  Zn  Zn143  1  0.94498373  0.43387988  0.18508971  1
  Zn  Zn144  1  0.93512218  0.43457995  0.68398696  1
  Zn  Zn145  1  0.93728210  0.93269770  0.18993230  1
  Zn  Zn146  1  0.92714506  0.94469524  0.68209645  1
  Zn  Zn147  1  0.06276889  0.06084426  0.30885204  1
  Zn  Zn148  1  0.06020020  0.06333784  0.93138737  1
  Zn  Zn149  1  0.06616196  0.56013287  0.30967504  1
  Zn  Zn150  1  0.07109576  0.56013070  0.81244679  1
  Zn  Zn151  1  0.56288324  0.06432931  0.31100429  1
  Zn  Zn152  1  0.56464622  0.06780752  0.80756839  1
  Zn  Zn153  1  0.58965455  0.51738734  0.35048300  1
  Zn  Zn154  1  0.56091389  0.56097876  0.81091862  1
  Zn  Zn155  1  0.43950722  0.19144807  0.43550715  1
  Zn  Zn156  1  0.45343883  0.14919493  0.92510782  1
  Zn  Zn157  1  0.43581580  0.68144317  0.43741650  1
  Zn  Zn158  1  0.44013784  0.68641545  0.94076852  1
  Zn  Zn159  1  0.93705713  0.18876921  0.43471857  1
  Zn  Zn160  1  0.93440262  0.19310335  0.92906295  1
  Zn  Zn161  1  0.93471243  0.68628797  0.44048040  1
  Zn  Zn162  1  0.98008295  0.74139500  0.98215702  1
  Zn  Zn163  1  0.05969761  0.31190878  0.05636822  1
  Zn  Zn164  1  0.05889250  0.30926486  0.56175512  1
  Zn  Zn165  1  0.06671660  0.89970030  0.03452892  1
  Zn  Zn166  1  0.06537141  0.80861766  0.67290815  1
  Zn  Zn167  1  0.56701424  0.31278486  0.06359286  1
  Zn  Zn168  1  0.55503355  0.31999528  0.56862707  1
  Zn  Zn169  1  0.55871565  0.81241078  0.06521566  1
  Zn  Zn170  1  0.55935935  0.81092476  0.56301569  1
  O  O171  1  0.10080234  0.11749494  0.13251357  1
  O  O172  1  0.12761372  0.11710488  0.60703129  1
  O  O173  1  0.11816800  0.61927845  0.12091980  1
  O  O174  1  0.11862623  0.61421888  0.61601571  1
  O  O175  1  0.63092021  0.12201759  0.12050145  1
  O  O176  1  0.61867977  0.12106752  0.61281961  1
  O  O177  1  0.62027727  0.61897658  0.11762694  1
  O  O178  1  0.60825806  0.62110291  0.63198805  1
  O  O179  1  0.36592506  0.37275736  0.39123256  1
  O  O180  1  0.36939498  0.38493028  0.88339995  1
  O  O181  1  0.38011270  0.87582723  0.38147855  1
  O  O182  1  0.36864112  0.89620718  0.87371898  1
  O  O183  1  0.88979695  0.37967882  0.38032711  1
  O  O184  1  0.88223065  0.37577196  0.87784550  1
  O  O185  1  0.87737708  0.88089445  0.37931084  1
  O  O186  1  0.86476728  0.89854453  0.85993563  1
  O  O187  1  0.25738543  0.00610497  0.37083585  1
  O  O188  1  0.24114460  0.00534165  0.84769111  1
  O  O189  1  0.24000468  0.51110437  0.36769061  1
  O  O190  1  0.26307907  0.51400384  0.88011603  1
  O  O191  1  0.75501583  0.00407137  0.36521961  1
  O  O192  1  0.75817884  0.01924535  0.87290623  1
  O  O193  1  0.76621760  0.50569993  0.37274281  1
  O  O194  1  0.75238326  0.51096926  0.86500228  1
  O  O195  1  0.23643005  0.50442837  0.13173457  1
  O  O196  1  0.24040356  0.48924540  0.61852021  1
  O  O197  1  0.25472667  0.99673333  0.14106618  1
  O  O198  1  0.24089241  0.99305495  0.62390669  1
  O  O199  1  0.74458769  0.49537431  0.11757517  1
  O  O200  1  0.73847793  0.50295117  0.62840886  1
  O  O201  1  0.74200758  1.00451370  0.13961912  1
  O  O202  1  0.73729396  0.98992990  0.61717123  1
  O  O203  1  -0.00105824  0.36087786  0.25713684  1
  O  O204  1  0.00746235  0.37554012  0.75458763  1
  O  O205  1  0.00666382  0.86703350  0.25677541  1
  O  O206  1  -0.00144693  0.87718662  0.73124669  1
  O  O207  1  0.50390121  0.36906204  0.25290795  1
  O  O208  1  0.49664045  0.35823599  0.74771120  1
  O  O209  1  0.50929917  0.86464017  0.25902511  1
  O  O210  1  0.50678509  0.86904570  0.74166479  1
  O  O211  1  0.50718937  0.13738367  0.24318164  1
  O  O212  1  0.50324635  0.13470760  0.73076424  1
  O  O213  1  0.49097084  0.62517200  0.24078806  1
  O  O214  1  0.49090398  0.63426404  0.74653376  1
  O  O215  1  0.98926947  0.12553894  0.24135041  1
  O  O216  1  0.98780959  0.12755711  0.74548961  1
  O  O217  1  1.00205287  0.63176760  0.24338328  1
  O  O218  1  0.98979947  0.61672468  0.74440009  1
  O  O219  1  0.36946999  0.26090175  0.01647677  1
  O  O220  1  0.36897660  0.25709404  0.50592803  1
  O  O221  1  0.37754718  0.74400587  0.01812752  1
  O  O222  1  0.36710554  0.75706811  0.49815792  1
  O  O223  1  0.87611112  0.25948095  0.00408184  1
  O  O224  1  0.88110686  0.25888552  0.50484075  1
  O  O225  1  0.86750752  0.73584594  0.02413347  1
  O  O226  1  0.86310391  0.75572232  0.50515731  1
  O  O227  1  0.12939269  0.24166860  0.49309368  1
  O  O228  1  0.12449569  0.25508023  0.98332608  1
  O  O229  1  0.13591387  0.73861793  0.49052888  1
  O  O230  1  0.12455959  0.73580511  0.99866958  1
  O  O231  1  0.61956406  0.24707973  0.50151076  1
  O  O232  1  0.63257901  0.24249660  0.99907752  1
  O  O233  1  0.63450581  0.75270605  0.49543137  1
  O  O234  1  0.62631987  0.74234631  0.99418689  1
  O  O235  1  0.50101012  0.25063878  0.13571963  1
  O  O236  1  0.48883403  0.24533057  0.62940148  1
  O  O237  1  0.49854905  0.73424948  0.13243495  1
  O  O238  1  0.49622685  0.74329449  0.63362370  1
  O  O239  1  0.99294729  0.24409296  0.12630129  1
  O  O240  1  0.98348072  0.25548808  0.62717956  1
  O  O241  1  0.98859764  0.74070234  0.14051181  1
  O  O242  1  0.99228428  0.73206422  0.61701844  1
  O  O243  1  0.00697297  0.25406338  0.36359819  1
  O  O244  1  0.00885859  0.26401698  0.87037483  1
  O  O245  1  0.00182595  0.75135020  0.36623387  1
  O  O246  1  -0.00572507  0.72919807  0.86469686  1
  O  O247  1  0.50241177  0.25089980  0.36285159  1
  O  O248  1  0.49588657  0.23501911  0.85897503  1
  O  O249  1  0.50582255  0.74883969  0.37135872  1
  O  O250  1  0.51092632  0.74419737  0.86755697  1
  O  O251  1  0.24304872  0.12869580  0.48617163  1
  O  O252  1  0.24049643  0.13347119  1.05681842  1
  O  O253  1  0.24868575  0.62792558  0.49282036  1
  O  O254  1  0.24492843  0.62872037  0.99393002  1
  O  O255  1  0.73105254  0.12480732  0.49888506  1
  O  O256  1  0.74262928  0.12685896  0.99461531  1
  O  O257  1  0.75477815  0.63331132  0.48917557  1
  O  O258  1  0.73831805  0.62641308  0.98715885  1
  O  O259  1  0.26026637  0.38524938  0.00282264  1
  O  O260  1  0.25327685  0.36796960  0.50902432  1
  O  O261  1  0.26665811  0.87093169  0.00403499  1
  O  O262  1  0.25704208  0.86878709  0.50029018  1
  O  O263  1  0.76498459  0.37610989  0.00617748  1
  O  O264  1  0.75947643  0.37616057  0.49915195  1
  O  O265  1  0.76102030  0.87100999  -0.00429633  1
  O  O266  1  0.75065955  0.86694642  0.50707835  1
  O  O267  1  0.13222104  0.50242508  0.23473611  1
  O  O268  1  0.12412660  0.48642801  0.74101690  1
  O  O269  1  0.13490013  0.98717793  0.25808915  1
  O  O270  1  0.13080148  1.00019340  0.73097290  1
  O  O271  1  0.62943236  0.50609067  0.23618845  1
  O  O272  1  0.63124327  0.50165774  0.74022299  1
  O  O273  1  0.63484036  0.99113072  0.25131154  1
  O  O274  1  0.61594485  0.99455290  0.73451067  1
  O  O275  1  0.36984977  0.00190816  0.25346376  1
  O  O276  1  0.35805438  0.00785259  0.73998271  1
  O  O277  1  0.36594052  0.50860235  0.24070257  1
  O  O278  1  0.38324092  0.50771974  0.76208759  1
  O  O279  1  0.86944734  0.00457980  0.25341387  1
  O  O280  1  0.87120946  0.01770314  0.75247192  1
  O  O281  1  0.89046394  0.49963386  0.26371686  1
  O  O282  1  0.85912824  0.49850898  0.74538298  1
  O  O283  1  0.11480993  0.36584949  0.37911600  1
  O  O284  1  0.12049593  0.37602721  0.86683322  1
  O  O285  1  0.11637627  0.86461353  0.37389186  1
  O  O286  1  0.12489797  0.86582537  0.87679867  1
  O  O287  1  0.62760926  0.41062398  0.37354267  1
  O  O288  1  0.62624666  0.37108824  0.87285589  1
  O  O289  1  0.62013264  0.86417950  0.36851729  1
  O  O290  1  0.62996724  0.87263522  0.86323367  1
  O  O291  1  0.39460959  0.14353395  0.12969154  1
  O  O292  1  0.38128632  0.13755727  0.61155003  1
  O  O293  1  0.38344175  0.62746628  0.13022035  1
  O  O294  1  0.38071355  0.62696632  0.63758378  1
  O  O295  1  0.88316526  0.13041608  0.12753165  1
  O  O296  1  0.87025631  0.13008198  0.63438738  1
  O  O297  1  0.88344971  0.62664305  0.13154910  1
  O  O298  1  0.88175328  0.63099366  0.61792253  1
  O  O299  1  0.27313253  0.26210513  0.15003837  1
  O  O300  1  0.25442181  0.25482513  0.61797569  1
  O  O301  1  0.26312653  0.73919071  0.12717550  1
  O  O302  1  0.25287860  0.75616891  0.61363279  1
  O  O303  1  0.76720045  0.25741390  0.12269043  1
  O  O304  1  0.76524117  0.25323893  0.62827680  1
  O  O305  1  0.76022372  0.74120011  0.13215402  1
  O  O306  1  0.74954063  0.75300411  0.61763400  1
  O  O307  1  0.24510317  0.24138615  0.37482407  1
  O  O308  1  0.23691820  0.25053751  0.87422733  1
  O  O309  1  0.24486913  0.73841035  0.37780598  1
  O  O310  1  0.25158042  0.73639788  0.87491030  1
  O  O311  1  0.74913916  0.25664993  0.37139036  1
  O  O312  1  0.75240682  0.23601548  0.87546493  1
  O  O313  1  0.74321761  0.74204452  0.38349062  1
  O  O314  1  0.73351213  0.74449116  0.87258468  1
  O  O315  1  -0.00443053  0.12673132  0.00750329  1
  O  O316  1  0.00914288  0.11582053  0.48839222  1
  O  O317  1  0.00739202  0.62985339  0.01533804  1
  O  O318  1  0.00268809  0.61231929  0.50517888  1
  O  O319  1  0.52090024  0.13188460  0.01976487  1
  O  O320  1  0.50981926  0.12423774  0.50616524  1
  O  O321  1  0.51102054  0.61802009  0.00711658  1
  O  O322  1  0.48521646  0.61519315  0.51691311  1
  O  O323  1  0.48851999  0.39062125  0.50636513  1
  O  O324  1  0.49629123  0.38543539  1.00390510  1
  O  O325  1  0.49119067  0.87821366  0.49392416  1
  O  O326  1  0.49891160  0.86722689  0.99179787  1
  O  O327  1  0.99774376  0.38403475  0.49289706  1
  O  O328  1  0.99063705  0.37912370  0.98971712  1
  O  O329  1  0.98594705  0.88618040  0.49032479  1
  O  O330  1  0.97782328  0.85265977  0.99619101  1
  O  O331  1  0.48687742  0.51646483  0.39781774  1
  O  O332  1  0.49003736  0.50736571  0.88588060  1
  O  O333  1  0.49489111  0.99370667  0.37819146  1
  O  O334  1  0.48655495  1.03932811  0.88246049  1
  O  O335  1  1.00107270  0.49193203  0.38109515  1
  O  O336  1  0.99873600  0.49063447  0.87386974  1
  O  O337  1  0.99229538  0.99531151  0.38018373  1
  O  O338  1  0.98516745  1.00419235  0.86693560  1
  O  O339  1  -0.00990273  0.00661144  0.11874941  1
  O  O340  1  0.00471268  -0.00109783  0.60781343  1
  O  O341  1  0.01042140  0.50806618  0.12431274  1
  O  O342  1  0.00342633  0.50578160  0.61680247  1
  O  O343  1  0.52496682  0.01731058  0.14535714  1
  O  O344  1  0.50242646  0.00932083  0.61643327  1
  O  O345  1  0.50953350  0.50783462  0.11815469  1
  O  O346  1  0.50197405  0.50857027  0.62837942  1
  O  O347  1  0.25270082  0.38942349  0.26029258  1
  O  O348  1  0.24433366  0.37020720  0.73647891  1
  O  O349  1  0.23909244  0.88074785  0.25903632  1
  O  O350  1  0.25559908  0.87640626  0.73205244  1
  O  O351  1  0.77358202  0.37687319  0.23003684  1
  O  O352  1  0.74605187  0.38522340  0.74549902  1
  O  O353  1  0.73997081  0.88279400  0.25745657  1
  O  O354  1  0.73166735  0.86926557  0.73289413  1
  O  O355  1  0.24958254  0.11592284  0.25900024  1
  O  O356  1  0.24645544  0.11759333  0.73545140  1
  O  O357  1  0.25616417  0.61594971  0.25781968  1
  O  O358  1  0.26622228  0.62490512  0.75604659  1
  O  O359  1  0.76342563  0.12049488  0.25096943  1
  O  O360  1  0.74720678  0.12827321  0.75642203  1
  O  O361  1  0.75479817  0.62785683  0.26787506  1
  O  O362  1  0.73992741  0.62044488  0.76009380  1
  O  O363  1  0.36729559  0.12013535  0.37235418  1
  O  O364  1  0.34885248  0.10829260  0.93293376  1
  O  O365  1  0.36387507  0.62635451  0.36548839  1
  O  O366  1  0.37206365  0.61841386  0.87180662  1
  O  O367  1  0.87309789  0.12010760  0.36501206  1
  O  O368  1  0.86802159  0.12266172  0.86010107  1
  O  O369  1  0.87168603  0.61400424  0.37578769  1
  O  O370  1  0.86630052  0.62912868  0.86428100  1
  O  O371  1  0.11714661  0.39080131  0.11841637  1
  O  O372  1  0.13118972  0.37677889  0.62934591  1
  O  O373  1  0.11903375  0.87380999  0.13552683  1
  O  O374  1  0.13531744  0.88444563  0.61310137  1
  O  O375  1  0.64224009  0.38578403  0.11681987  1
  O  O376  1  0.62477134  0.38667415  0.63027411  1
  O  O377  1  0.62067870  0.88164445  0.13965874  1
  O  O378  1  0.62575679  0.88388720  0.62754284  1
  O  O379  1  0.11581278  0.23787265  0.24702325  1
  O  O380  1  0.12233438  0.26295106  0.75570568  1
  O  O381  1  0.11730695  0.75500357  0.25493461  1
  O  O382  1  0.11809863  0.73535408  0.73999949  1
  O  O383  1  0.61828817  0.25633984  0.24917248  1
  O  O384  1  0.60750160  0.25190841  0.74739397  1
  O  O385  1  0.61973049  0.75372869  0.25630056  1
  O  O386  1  0.61171105  0.75982328  0.75631216  1
  O  O387  1  0.39273368  0.25171944  0.24340609  1
  O  O388  1  0.38329466  0.25006972  0.74050603  1
  O  O389  1  0.37879142  0.73292732  0.24524949  1
  O  O390  1  0.38500504  0.74502715  0.75129718  1
  O  O391  1  0.88915258  0.23978892  0.23927785  1
  O  O392  1  0.87769481  0.23877621  0.74269971  1
  O  O393  1  0.88139180  0.74551689  0.24638877  1
  O  O394  1  0.87260965  0.74763310  0.74790007  1
  O  O395  1  0.38308354  0.48992947  0.51278461  1
  O  O396  1  0.38469039  0.49363782  0.99636409  1
  O  O397  1  0.37976068  0.99252153  0.49110511  1
  O  O398  1  0.40737477  0.98288609  1.04716500  1
  O  O399  1  0.88322331  0.49039905  0.49048723  1
  O  O400  1  0.88000379  0.49555488  0.99205070  1
  O  O401  1  0.87844554  0.99906902  0.49624839  1
  O  O402  1  0.87245252  1.00581407  0.97981074  1
  O  O403  1  0.12309095  -0.01172951  -0.00930848  1
  O  O404  1  0.11573278  0.00610799  0.50029592  1
  O  O405  1  0.12270898  0.51118112  0.01017267  1
  O  O406  1  0.11667724  0.50219723  0.50391582  1
  O  O407  1  0.62569584  0.00592834  0.01039221  1
  O  O408  1  0.61653713  0.00181596  0.50763560  1
  O  O409  1  0.62021188  0.50749085  0.00471828  1
  O  O410  1  0.60167358  0.50479757  0.51782561  1
  O  O411  1  0.38467525  0.36677687  0.11790944  1
  O  O412  1  0.36584128  0.36477437  0.62038597  1
  O  O413  1  0.38122937  0.84760843  0.14477473  1
  O  O414  1  0.36822212  0.87503565  0.60972180  1
  O  O415  1  0.87865624  0.36942851  0.11285651  1
  O  O416  1  0.87160945  0.36972566  0.61149539  1
  O  O417  1  0.87290750  0.85683989  0.13242752  1
  O  O418  1  0.86041111  0.86835101  0.61878665  1
  O  O419  1  0.13149843  0.12869028  0.37990704  1
  O  O420  1  0.11774979  0.14296701  0.87194400  1
  O  O421  1  0.13063860  0.62980476  0.37898577  1
  O  O422  1  0.13587325  0.62278568  0.88306151  1
  O  O423  1  0.62446346  0.12158036  0.39218471  1
  O  O424  1  0.63709965  0.12868399  0.88055174  1
  O  O425  1  0.63476702  0.62533145  0.37452437  1
  O  O426  1  0.62749563  0.63211921  0.88115307  1
