# generated using pymatgen
data_V85Zn86O256
_symmetry_space_group_name_H-M   'P 1'
_cell_length_a   16.93906793
_cell_length_b   16.93525218
_cell_length_c   16.93199990
_cell_angle_alpha   89.96785422
_cell_angle_beta   89.97767742
_cell_angle_gamma   89.99654160
_symmetry_Int_Tables_number   1
_chemical_formula_structural   V85Zn86O256
_chemical_formula_sum   'V85 Zn86 O256'
_cell_volume   4857.23742684
_cell_formula_units_Z   1
loop_
 _symmetry_equiv_pos_site_id
 _symmetry_equiv_pos_as_xyz
  1  'x, y, z'
loop_
 _atom_site_type_symbol
 _atom_site_label
 _atom_site_symmetry_multiplicity
 _atom_site_fract_x
 _atom_site_fract_y
 _atom_site_fract_z
 _atom_site_occupancy
  V  V0  1  0.74367304  0.75197472  0.49666995  1
  V  V1  1  0.87088308  0.37858169  0.00198920  1
  V  V2  1  0.12787723  0.62282492  0.49413066  1
  V  V3  1  0.00960920  0.25375367  0.24797657  1
  V  V4  1  0.26419918  0.62291289  0.87654866  1
  V  V5  1  0.74078836  0.62732778  0.37182171  1
  V  V6  1  0.74373168  0.25142311  0.00423161  1
  V  V7  1  0.49858243  0.62264947  0.12622244  1
  V  V8  1  0.64608407  0.00042579  0.62368921  1
  V  V9  1  -0.00038395  0.12718791  0.12304278  1
  V  V10  1  0.00331080  0.37192277  0.87560508  1
  V  V11  1  0.63193274  0.50018584  0.63490674  1
  V  V12  1  0.49701664  0.62448263  0.62536473  1
  V  V13  1  0.12903067  0.74670640  0.37359530  1
  V  V14  1  0.25078073  0.00117976  0.25064155  1
  V  V15  1  0.86775493  0.25613645  0.12798421  1
  V  V16  1  0.62394401  0.74828244  0.87792546  1
  V  V17  1  0.01466909  0.12802241  0.61644473  1
  V  V18  1  0.00757223  0.00520530  0.49470456  1
  V  V19  1  0.25147805  0.74655988  0.49761999  1
  V  V20  1  0.87285601  0.88048390  0.49484257  1
  V  V21  1  -0.00264521  0.62570902  0.62295272  1
  V  V22  1  0.62529325  0.87036521  0.25259808  1
  V  V23  1  0.87145350  0.49787948  0.86385626  1
  V  V24  1  0.12604503  0.13311195  -0.00608742  1
  V  V25  1  -0.00040947  0.24629072  0.75191538  1
  V  V26  1  0.63153473  0.87504065  0.74327195  1
  V  V27  1  0.24324923  0.74905781  -0.00077639  1
  V  V28  1  0.37329801  0.37627361  -0.01286227  1
  V  V29  1  0.50114087  0.49667699  0.49846449  1
  V  V30  1  0.74756417  0.12228914  0.38351703  1
  V  V31  1  0.12792314  0.49532480  0.62786526  1
  V  V32  1  0.62075298  0.24718350  0.37422866  1
  V  V33  1  0.50505549  0.87145890  0.37822145  1
  V  V34  1  0.26282219  0.25278418  0.51471469  1
  V  V35  1  0.25225171  0.00075728  0.74510375  1
  V  V36  1  0.37374160  0.00141463  0.87431402  1
  V  V37  1  0.24156067  0.49306918  0.25366580  1
  V  V38  1  0.00319200  0.62545031  0.11551879  1
  V  V39  1  0.26339493  0.50733468  0.74949507  1
  V  V40  1  0.87340537  0.50036127  0.37352476  1
  V  V41  1  0.75663482  -0.00152103  0.25329032  1
  V  V42  1  0.87105075  0.76013824  0.62113478  1
  V  V43  1  0.87151041  0.12539203  0.25350961  1
  V  V44  1  0.25197320  0.13907520  0.87091171  1
  V  V45  1  0.12474578  0.87475422  0.24804706  1
  V  V46  1  0.49216084  0.37044053  0.37454610  1
  V  V47  1  0.12092622  0.74089151  0.87501344  1
  V  V48  1  0.87511797  0.23849247  0.62585088  1
  V  V49  1  0.49544307  0.49897678  -0.00369023  1
  V  V50  1  0.49877500  0.00160078  0.00205447  1
  V  V51  1  0.61995459  0.37150341  0.24975590  1
  V  V52  1  0.76145149  0.12292500  0.86912255  1
  V  V53  1  -0.00094668  0.75045350  0.75168260  1
  V  V54  1  0.50381833  0.00593295  0.50808605  1
  V  V55  1  0.36810101  0.49983543  0.38135131  1
  V  V56  1  0.75049262  0.37858625  0.63825210  1
  V  V57  1  0.75036184  0.49403002  0.24542570  1
  V  V58  1  0.75183223  0.87247277  0.12225629  1
  V  V59  1  0.37220269  0.74831881  0.62908909  1
  V  V60  1  0.00039830  0.50000621  0.49832104  1
  V  V61  1  0.62745934  0.49453417  0.12303308  1
  V  V62  1  0.50038477  0.87596897  0.87474991  1
  V  V63  1  0.36580639  0.62310447  0.25621888  1
  V  V64  1  0.39160392  0.12804091  0.74201543  1
  V  V65  1  0.12481635  0.24206246  0.38640519  1
  V  V66  1  0.50740996  0.37463541  0.86636142  1
  V  V67  1  0.49975551  0.12836262  0.12950313  1
  V  V68  1  0.87326971  0.37522808  0.50042020  1
  V  V69  1  0.37640167  0.13398565  0.25209447  1
  V  V70  1  -0.00253565  0.74762534  0.24836997  1
  V  V71  1  0.49502238  0.74481681  0.75165857  1
  V  V72  1  0.12623536  0.49662180  0.11553102  1
  V  V73  1  0.12584763  0.00278484  0.11993126  1
  V  V74  1  0.12932227  0.37350840  0.75321811  1
  V  V75  1  0.37226339  0.74933542  0.12505479  1
  V  V76  1  0.74654997  0.61790670  0.86992529  1
  V  V77  1  0.12431605  0.87631362  0.75233432  1
  V  V78  1  0.62375000  0.25057860  0.85595912  1
  V  V79  1  0.74471789  0.25147330  0.49917467  1
  V  V80  1  0.50030959  0.74835890  0.25450040  1
  V  V81  1  -0.00305346  0.87917519  0.37114593  1
  V  V82  1  0.00636715  0.37618671  0.37077083  1
  V  V83  1  0.37518966  0.25401606  0.12235527  1
  V  V84  1  0.37752286  0.00114618  0.37710050  1
  Zn  Zn85  1  0.78898390  -0.03384269  0.79254795  1
  Zn  Zn86  1  0.24984066  0.87590525  0.12153719  1
  Zn  Zn87  1  0.39275356  0.27041211  0.62309839  1
  Zn  Zn88  1  0.37264650  0.87462392  0.00008504  1
  Zn  Zn89  1  0.24317425  0.12248955  0.38101654  1
  Zn  Zn90  1  0.51572708  0.13666376  0.62480636  1
  Zn  Zn91  1  -0.01001911  0.00223014  -0.02737475  1
  Zn  Zn92  1  0.62351093  0.00157621  0.12808944  1
  Zn  Zn93  1  0.86811671  0.62012783  0.74332053  1
  Zn  Zn94  1  0.87887088  0.87775043  -0.02787683  1
  Zn  Zn95  1  0.87573264  0.74811172  0.11602010  1
  Zn  Zn96  1  0.24634747  0.37270298  0.12377420  1
  Zn  Zn97  1  0.12868081  0.00076026  0.61946442  1
  Zn  Zn98  1  0.75335181  0.74846001  -0.00040485  1
  Zn  Zn99  1  0.37435500  0.87522013  0.50125349  1
  Zn  Zn100  1  0.62263684  0.62875305  0.49578059  1
  Zn  Zn101  1  0.24998495  0.87581420  0.62226206  1
  Zn  Zn102  1  0.24632512  0.25575954  -0.00615221  1
  Zn  Zn103  1  0.00146415  0.50501160  -0.00581093  1
  Zn  Zn104  1  0.62602507  0.62308825  0.00136515  1
  Zn  Zn105  1  0.62403089  0.12726440  0.00015724  1
  Zn  Zn106  1  0.87414229  0.62247092  0.24560477  1
  Zn  Zn107  1  0.19056321  0.18788508  0.18731341  1
  Zn  Zn108  1  0.18987443  0.18987029  0.69010265  1
  Zn  Zn109  1  0.18539132  0.68080005  0.18530576  1
  Zn  Zn110  1  0.18612260  0.68336661  0.68667017  1
  Zn  Zn111  1  0.68536382  0.18819840  0.18917279  1
  Zn  Zn112  1  0.69417402  0.18113418  0.68469510  1
  Zn  Zn113  1  0.68592766  0.68590251  0.18771677  1
  Zn  Zn114  1  0.68597694  0.68676222  0.68648225  1
  Zn  Zn115  1  0.30826910  0.31454354  0.31406964  1
  Zn  Zn116  1  0.33162719  0.33028878  0.78246552  1
  Zn  Zn117  1  0.31267566  0.81466500  0.31335714  1
  Zn  Zn118  1  0.31092945  0.81361194  0.81286112  1
  Zn  Zn119  1  0.81200752  0.31454830  0.31241568  1
  Zn  Zn120  1  0.81545074  0.30640114  0.81477893  1
  Zn  Zn121  1  0.81436845  0.81106978  0.31169842  1
  Zn  Zn122  1  0.81169231  0.79844095  0.81134626  1
  Zn  Zn123  1  0.18808462  0.43097890  0.43756006  1
  Zn  Zn124  1  0.18915448  0.43950358  0.93347389  1
  Zn  Zn125  1  0.18767040  0.93329019  0.43583477  1
  Zn  Zn126  1  0.18299906  0.93770409  0.93345016  1
  Zn  Zn127  1  0.68404926  0.43804229  0.43914246  1
  Zn  Zn128  1  0.68800096  0.43547772  0.93647754  1
  Zn  Zn129  1  0.68686845  0.93857176  0.43877008  1
  Zn  Zn130  1  0.68232079  0.93714684  0.94269643  1
  Zn  Zn131  1  0.31135925  0.06712901  0.06068920  1
  Zn  Zn132  1  0.31228848  0.07030664  0.56033662  1
  Zn  Zn133  1  0.31063503  0.56227223  0.06044421  1
  Zn  Zn134  1  0.31256852  0.56290813  0.56341126  1
  Zn  Zn135  1  0.80764398  0.06495383  0.06288454  1
  Zn  Zn136  1  0.86482107  0.01396642  0.62208809  1
  Zn  Zn137  1  0.81282703  0.56408552  0.05868402  1
  Zn  Zn138  1  0.81061152  0.56521390  0.55884657  1
  Zn  Zn139  1  0.43477775  0.43630599  0.18787054  1
  Zn  Zn140  1  0.44100946  0.43889431  0.68548936  1
  Zn  Zn141  1  0.43627225  0.93716216  0.18891596  1
  Zn  Zn142  1  0.43852239  0.93321162  0.68776973  1
  Zn  Zn143  1  0.94025145  0.43806599  0.18578298  1
  Zn  Zn144  1  0.93936513  0.43269588  0.68612109  1
  Zn  Zn145  1  0.93540552  0.93976166  0.11693751  1
  Zn  Zn146  1  0.94647534  0.94144316  0.79549996  1
  Zn  Zn147  1  0.05835428  0.06262153  0.30796844  1
  Zn  Zn148  1  0.06983848  0.07085934  0.80722630  1
  Zn  Zn149  1  0.06357277  0.56317656  0.30802736  1
  Zn  Zn150  1  0.06153146  0.56375145  0.81261570  1
  Zn  Zn151  1  0.56392483  0.06007720  0.31225671  1
  Zn  Zn152  1  0.57336855  0.06091055  0.81215946  1
  Zn  Zn153  1  0.55965190  0.55970363  0.31096331  1
  Zn  Zn154  1  0.55826944  0.56232818  0.81240737  1
  Zn  Zn155  1  0.43754570  0.18701598  0.44292502  1
  Zn  Zn156  1  0.43946694  0.18990591  0.93542944  1
  Zn  Zn157  1  0.43572521  0.68469059  0.43810216  1
  Zn  Zn158  1  0.43702329  0.68693084  0.94127108  1
  Zn  Zn159  1  0.93369645  0.18666494  0.43689559  1
  Zn  Zn160  1  0.93765363  0.19015511  0.94021192  1
  Zn  Zn161  1  0.93416557  0.68773218  0.43375328  1
  Zn  Zn162  1  0.93220316  0.68786916  0.93599377  1
  Zn  Zn163  1  0.06095693  0.31557973  0.06239292  1
  Zn  Zn164  1  0.06471937  0.31589198  0.56288819  1
  Zn  Zn165  1  0.06235646  0.81439010  0.05903139  1
  Zn  Zn166  1  0.06193925  0.81580582  0.56388682  1
  Zn  Zn167  1  0.55745830  0.31422926  0.06360321  1
  Zn  Zn168  1  0.56594068  0.31829744  0.56261895  1
  Zn  Zn169  1  0.56153842  0.81404974  0.06475267  1
  Zn  Zn170  1  0.56252053  0.81551049  0.56258538  1
  O  O171  1  0.12317554  0.12080810  0.11801121  1
  O  O172  1  0.11776240  0.12777484  0.62276790  1
  O  O173  1  0.11608797  0.61076327  0.12690757  1
  O  O174  1  0.11453893  0.61868098  0.61460543  1
  O  O175  1  0.61323415  0.12462338  0.12540765  1
  O  O176  1  0.62955425  0.10577383  0.62781250  1
  O  O177  1  0.61644846  0.61251220  0.12651131  1
  O  O178  1  0.61533169  0.61772867  0.62110639  1
  O  O179  1  0.38473528  0.38269732  0.36912003  1
  O  O180  1  0.38666114  0.36747787  0.88268510  1
  O  O181  1  0.38390198  0.88740044  0.37344673  1
  O  O182  1  0.38069262  0.88756140  0.87357804  1
  O  O183  1  0.88374889  0.37977439  0.38111218  1
  O  O184  1  0.88187638  0.37996542  0.88002290  1
  O  O185  1  0.88931954  0.86955357  0.37946183  1
  O  O186  1  0.86112242  0.88807112  0.85912594  1
  O  O187  1  0.25830320  0.00098430  0.37011957  1
  O  O188  1  0.25924868  0.00615289  0.86690127  1
  O  O189  1  0.25634266  0.49342883  0.36819898  1
  O  O190  1  0.24623667  0.51694435  0.86780813  1
  O  O191  1  0.74163482  0.01153383  0.36810660  1
  O  O192  1  0.73524123  0.01820654  0.87913451  1
  O  O193  1  0.75395397  0.50501380  0.36877363  1
  O  O194  1  0.75740567  0.50470368  0.87615746  1
  O  O195  1  0.23833271  0.50094352  0.12920874  1
  O  O196  1  0.24137507  0.51113103  0.63982995  1
  O  O197  1  0.24291169  1.00181468  0.13193643  1
  O  O198  1  0.25099916  0.99985119  0.63061054  1
  O  O199  1  0.74013653  0.50422255  0.13264655  1
  O  O200  1  0.74002969  0.49654227  0.62110262  1
  O  O201  1  0.74376171  0.99213721  0.13552066  1
  O  O202  1  0.74293091  0.99585024  0.61196007  1
  O  O203  1  -0.00723579  0.36522845  0.25924146  1
  O  O204  1  0.00818881  0.36776942  0.75564811  1
  O  O205  1  0.00913510  0.86391103  0.25697136  1
  O  O206  1  0.01083707  0.85764027  0.74425083  1
  O  O207  1  0.50838773  0.38178063  0.26122174  1
  O  O208  1  0.50622264  0.39050191  0.76838160  1
  O  O209  1  0.50589849  0.87095226  0.25680091  1
  O  O210  1  0.50702028  0.86458489  0.75537623  1
  O  O211  1  0.49021488  0.11697844  0.23886151  1
  O  O212  1  0.49416180  0.11413945  0.74539910  1
  O  O213  1  0.48925228  0.62774365  0.24545015  1
  O  O214  1  0.50216290  0.63658178  0.74218381  1
  O  O215  1  0.98928759  0.13484274  0.24618123  1
  O  O216  1  1.01010497  0.14155017  0.73771875  1
  O  O217  1  0.99940184  0.63171122  0.24065147  1
  O  O218  1  0.99998911  0.63315041  0.73847902  1
  O  O219  1  0.37349010  0.25806880  0.00576420  1
  O  O220  1  0.36772769  0.25398754  0.50452655  1
  O  O221  1  0.36594201  0.75093210  0.00898234  1
  O  O222  1  0.36596059  0.74898160  0.50571465  1
  O  O223  1  0.86597393  0.25599938  0.00881415  1
  O  O224  1  0.86507281  0.25638320  0.50407744  1
  O  O225  1  0.87169607  0.76048846  -0.00159912  1
  O  O226  1  0.86846922  0.75601154  0.50252319  1
  O  O227  1  0.12378883  0.24884319  0.48806615  1
  O  O228  1  0.12658727  0.23789879  1.00608541  1
  O  O229  1  0.12939090  0.74285452  0.49372975  1
  O  O230  1  0.13481159  0.75443756  0.99111306  1
  O  O231  1  0.63802839  0.25763894  0.48977558  1
  O  O232  1  0.63754839  0.25310263  1.00592222  1
  O  O233  1  0.63920060  0.75133004  0.50412251  1
  O  O234  1  0.61911161  0.74861109  0.98664936  1
  O  O235  1  0.48656282  0.24173221  0.12291119  1
  O  O236  1  0.50304590  0.24788543  0.61746060  1
  O  O237  1  0.49096796  0.74436156  0.13170846  1
  O  O238  1  0.49492526  0.74327122  0.63019707  1
  O  O239  1  0.99262951  0.24651021  0.13183903  1
  O  O240  1  0.99396956  0.24827735  0.62676866  1
  O  O241  1  1.00374719  0.74172804  0.13285157  1
  O  O242  1  0.99413563  0.74160769  0.62696497  1
  O  O243  1  0.00724211  0.25510541  0.36962082  1
  O  O244  1  -0.00697392  0.25883966  0.86472507  1
  O  O245  1  0.01073740  0.75334396  0.36954815  1
  O  O246  1  0.00707698  0.74217375  0.86395862  1
  O  O247  1  0.50735976  0.25862881  0.38299879  1
  O  O248  1  0.51685828  0.25645740  0.87857272  1
  O  O249  1  0.49101197  0.76015540  0.36871355  1
  O  O250  1  0.50263653  0.75252577  0.86836482  1
  O  O251  1  0.25354146  0.14355772  0.49396390  1
  O  O252  1  0.24527152  0.12920178  0.98848629  1
  O  O253  1  0.24066180  0.63547715  0.50344855  1
  O  O254  1  0.25296448  0.63270768  0.98629376  1
  O  O255  1  0.75367996  0.13692696  0.48454254  1
  O  O256  1  0.74515624  0.13544420  0.99510151  1
  O  O257  1  0.74788089  0.63280781  0.48887405  1
  O  O258  1  0.74529424  0.62619046  0.98705518  1
  O  O259  1  0.25843286  0.37475157  -0.00127493  1
  O  O260  1  0.24296864  0.35096787  0.49515009  1
  O  O261  1  0.25262937  0.86516465  -0.00058670  1
  O  O262  1  0.25138381  0.86061102  0.50099076  1
  O  O263  1  0.76323648  0.36697516  -0.00491287  1
  O  O264  1  0.75600373  0.36967751  0.50465166  1
  O  O265  1  0.74836850  0.87430225  0.01175951  1
  O  O266  1  0.76224724  0.86581130  0.48568206  1
  O  O267  1  0.13537973  0.50390423  0.24151195  1
  O  O268  1  0.12466213  0.49480642  0.74200483  1
  O  O269  1  0.13582504  0.99847768  0.24588474  1
  O  O270  1  0.13618157  0.99247749  0.74399450  1
  O  O271  1  0.62994879  0.49149913  0.24460644  1
  O  O272  1  0.62284303  0.50668124  0.73321417  1
  O  O273  1  0.63090026  0.98759009  0.24940306  1
  O  O274  1  0.62588155  0.98974179  0.73645555  1
  O  O275  1  0.36787518  0.00674559  0.25584699  1
  O  O276  1  0.37163818  0.00624840  0.75508553  1
  O  O277  1  0.36798584  0.50642073  0.25803389  1
  O  O278  1  0.36115911  0.50855711  0.74820796  1
  O  O279  1  0.85979032  0.01119718  0.24516707  1
  O  O280  1  0.87430697  -0.00130267  0.73060673  1
  O  O281  1  0.86606810  0.49801579  0.25406080  1
  O  O282  1  0.88001003  0.49961566  0.75964923  1
  O  O283  1  0.11159842  0.36434055  0.37630971  1
  O  O284  1  0.11107224  0.38073891  0.86966175  1
  O  O285  1  0.11752771  0.86553136  0.36891540  1
  O  O286  1  0.13571760  0.86010275  0.85929239  1
  O  O287  1  0.61567967  0.36847806  0.36914998  1
  O  O288  1  0.62289089  0.35865273  0.87970981  1
  O  O289  1  0.61217568  0.87806057  0.36932056  1
  O  O290  1  0.61809508  0.86775388  0.86926297  1
  O  O291  1  0.37911775  0.13155924  0.13198525  1
  O  O292  1  0.38108574  0.12505478  0.63784580  1
  O  O293  1  0.37739668  0.63340032  0.13147294  1
  O  O294  1  0.38808382  0.63412520  0.62024743  1
  O  O295  1  0.87768925  0.13602695  0.13544113  1
  O  O296  1  0.88747998  0.13751818  0.61862764  1
  O  O297  1  0.88482685  0.62663805  0.12654303  1
  O  O298  1  0.88648118  0.62846886  0.62147174  1
  O  O299  1  0.26204261  0.25151966  0.12238378  1
  O  O300  1  0.25546190  0.24769600  0.61637186  1
  O  O301  1  0.25374444  0.74755888  0.11643315  1
  O  O302  1  0.25760584  0.74662116  0.61876820  1
  O  O303  1  0.75965936  0.24799283  0.12085987  1
  O  O304  1  0.75594390  0.25519302  0.61728329  1
  O  O305  1  0.74817498  0.75595055  0.12184686  1
  O  O306  1  0.76089934  0.73983952  0.61292606  1
  O  O307  1  0.23223842  0.24919374  0.37132166  1
  O  O308  1  0.26042551  0.23939669  0.86959489  1
  O  O309  1  0.23770222  0.75302643  0.38022375  1
  O  O310  1  0.24599332  0.74071486  0.87944427  1
  O  O311  1  0.74195122  0.24841039  0.38018887  1
  O  O312  1  0.74134632  0.24361963  0.88314025  1
  O  O313  1  0.75577749  0.73788976  0.38087853  1
  O  O314  1  0.73785136  0.74033787  0.87781574  1
  O  O315  1  0.00801347  0.12255203  0.00437763  1
  O  O316  1  -0.00325536  0.11678851  0.50151250  1
  O  O317  1  -0.00274645  0.62517865  0.01134323  1
  O  O318  1  0.00575793  0.61959308  0.50357081  1
  O  O319  1  0.49795396  0.11913880  0.01091447  1
  O  O320  1  0.50108784  0.10868223  0.50105708  1
  O  O321  1  0.50033005  0.61659369  0.00774919  1
  O  O322  1  0.50210097  0.61626034  0.50581978  1
  O  O323  1  0.50325092  0.38931291  0.49019822  1
  O  O324  1  0.49365179  0.38173056  0.99308654  1
  O  O325  1  0.49638238  0.88205219  0.49247795  1
  O  O326  1  0.49510853  0.88300381  0.99472405  1
  O  O327  1  0.99471564  0.38161746  0.49283247  1
  O  O328  1  0.98953657  0.37386377  0.99072449  1
  O  O329  1  0.99562907  0.87831052  0.48946711  1
  O  O330  1  0.98981343  0.88933522  1.02081523  1
  O  O331  1  0.49148968  0.49478617  0.38150878  1
  O  O332  1  0.50840740  0.49446111  0.89006731  1
  O  O333  1  0.49617197  0.99449507  0.38449975  1
  O  O334  1  0.49508418  0.99816736  0.88182338  1
  O  O335  1  0.99656763  0.49276252  0.37645940  1
  O  O336  1  0.99178835  0.49310374  0.87551023  1
  O  O337  1  1.00337481  0.98978809  0.37821530  1
  O  O338  1  1.01803686  0.99219965  0.86544123  1
  O  O339  1  0.01853816  0.01394898  0.14147932  1
  O  O340  1  0.00461612  0.01594908  0.61206448  1
  O  O341  1  0.01028194  0.50610529  0.12323380  1
  O  O342  1  0.00675241  0.50610831  0.61905969  1
  O  O343  1  0.49621344  0.00666566  0.11775386  1
  O  O344  1  0.49890824  -0.00142411  0.61236828  1
  O  O345  1  0.50471468  0.50363445  0.11785234  1
  O  O346  1  0.50660225  0.50545283  0.61879622  1
  O  O347  1  0.25735767  0.38913037  0.24249031  1
  O  O348  1  0.23619495  0.39851709  0.76979563  1
  O  O349  1  0.24536145  0.88620832  0.24882356  1
  O  O350  1  0.24794387  0.88708640  0.74763446  1
  O  O351  1  0.74023677  0.38765506  0.25615613  1
  O  O352  1  0.75675396  0.37006114  0.73699533  1
  O  O353  1  0.74143028  0.88044846  0.25213844  1
  O  O354  1  0.73399066  0.86677711  0.75182732  1
  O  O355  1  0.25764392  0.11557813  0.25435088  1
  O  O356  1  0.25659835  0.11544587  0.75404922  1
  O  O357  1  0.26050000  0.61456081  0.24628390  1
  O  O358  1  0.24484671  0.61603691  0.76091419  1
  O  O359  1  0.75348063  0.11969524  0.25630411  1
  O  O360  1  0.75446220  0.13184142  0.76870406  1
  O  O361  1  0.75017250  0.61386330  0.25523827  1
  O  O362  1  0.75076033  0.63013470  0.76338408  1
  O  O363  1  0.37792389  0.11527814  0.36784988  1
  O  O364  1  0.37396304  0.11470052  0.86758227  1
  O  O365  1  0.37709275  0.61411152  0.36630825  1
  O  O366  1  0.36293452  0.63026457  0.87306302  1
  O  O367  1  0.86396966  0.13386904  0.36087380  1
  O  O368  1  0.86049612  0.12624406  0.88359822  1
  O  O369  1  0.86666880  0.61497932  0.37131800  1
  O  O370  1  0.86661302  0.61425812  0.87132047  1
  O  O371  1  0.12442448  0.39028085  0.12417794  1
  O  O372  1  0.12281593  0.38856555  0.63269881  1
  O  O373  1  0.12930398  0.88501835  0.13137133  1
  O  O374  1  0.13007553  0.87336177  0.63788234  1
  O  O375  1  0.61680312  0.38574787  0.13440344  1
  O  O376  1  0.63586544  0.39158278  0.62051344  1
  O  O377  1  0.63239139  0.87558760  0.13447461  1
  O  O378  1  0.61973695  0.88610652  0.63297782  1
  O  O379  1  0.11294943  0.24686732  0.25411650  1
  O  O380  1  0.11985592  0.26643460  0.74322701  1
  O  O381  1  0.12038928  0.75037336  0.25669376  1
  O  O382  1  0.11930205  0.75260588  0.75407864  1
  O  O383  1  0.62955190  0.26430438  0.25702567  1
  O  O384  1  0.62986807  0.24897604  0.75793485  1
  O  O385  1  0.61721385  0.76156980  0.24773889  1
  O  O386  1  0.61583524  0.75428920  0.75779234  1
  O  O387  1  0.36925296  0.23853324  0.24553282  1
  O  O388  1  0.38092448  0.22643566  0.75745012  1
  O  O389  1  0.37576543  0.74172333  0.24559170  1
  O  O390  1  0.38245606  0.75393291  0.74200272  1
  O  O391  1  0.87936911  0.24728570  0.24364639  1
  O  O392  1  0.88708641  0.25646021  0.73786278  1
  O  O393  1  0.89026095  0.74514243  0.25234154  1
  O  O394  1  0.88287661  0.74420304  0.73797661  1
  O  O395  1  0.37947245  0.50453805  0.48921875  1
  O  O396  1  0.38361777  0.49028746  1.00499266  1
  O  O397  1  0.38368778  0.99907889  0.49315890  1
  O  O398  1  0.38189672  1.00022779  0.99248766  1
  O  O399  1  0.88087782  0.49556328  0.49369560  1
  O  O400  1  0.87713430  0.49166794  0.99086913  1
  O  O401  1  0.88781533  0.98428399  0.50943883  1
  O  O402  1  0.88286456  0.99319604  1.02207156  1
  O  O403  1  0.12863194  0.01106249  0.00833618  1
  O  O404  1  0.11278351  -0.00812844  0.50045603  1
  O  O405  1  0.12314868  0.49903205  0.01143746  1
  O  O406  1  0.12318850  0.50522237  0.50518693  1
  O  O407  1  0.60900620  0.00317907  0.00455743  1
  O  O408  1  0.61371988  -0.00877429  0.51293638  1
  O  O409  1  0.61860343  0.49770525  0.00945138  1
  O  O410  1  0.61590668  0.50506583  0.50672412  1
  O  O411  1  0.37590826  0.36738830  0.11468963  1
  O  O412  1  0.36122959  0.36478294  0.67425568  1
  O  O413  1  0.37183916  0.86064704  0.12754463  1
  O  O414  1  0.37398132  0.86076346  0.62209407  1
  O  O415  1  0.88082711  0.36684741  0.11572019  1
  O  O416  1  0.86943931  0.36909549  0.61686241  1
  O  O417  1  0.85520654  0.86509433  0.14483387  1
  O  O418  1  0.87794045  0.86125054  0.61128728  1
  O  O419  1  0.12159659  0.13880319  0.37057383  1
  O  O420  1  0.13933874  0.12575933  0.88186199  1
  O  O421  1  0.11966729  0.63037487  0.38640249  1
  O  O422  1  0.13293090  0.63718752  0.87147736  1
  O  O423  1  0.63032409  0.14005046  0.36556365  1
  O  O424  1  0.62848208  0.13989436  0.87864658  1
  O  O425  1  0.63620456  0.61963231  0.37388182  1
  O  O426  1  0.62811406  0.63111822  0.87581944  1
