# generated using pymatgen
data_V85Zn86O256
_symmetry_space_group_name_H-M   'P 1'
_cell_length_a   16.97728403
_cell_length_b   16.95879797
_cell_length_c   16.97668546
_cell_angle_alpha   89.97008380
_cell_angle_beta   90.01133615
_cell_angle_gamma   89.93219213
_symmetry_Int_Tables_number   1
_chemical_formula_structural   V85Zn86O256
_chemical_formula_sum   'V85 Zn86 O256'
_cell_volume   4887.82683528
_cell_formula_units_Z   1
loop_
 _symmetry_equiv_pos_site_id
 _symmetry_equiv_pos_as_xyz
  1  'x, y, z'
loop_
 _atom_site_type_symbol
 _atom_site_label
 _atom_site_symmetry_multiplicity
 _atom_site_fract_x
 _atom_site_fract_y
 _atom_site_fract_z
 _atom_site_occupancy
  V  V0  1  0.75038371  0.00101936  0.75175628  1
  V  V1  1  0.37267309  0.11603943  0.75105508  1
  V  V2  1  0.12502574  0.74869458  0.37346959  1
  V  V3  1  -0.00237517  0.62610007  0.12486219  1
  V  V4  1  0.25677130  0.11773923  0.37864828  1
  V  V5  1  0.44271984  0.18343408  0.08217178  1
  V  V6  1  -0.00381808  0.25520567  0.25000807  1
  V  V7  1  0.37902415  0.74347226  0.12229529  1
  V  V8  1  0.62775474  0.62056401  -0.00167663  1
  V  V9  1  0.11902343  -0.00255450  0.12463994  1
  V  V10  1  0.86834908  0.75758976  0.12666841  1
  V  V11  1  -0.00278755  0.00103598  0.49558062  1
  V  V12  1  0.74729236  0.12342335  0.87415379  1
  V  V13  1  0.62323648  0.00018714  0.62079824  1
  V  V14  1  0.77271172  0.25084642  0.00215875  1
  V  V15  1  0.62830350  0.87574964  0.24787682  1
  V  V16  1  0.25387756  0.50130243  0.24793423  1
  V  V17  1  0.87324246  0.87796325  0.49614337  1
  V  V18  1  0.50207987  0.74789346  0.24791009  1
  V  V19  1  0.12386001  0.37667767  0.25349936  1
  V  V20  1  0.87875493  0.74763615  0.62513875  1
  V  V21  1  0.50093543  0.87986537  0.87650069  1
  V  V22  1  0.38001263  0.12829545  0.25258264  1
  V  V23  1  0.48706074  0.87659076  0.37339809  1
  V  V24  1  0.49829237  0.50476666  0.00673496  1
  V  V25  1  0.49408870  0.12819588  0.62074238  1
  V  V26  1  0.74556095  0.25025063  0.49403280  1
  V  V27  1  0.00015634  0.50189914  0.49558990  1
  V  V28  1  0.05781579  0.30366705  0.71001057  1
  V  V29  1  0.62543135  0.12820175  0.00659290  1
  V  V30  1  0.50116184  0.37907661  0.87978614  1
  V  V31  1  0.25424589  0.75531881  0.50389380  1
  V  V32  1  0.87589002  0.25178342  0.62424449  1
  V  V33  1  0.12726406  0.12180389  0.49895710  1
  V  V34  1  0.13315371  0.25692858  0.88976307  1
  V  V35  1  0.87529131  0.88579986  0.00095839  1
  V  V36  1  0.62929850  0.74510988  0.87439153  1
  V  V37  1  0.25800192  0.36258712  0.12199671  1
  V  V38  1  0.62916238  0.00326149  0.12759614  1
  V  V39  1  0.74820936  0.87668130  0.62180267  1
  V  V40  1  -0.00873722  0.49455829  0.00001848  1
  V  V41  1  0.49549532  0.37177673  0.38192587  1
  V  V42  1  0.87014319  0.49941115  0.37141013  1
  V  V43  1  0.74670567  0.75420364  0.00341024  1
  V  V44  1  0.76051165  0.37393207  0.12425533  1
  V  V45  1  0.62984794  0.36305292  0.25558084  1
  V  V46  1  0.49855213  -0.00017794  0.00448354  1
  V  V47  1  0.12463251  0.50004792  0.12467737  1
  V  V48  1  0.86469371  0.62194392  0.24874539  1
  V  V49  1  0.87478878  0.12878847  0.75054950  1
  V  V50  1  0.12315890  0.62860723  0.50345688  1
  V  V51  1  0.87790387  0.37571075  0.49203689  1
  V  V52  1  0.48562042  -0.00375983  0.49411666  1
  V  V53  1  0.00157532  0.12442019  0.62972399  1
  V  V54  1  -0.00198515  0.74896144  0.24614639  1
  V  V55  1  0.37600257  0.75478247  0.62589991  1
  V  V56  1  0.62134232  0.12642007  0.49219712  1
  V  V57  1  0.61715377  0.62253300  0.49788223  1
  V  V58  1  0.12348569  0.24909457  0.37265097  1
  V  V59  1  -0.00606201  0.87901201  0.37145919  1
  V  V60  1  0.37552251  0.61913284  0.74954321  1
  V  V61  1  0.24571071  0.74996586  -0.00925945  1
  V  V62  1  0.62727097  0.50286087  0.13717884  1
  V  V63  1  0.37699228  0.87509233  -0.00030261  1
  V  V64  1  0.25829556  -0.00414435  0.25427426  1
  V  V65  1  0.75234791  0.12007507  0.37522032  1
  V  V66  1  0.62769991  0.25145875  0.87661776  1
  V  V67  1  0.37997398  0.62451751  0.25348516  1
  V  V68  1  -0.00698379  0.36456420  0.88157662  1
  V  V69  1  0.75816868  -0.00438166  0.25090411  1
  V  V70  1  0.26073682  0.26361424  0.49970094  1
  V  V71  1  0.12632785  -0.00854839  0.63644346  1
  V  V72  1  -0.00305559  0.12656815  0.12521576  1
  V  V73  1  0.12401386  0.87430975  0.24689549  1
  V  V74  1  0.86905461  0.62492377  0.76206524  1
  V  V75  1  0.13384621  0.12802533  0.00743631  1
  V  V76  1  0.74903939  0.37817765  0.62597944  1
  V  V77  1  0.62561181  0.87613764  0.75026362  1
  V  V78  1  0.12301414  0.62655274  -0.00862584  1
  V  V79  1  0.49746027  0.25246329  0.74454787  1
  V  V80  1  0.61953078  0.50136157  0.62291432  1
  V  V81  1  0.87673978  0.12711178  0.25309684  1
  V  V82  1  -0.00268776  0.76154819  0.77381009  1
  V  V83  1  0.24890614  0.87107861  0.12540105  1
  V  V84  1  0.74854163  0.74781385  0.49630123  1
  Zn  Zn85  1  0.37042118  0.49949604  0.87913175  1
  Zn  Zn86  1  -0.00007903  0.62245364  0.63314680  1
  Zn  Zn87  1  0.22803540  0.46404743  0.75735860  1
  Zn  Zn88  1  0.74397193  0.51008280  0.75806735  1
  Zn  Zn89  1  0.24802964  0.87081148  0.63252928  1
  Zn  Zn90  1  0.24828846  0.61877720  0.87232271  1
  Zn  Zn91  1  0.15340370  0.83291252  0.80159554  1
  Zn  Zn92  1  0.62278913  0.74947924  0.37451720  1
  Zn  Zn93  1  0.25753947  0.12501371  0.88744460  1
  Zn  Zn94  1  0.50463375  0.24381604  0.25197433  1
  Zn  Zn95  1  0.91443926  -0.02536240  0.85768160  1
  Zn  Zn96  1  0.50322124  0.75029434  0.74985844  1
  Zn  Zn97  1  0.86794130  0.49347182  0.88136137  1
  Zn  Zn98  1  0.12240759  0.47361453  0.62700327  1
  Zn  Zn99  1  0.50262771  0.62665220  0.62840619  1
  Zn  Zn100  1  0.37609211  0.48788208  0.38119148  1
  Zn  Zn101  1  0.74448356  0.61989684  0.37230784  1
  Zn  Zn102  1  0.62706585  0.37856898  0.75153205  1
  Zn  Zn103  1  0.37896343  0.36241448  0.00904066  1
  Zn  Zn104  1  0.24890567  0.62254357  0.37422017  1
  Zn  Zn105  1  0.25388451  -0.01066489  0.76538076  1
  Zn  Zn106  1  0.31631716  0.31650855  0.66077535  1
  Zn  Zn107  1  0.18991363  0.18484140  0.19124377  1
  Zn  Zn108  1  0.19070612  0.18338532  0.68358832  1
  Zn  Zn109  1  0.18797590  0.68598526  0.18246404  1
  Zn  Zn110  1  0.19895840  0.60854131  0.67687842  1
  Zn  Zn111  1  0.69328650  0.18876743  0.18399856  1
  Zn  Zn112  1  0.68418655  0.18969096  0.68244422  1
  Zn  Zn113  1  0.68522826  0.68626690  0.18510337  1
  Zn  Zn114  1  0.68920093  0.68945703  0.68453154  1
  Zn  Zn115  1  0.31250202  0.30845314  0.31089731  1
  Zn  Zn116  1  0.31641294  0.30810850  0.82827942  1
  Zn  Zn117  1  0.31279539  0.80751346  0.31228762  1
  Zn  Zn118  1  0.32322423  0.81090779  0.81198634  1
  Zn  Zn119  1  0.80963674  0.31160311  0.31149486  1
  Zn  Zn120  1  0.81339522  0.31169914  0.81132166  1
  Zn  Zn121  1  0.81156621  0.81198812  0.31283952  1
  Zn  Zn122  1  0.81081922  0.81255470  0.81571122  1
  Zn  Zn123  1  0.18536849  0.44045413  0.43312511  1
  Zn  Zn124  1  0.18739545  0.43764610  0.94126961  1
  Zn  Zn125  1  0.18394169  0.93512643  0.43832481  1
  Zn  Zn126  1  0.19087473  0.94745771  0.94109146  1
  Zn  Zn127  1  0.68632141  0.43870514  0.43727973  1
  Zn  Zn128  1  0.69088776  0.43686224  0.94177508  1
  Zn  Zn129  1  0.68137350  0.93821548  0.43276480  1
  Zn  Zn130  1  0.69002970  0.93682572  0.93952661  1
  Zn  Zn131  1  0.30879986  0.05300368  0.06406171  1
  Zn  Zn132  1  0.30998940  0.06227579  0.56772011  1
  Zn  Zn133  1  0.31200224  0.56370570  0.06451956  1
  Zn  Zn134  1  0.32218734  0.47363424  0.56952670  1
  Zn  Zn135  1  0.80972937  0.06836172  0.06933007  1
  Zn  Zn136  1  0.81349176  0.06261113  0.56204234  1
  Zn  Zn137  1  0.80655956  0.56425084  0.06346568  1
  Zn  Zn138  1  0.80975917  0.56382104  0.56405976  1
  Zn  Zn139  1  0.44318032  0.43452766  0.19174886  1
  Zn  Zn140  1  0.44326238  0.43975623  0.69048630  1
  Zn  Zn141  1  0.43888553  0.93753981  0.18474388  1
  Zn  Zn142  1  0.43964034  0.93573705  0.68364817  1
  Zn  Zn143  1  0.93979407  0.43895942  0.19079980  1
  Zn  Zn144  1  0.93372820  0.44431123  0.68235930  1
  Zn  Zn145  1  0.93505757  0.93689250  0.18183185  1
  Zn  Zn146  1  0.93633713  0.93611762  0.68255119  1
  Zn  Zn147  1  0.06580811  0.06226256  0.31029079  1
  Zn  Zn148  1  0.06865163  0.06864154  0.81782674  1
  Zn  Zn149  1  0.05666434  0.56187132  0.31305687  1
  Zn  Zn150  1  0.05391210  0.56108165  0.81242353  1
  Zn  Zn151  1  0.56292455  0.06039211  0.31343825  1
  Zn  Zn152  1  0.56191103  0.06225005  0.81245735  1
  Zn  Zn153  1  0.55866729  0.56072612  0.31588236  1
  Zn  Zn154  1  0.56234635  0.56275240  0.81264034  1
  Zn  Zn155  1  0.43891296  0.19201692  0.43023993  1
  Zn  Zn156  1  0.44336018  0.18490841  0.92129392  1
  Zn  Zn157  1  0.40214926  0.63404805  0.47566438  1
  Zn  Zn158  1  0.44319460  0.68560855  0.93474433  1
  Zn  Zn159  1  0.93671538  0.18635699  0.43353590  1
  Zn  Zn160  1  0.95416127  0.15968268  0.92489803  1
  Zn  Zn161  1  0.93648871  0.68710342  0.43482927  1
  Zn  Zn162  1  0.93018241  0.68433719  0.94344169  1
  Zn  Zn163  1  0.06061245  0.31339283  0.06743853  1
  Zn  Zn164  1  0.05893154  0.30886455  0.54088704  1
  Zn  Zn165  1  0.05767882  0.81588133  -0.03719252  1
  Zn  Zn166  1  0.06095590  0.81221299  0.56245314  1
  Zn  Zn167  1  0.57355845  0.32042223  0.06229823  1
  Zn  Zn168  1  0.56223366  0.31303021  0.56130563  1
  Zn  Zn169  1  0.56560245  0.81384515  0.06622815  1
  Zn  Zn170  1  0.55856068  0.81133685  0.55728604  1
  O  O171  1  0.11980469  0.11822030  0.12837537  1
  O  O172  1  0.11723267  0.11628408  0.61948530  1
  O  O173  1  0.11684889  0.61766587  0.12026764  1
  O  O174  1  0.11494794  0.64146012  0.60738898  1
  O  O175  1  0.62944276  0.11716930  0.11952709  1
  O  O176  1  0.61544623  0.11949612  0.61441528  1
  O  O177  1  0.63030244  0.60866910  0.11968570  1
  O  O178  1  0.62744194  0.61907084  0.61775578  1
  O  O179  1  0.38877771  0.37169192  0.36819293  1
  O  O180  1  0.38997269  0.37268633  0.88840586  1
  O  O181  1  0.38834380  0.87489543  0.36708203  1
  O  O182  1  0.39392170  0.86987678  0.88292222  1
  O  O183  1  0.86813092  0.38088589  0.38525587  1
  O  O184  1  0.88970919  0.36922136  0.87320177  1
  O  O185  1  0.88721100  0.87156037  0.37930437  1
  O  O186  1  0.86822102  0.87835752  0.89225126  1
  O  O187  1  0.24265524  0.00544149  0.36696256  1
  O  O188  1  0.25038306  0.01341540  0.87566291  1
  O  O189  1  0.24914232  0.50072938  0.35771403  1
  O  O190  1  0.25246608  0.49850223  0.87035064  1
  O  O191  1  0.74635743  0.01213146  0.36765169  1
  O  O192  1  0.74288801  0.00801376  0.86341957  1
  O  O193  1  0.76550767  0.50230126  0.38110441  1
  O  O194  1  0.75678679  0.48342481  0.86752800  1
  O  O195  1  0.24371067  0.49570644  0.13429146  1
  O  O196  1  0.23556216  0.50373014  0.63479101  1
  O  O197  1  0.24243074  0.98965711  0.13521185  1
  O  O198  1  0.23516873  0.99560316  0.62767699  1
  O  O199  1  0.73701763  0.48706512  0.11723294  1
  O  O200  1  0.74472096  0.49111541  0.62876517  1
  O  O201  1  0.73838993  1.00415188  0.13697362  1
  O  O202  1  0.74424860  0.99641437  0.63053599  1
  O  O203  1  0.01057723  0.36725600  0.24721154  1
  O  O204  1  -0.00329871  0.37391020  0.75650054  1
  O  O205  1  0.00220694  0.87073314  0.25498514  1
  O  O206  1  -0.01847262  0.86200430  0.75750628  1
  O  O207  1  0.51681465  0.36778885  0.25157408  1
  O  O208  1  0.50363628  0.36775060  0.76055147  1
  O  O209  1  0.50662771  0.87469115  0.25641444  1
  O  O210  1  0.50861824  0.87784409  0.75936067  1
  O  O211  1  0.48878246  0.12328110  0.25551119  1
  O  O212  1  0.49461312  0.12945823  0.74143196  1
  O  O213  1  0.49403246  0.63607460  0.25220173  1
  O  O214  1  0.49224550  0.63085673  0.75115777  1
  O  O215  1  0.99413052  0.13149248  0.24813599  1
  O  O216  1  0.99001547  0.12179254  0.73543500  1
  O  O217  1  0.98994017  0.63010654  0.24423596  1
  O  O218  1  0.98405797  0.64075755  0.75241145  1
  O  O219  1  0.39175108  0.24013762  0.01021657  1
  O  O220  1  0.35829725  0.24684633  0.49219443  1
  O  O221  1  0.37180197  0.75283567  0.00679966  1
  O  O222  1  0.36705446  0.73814245  0.51353789  1
  O  O223  1  0.86892213  0.23619965  -0.01024914  1
  O  O224  1  0.87174305  0.25724051  0.50267288  1
  O  O225  1  0.86405179  0.75458036  0.00849768  1
  O  O226  1  0.86869145  0.75533315  0.50561684  1
  O  O227  1  0.13267582  0.24069530  0.48879699  1
  O  O228  1  0.12621284  0.24709542  0.99587292  1
  O  O229  1  0.12291116  0.74752718  0.48908193  1
  O  O230  1  0.13452766  0.73943129  1.00858236  1
  O  O231  1  0.63495575  0.23855743  0.50444486  1
  O  O232  1  0.62813635  0.24453193  0.99145847  1
  O  O233  1  0.63397911  0.74415535  0.49871058  1
  O  O234  1  0.62909631  0.74379108  0.99750485  1
  O  O235  1  0.50782475  0.24772053  0.12893041  1
  O  O236  1  0.50831212  0.24088678  0.63296612  1
  O  O237  1  0.49201210  0.75807593  0.13710298  1
  O  O238  1  0.48956833  0.75088854  0.62506794  1
  O  O239  1  1.00589560  0.24336214  0.14291670  1
  O  O240  1  1.00030264  0.24511086  0.63058844  1
  O  O241  1  0.98459394  0.74051411  0.13314106  1
  O  O242  1  0.98349448  0.75451911  0.62584831  1
  O  O243  1  0.01544815  0.24256887  0.36776793  1
  O  O244  1  0.01579426  0.25440699  0.87851345  1
  O  O245  1  0.00468082  0.75767811  0.36706130  1
  O  O246  1  -0.00450267  0.75336477  0.87800379  1
  O  O247  1  0.50273267  0.26247956  0.36833421  1
  O  O248  1  0.51219179  0.25655311  0.86692821  1
  O  O249  1  0.50318592  0.76608573  0.35899095  1
  O  O250  1  0.51472025  0.76055130  0.87701840  1
  O  O251  1  0.24450488  0.12336469  0.49237016  1
  O  O252  1  0.23814003  0.12615203  1.01174611  1
  O  O253  1  0.23167362  0.64212362  0.49076061  1
  O  O254  1  0.24144933  0.63193494  0.99948356  1
  O  O255  1  0.74484932  0.12838236  0.49359531  1
  O  O256  1  0.74543644  0.13340876  0.99525717  1
  O  O257  1  0.74307229  0.63506955  0.49890410  1
  O  O258  1  0.73695049  0.63565496  1.00265659  1
  O  O259  1  0.25457779  0.37876025  0.01816347  1
  O  O260  1  0.24710867  0.36482564  0.49514502  1
  O  O261  1  0.25732681  0.86797913  0.00775629  1
  O  O262  1  0.24110317  0.85946566  0.50225497  1
  O  O263  1  0.74808128  0.36409011  0.01468778  1
  O  O264  1  0.75424010  0.36674570  0.50619448  1
  O  O265  1  0.75266528  0.86153247  0.00180027  1
  O  O266  1  0.75309696  0.87131968  0.50116732  1
  O  O267  1  0.12847761  0.49352113  0.24655219  1
  O  O268  1  0.12786304  0.52360531  0.73727097  1
  O  O269  1  0.13516125  0.99485873  0.24402139  1
  O  O270  1  0.12486425  1.00783468  0.73870765  1
  O  O271  1  0.62459843  0.49520333  0.23904049  1
  O  O272  1  0.62844347  0.49869116  0.74094429  1
  O  O273  1  0.63335278  0.99605073  0.24496711  1
  O  O274  1  0.62950205  0.99626277  0.74110153  1
  O  O275  1  0.36264052  0.00513111  0.24279700  1
  O  O276  1  0.37611647  0.01285113  0.74234269  1
  O  O277  1  0.36903292  0.50814075  0.24711549  1
  O  O278  1  0.38124526  0.51440892  0.75520624  1
  O  O279  1  0.86317997  0.00468860  0.24656439  1
  O  O280  1  0.86863083  0.00741522  0.74940886  1
  O  O281  1  0.88128389  0.50941476  0.25982218  1
  O  O282  1  0.87573640  0.51740754  0.74905159  1
  O  O283  1  0.13066047  0.36562403  0.36150321  1
  O  O284  1  0.11883339  0.36184626  0.88063318  1
  O  O285  1  0.11413311  0.86551275  0.36843171  1
  O  O286  1  0.11665018  0.87979025  0.89312719  1
  O  O287  1  0.62543287  0.38092316  0.35850940  1
  O  O288  1  0.61628040  0.36669259  0.87628486  1
  O  O289  1  0.61797851  0.87352944  0.36120460  1
  O  O290  1  0.61844600  0.87061095  0.87112604  1
  O  O291  1  0.37598179  0.12067312  0.13273379  1
  O  O292  1  0.38852375  0.12360665  0.63101549  1
  O  O293  1  0.37155448  0.63779715  0.13417244  1
  O  O294  1  0.38132852  0.63615696  0.64078305  1
  O  O295  1  0.88297464  0.12264678  0.14089209  1
  O  O296  1  0.88268131  0.13046995  0.62846183  1
  O  O297  1  0.87703241  0.62976326  0.13202612  1
  O  O298  1  0.87673229  0.63425221  0.63174955  1
  O  O299  1  0.24691914  0.26468042  0.13163507  1
  O  O300  1  0.24814163  0.24265319  0.60360972  1
  O  O301  1  0.25835074  0.75499476  0.11838961  1
  O  O302  1  0.26275139  0.75021577  0.61783197  1
  O  O303  1  0.75210174  0.26138583  0.11530108  1
  O  O304  1  0.75485666  0.25394665  0.61136446  1
  O  O305  1  0.75770219  0.74486899  0.11771980  1
  O  O306  1  0.75855547  0.75671925  0.61425998  1
  O  O307  1  0.24180103  0.24149168  0.38161681  1
  O  O308  1  0.23759180  0.24232900  0.88102452  1
  O  O309  1  0.23886235  0.75036297  0.37820227  1
  O  O310  1  0.25255654  0.75216743  0.88804638  1
  O  O311  1  0.75533826  0.23818310  0.38714576  1
  O  O312  1  0.74035454  0.24875561  0.88113670  1
  O  O313  1  0.74909985  0.74898403  0.38728194  1
  O  O314  1  0.73606648  0.75539885  0.88380154  1
  O  O315  1  0.01413984  0.13713362  0.02332508  1
  O  O316  1  0.00348466  0.11979670  0.50815022  1
  O  O317  1  0.00543885  0.62040575  0.00720696  1
  O  O318  1  0.00465959  0.61913234  0.49909150  1
  O  O319  1  0.50068077  0.12151224  0.00752470  1
  O  O320  1  0.50468564  0.12134476  0.50194357  1
  O  O321  1  0.51450382  0.61816081  0.00013017  1
  O  O322  1  0.51518904  0.63203108  0.50362876  1
  O  O323  1  0.51196519  0.37276371  0.48004460  1
  O  O324  1  0.50156105  0.38364995  0.99645602  1
  O  O325  1  0.50402379  0.88145048  0.48243511  1
  O  O326  1  0.49991015  0.88222780  0.99567159  1
  O  O327  1  0.98828723  0.38445115  0.49743591  1
  O  O328  1  1.00310281  0.38255670  0.99499373  1
  O  O329  1  0.99542034  0.88251670  0.49123122  1
  O  O330  1  0.97428236  0.87487668  1.01351006  1
  O  O331  1  0.49587880  0.47946283  0.36301711  1
  O  O332  1  0.50157184  0.49165798  0.88561001  1
  O  O333  1  0.50320939  0.98718633  0.38088436  1
  O  O334  1  0.51052688  0.99406783  0.89242967  1
  O  O335  1  0.98792365  0.50397393  0.38695754  1
  O  O336  1  0.99572700  0.48817986  0.88433382  1
  O  O337  1  1.00785421  0.99156848  0.38314636  1
  O  O338  1  0.98567075  1.05000737  0.88883595  1
  O  O339  1  0.00888959  0.01161272  0.13704881  1
  O  O340  1  0.00829417  0.00554202  0.61974558  1
  O  O341  1  0.00528615  0.50467062  0.11960491  1
  O  O342  1  0.00353651  0.50253016  0.61054672  1
  O  O343  1  0.51345713  -0.00452705  0.11449829  1
  O  O344  1  0.50595050  0.00569701  0.61527109  1
  O  O345  1  0.51709728  0.49240681  0.11935009  1
  O  O346  1  0.51685931  0.50482404  0.62738690  1
  O  O347  1  0.24516749  0.38130903  0.24253999  1
  O  O348  1  0.25664738  0.35632714  0.74772365  1
  O  O349  1  0.24567863  0.87901566  0.24687789  1
  O  O350  1  0.24711595  0.87269167  0.75217216  1
  O  O351  1  0.74058942  0.36953991  0.23938954  1
  O  O352  1  0.74860331  0.36728087  0.73249310  1
  O  O353  1  0.74290897  0.88525393  0.25767943  1
  O  O354  1  0.74586881  0.88169806  0.74369314  1
  O  O355  1  0.25614686  0.11516207  0.25807065  1
  O  O356  1  0.26899348  0.12572975  0.74324711  1
  O  O357  1  0.25645478  0.61716676  0.24812158  1
  O  O358  1  0.27035758  0.63858529  0.75772841  1
  O  O359  1  0.75758470  0.12192175  0.25737752  1
  O  O360  1  0.75441904  0.11928435  0.74861093  1
  O  O361  1  0.76106837  0.62854995  0.25175564  1
  O  O362  1  0.76509604  0.62902508  0.74627072  1
  O  O363  1  0.36358574  0.12402779  0.36876915  1
  O  O364  1  0.37693575  0.12480433  0.85590187  1
  O  O365  1  0.36986790  0.63101051  0.35783269  1
  O  O366  1  0.37573906  0.62504330  0.86534837  1
  O  O367  1  0.86810991  0.12313441  0.36443443  1
  O  O368  1  0.85987847  0.13879233  0.85561371  1
  O  O369  1  0.87273314  0.61898004  0.36556000  1
  O  O370  1  0.87293114  0.62363966  0.86470405  1
  O  O371  1  0.13358500  0.38068174  0.13559581  1
  O  O372  1  0.10913950  0.35682298  0.63495516  1
  O  O373  1  0.13073244  0.88294703  0.13405974  1
  O  O374  1  0.12098643  0.88855454  0.62535982  1
  O  O375  1  0.63484093  0.38290684  0.13676499  1
  O  O376  1  0.63276153  0.38314631  0.62367554  1
  O  O377  1  0.62302379  0.88389874  0.13951873  1
  O  O378  1  0.62949390  0.87978699  0.62820037  1
  O  O379  1  0.12155810  0.25612312  0.25665614  1
  O  O380  1  0.12236023  0.23965564  0.76068482  1
  O  O381  1  0.11932006  0.75401611  0.25350979  1
  O  O382  1  0.09499085  0.75072180  0.75083779  1
  O  O383  1  0.62915497  0.25997904  0.24900751  1
  O  O384  1  0.61672500  0.24973194  0.75779081  1
  O  O385  1  0.61912367  0.75726641  0.24752853  1
  O  O386  1  0.62657141  0.75715098  0.75736077  1
  O  O387  1  0.37462139  0.23290000  0.24863267  1
  O  O388  1  0.38936197  0.24217710  0.74924806  1
  O  O389  1  0.38197424  0.74495288  0.24157107  1
  O  O390  1  0.38324344  0.74545126  0.74058021  1
  O  O391  1  0.88604247  0.24225444  0.25933948  1
  O  O392  1  0.86883195  0.24051105  0.73628737  1
  O  O393  1  0.87683517  0.74386638  0.24422593  1
  O  O394  1  0.87668182  0.74378170  0.74584506  1
  O  O395  1  0.36275174  0.53001124  0.48474355  1
  O  O396  1  0.39040935  0.50451750  1.00378561  1
  O  O397  1  0.38710961  1.00360636  0.50484158  1
  O  O398  1  0.38728423  0.98978172  1.00896920  1
  O  O399  1  0.87998986  0.49427728  0.49602137  1
  O  O400  1  0.88815738  0.50885811  1.00188851  1
  O  O401  1  0.88948620  0.99540686  0.50540529  1
  O  O402  1  0.85962395  0.98531959  1.00846778  1
  O  O403  1  0.12707946  0.01083640  0.01949510  1
  O  O404  1  0.11454559  0.00355724  0.50836358  1
  O  O405  1  0.11550641  0.50684959  0.00721098  1
  O  O406  1  0.11709678  0.50915810  0.49766270  1
  O  O407  1  0.62323139  0.00651642  0.00975273  1
  O  O408  1  0.61815917  0.00784416  0.50434833  1
  O  O409  1  0.61918484  0.50493604  0.00729246  1
  O  O410  1  0.63483467  0.51159177  0.50886296  1
  O  O411  1  0.36275120  0.37650078  0.12811723  1
  O  O412  1  0.38427277  0.38802050  0.61196173  1
  O  O413  1  0.37010683  0.86415026  0.12075001  1
  O  O414  1  0.37237351  0.86003397  0.62925045  1
  O  O415  1  0.85901035  0.38243708  0.13281443  1
  O  O416  1  0.86845506  0.37205630  0.61360543  1
  O  O417  1  0.86856774  0.86346617  0.12211409  1
  O  O418  1  0.86631506  0.87005492  0.61602378  1
  O  O419  1  0.13573721  0.13020856  0.37709799  1
  O  O420  1  0.12735257  0.13837235  0.89216193  1
  O  O421  1  0.11972748  0.63746436  0.37770795  1
  O  O422  1  0.12306962  0.62171506  0.88934357  1
  O  O423  1  0.63251639  0.12124020  0.38611980  1
  O  O424  1  0.62824692  0.13328613  0.88164802  1
  O  O425  1  0.62671050  0.62707528  0.38157322  1
  O  O426  1  0.62234700  0.63411168  0.88386940  1
