# generated using pymatgen
data_V85Zn86O256
_symmetry_space_group_name_H-M   'P 1'
_cell_length_a   16.94622426
_cell_length_b   16.94392414
_cell_length_c   16.94064013
_cell_angle_alpha   89.98785597
_cell_angle_beta   90.01904216
_cell_angle_gamma   90.01452390
_symmetry_Int_Tables_number   1
_chemical_formula_structural   V85Zn86O256
_chemical_formula_sum   'V85 Zn86 O256'
_cell_volume   4864.25929133
_cell_formula_units_Z   1
loop_
 _symmetry_equiv_pos_site_id
 _symmetry_equiv_pos_as_xyz
  1  'x, y, z'
loop_
 _atom_site_type_symbol
 _atom_site_label
 _atom_site_symmetry_multiplicity
 _atom_site_fract_x
 _atom_site_fract_y
 _atom_site_fract_z
 _atom_site_occupancy
  V  V0  1  0.87469981  0.13260690  0.74697548  1
  V  V1  1  0.60550053  0.51871297  0.61922529  1
  V  V2  1  0.12544729  0.75133505  0.87552035  1
  V  V3  1  0.12534456  0.49659352  0.64428448  1
  V  V4  1  -0.00079621  0.00141103  -0.00084611  1
  V  V5  1  0.50482930  0.87482139  0.38155083  1
  V  V6  1  0.57705041  0.69492645  0.42899036  1
  V  V7  1  0.87365090  0.62315894  0.24938789  1
  V  V8  1  0.74577568  0.25111030  -0.00936522  1
  V  V9  1  0.51546065  0.74973974  0.24539478  1
  V  V10  1  0.49666077  0.74741039  0.73523413  1
  V  V11  1  0.00012951  0.12912701  0.62266548  1
  V  V12  1  0.62557385  0.12591492  0.00098911  1
  V  V13  1  0.12511380  0.62404732  0.00022969  1
  V  V14  1  0.62956134  0.62235718  -0.01174712  1
  V  V15  1  0.25184019  0.12501032  0.87514550  1
  V  V16  1  0.25123973  0.25179821  0.00238497  1
  V  V17  1  0.12638410  0.12024010  0.49894143  1
  V  V18  1  0.37689957  0.87493706  -0.00032820  1
  V  V19  1  0.00380219  0.37802101  0.87412365  1
  V  V20  1  0.74317789  0.12089553  0.37899662  1
  V  V21  1  0.51484754  0.36726255  0.86998947  1
  V  V22  1  -0.00159018  0.25008807  0.25036867  1
  V  V23  1  0.50213128  0.49759690  -0.00432303  1
  V  V24  1  0.76671890  0.74491666  0.51149644  1
  V  V25  1  0.60301534  0.00225780  0.61558600  1
  V  V26  1  0.00229165  0.25601458  0.74561559  1
  V  V27  1  0.50081021  0.38296563  0.38144283  1
  V  V28  1  0.24355218  0.74159672  0.50132068  1
  V  V29  1  0.50004220  0.24390867  0.25845257  1
  V  V30  1  0.24654939  0.37462925  0.64066039  1
  V  V31  1  0.74495961  0.88758998  0.12626028  1
  V  V32  1  0.13016188  0.49920234  0.12763892  1
  V  V33  1  0.25372356  0.24967635  0.50363200  1
  V  V34  1  -0.00188736  0.75211594  0.25169115  1
  V  V35  1  0.12594568  0.00056306  0.12550920  1
  V  V36  1  -0.00009936  0.62710959  0.62262361  1
  V  V37  1  0.50832350  -0.00140471  0.01011294  1
  V  V38  1  0.86616122  0.11263565  0.25784951  1
  V  V39  1  0.37618606  0.62727464  0.73868394  1
  V  V40  1  0.87080138  0.25079452  0.12781013  1
  V  V41  1  0.86704544  0.62725535  0.74979958  1
  V  V42  1  -0.00251122  0.37418974  0.37542696  1
  V  V43  1  0.12601754  0.25391979  0.87154322  1
  V  V44  1  0.50381147  0.87080758  0.87464533  1
  V  V45  1  0.87594018  0.37534888  0.00146609  1
  V  V46  1  0.37714877  0.37276867  -0.00099714  1
  V  V47  1  0.86766701  0.50486749  0.87494174  1
  V  V48  1  -0.00581572  0.75125082  0.74629246  1
  V  V49  1  0.13431025  0.37899472  0.25301550  1
  V  V50  1  0.73491553  0.37353009  0.63307247  1
  V  V51  1  0.50100407  0.62326828  0.12252756  1
  V  V52  1  0.87255132  0.87701192  -0.00081103  1
  V  V53  1  0.37735062  0.00114671  0.87487678  1
  V  V54  1  0.25602657  0.12136493  0.36714224  1
  V  V55  1  0.62737824  0.89575123  0.24775132  1
  V  V56  1  0.37310361  0.49720857  0.86642659  1
  V  V57  1  0.51420885  0.24404034  0.74776017  1
  V  V58  1  0.81308031  0.92242985  0.56671193  1
  V  V59  1  0.37930648  0.23986718  0.12769702  1
  V  V60  1  0.74981025  0.00004064  0.74434591  1
  V  V61  1  0.75034015  0.63106138  0.37927673  1
  V  V62  1  0.87452163  0.49805100  0.37828226  1
  V  V63  1  -0.01706995  0.88209712  0.38089089  1
  V  V64  1  0.87573339  0.36761811  0.51388979  1
  V  V65  1  0.37816884  0.12525887  0.73973356  1
  V  V66  1  0.12474433  0.12656086  0.00069380  1
  V  V67  1  -0.00176311  0.12558745  0.12729280  1
  V  V68  1  0.75047149  0.74703396  -0.00827009  1
  V  V69  1  0.24950495  0.87470842  0.12468162  1
  V  V70  1  0.87244440  0.75040894  0.12298573  1
  V  V71  1  0.12561243  0.87726267  0.74898892  1
  V  V72  1  0.87227955  0.00531360  0.87460965  1
  V  V73  1  0.25067272  0.62008211  0.86788717  1
  V  V74  1  0.25667222  0.87136017  0.62311523  1
  V  V75  1  0.37670040  0.74927217  0.12581343  1
  V  V76  1  0.62683834  0.36884569  0.25898010  1
  V  V77  1  0.38220614  -0.00400488  0.37555488  1
  V  V78  1  0.60884840  0.13340869  0.50129263  1
  V  V79  1  0.37413455  0.38792686  0.50345944  1
  V  V80  1  0.12465862  0.87595787  0.25494645  1
  V  V81  1  0.12626450  0.24824060  0.37438968  1
  V  V82  1  0.00879306  0.50339067  0.50002985  1
  V  V83  1  0.62836184  0.49697281  0.12640377  1
  V  V84  1  0.63086967  0.87606893  0.74426358  1
  Zn  Zn85  1  0.62907954  0.74418450  0.86744331  1
  Zn  Zn86  1  0.75008223  0.37383754  0.12916202  1
  Zn  Zn87  1  0.36879005  0.61497567  0.24818325  1
  Zn  Zn88  1  0.25577115  0.00008357  0.24909486  1
  Zn  Zn89  1  0.23906186  0.61064404  0.36400862  1
  Zn  Zn90  1  -0.01074801  -0.00066030  0.49895242  1
  Zn  Zn91  1  -0.00010166  0.62444102  0.12421361  1
  Zn  Zn92  1  0.50599414  0.11785839  0.13366683  1
  Zn  Zn93  1  0.26039886  0.38161071  0.13253705  1
  Zn  Zn94  1  0.36095381  0.49377266  0.35845919  1
  Zn  Zn95  1  0.12622035  -0.00009036  0.62312179  1
  Zn  Zn96  1  0.11815465  0.74437642  0.38829554  1
  Zn  Zn97  1  0.74189268  0.50012150  0.74917027  1
  Zn  Zn98  1  0.38070911  0.87101880  0.50194312  1
  Zn  Zn99  1  0.25221316  0.75004101  -0.00199066  1
  Zn  Zn100  1  0.00021374  0.87737568  0.87530783  1
  Zn  Zn101  1  0.73906929  0.13254639  0.86569417  1
  Zn  Zn102  1  0.37976923  0.24937656  0.62572174  1
  Zn  Zn103  1  -0.00094013  0.50093247  0.00119921  1
  Zn  Zn104  1  0.74403443  0.25453796  0.49551608  1
  Zn  Zn105  1  0.25020328  0.00059344  0.74864468  1
  Zn  Zn106  1  0.74926257  0.49747861  0.25464816  1
  Zn  Zn107  1  0.18908959  0.19192497  0.18696048  1
  Zn  Zn108  1  0.18840853  0.18722208  0.68844371  1
  Zn  Zn109  1  0.18613825  0.68871800  0.18822815  1
  Zn  Zn110  1  0.18403177  0.68715408  0.68571066  1
  Zn  Zn111  1  0.68520886  0.18387429  0.18613769  1
  Zn  Zn112  1  0.68904595  0.18914609  0.67677759  1
  Zn  Zn113  1  0.69121959  0.68657763  0.18044614  1
  Zn  Zn114  1  0.68360693  0.68554361  0.68203247  1
  Zn  Zn115  1  0.31680482  0.31085657  0.31572761  1
  Zn  Zn116  1  0.31919666  0.30800191  0.81400135  1
  Zn  Zn117  1  0.30388001  0.78413666  0.30329123  1
  Zn  Zn118  1  0.31254865  0.81032267  0.81000605  1
  Zn  Zn119  1  0.80939117  0.30795068  0.31711599  1
  Zn  Zn120  1  0.81627927  0.31600157  0.81083759  1
  Zn  Zn121  1  0.80499526  0.81239189  0.31218807  1
  Zn  Zn122  1  0.81311990  0.81570687  0.81056028  1
  Zn  Zn123  1  0.18862921  0.43751650  0.44271818  1
  Zn  Zn124  1  0.18953214  0.43870548  0.93765172  1
  Zn  Zn125  1  0.18802993  0.93558745  0.43529037  1
  Zn  Zn126  1  0.18938753  0.93783586  0.93737119  1
  Zn  Zn127  1  0.68710924  0.44286692  0.44286935  1
  Zn  Zn128  1  0.69109303  0.43570006  0.93835886  1
  Zn  Zn129  1  0.68500507  0.94137960  0.43341423  1
  Zn  Zn130  1  0.68802268  0.93975013  0.93452765  1
  Zn  Zn131  1  0.31472468  0.06117729  0.06181395  1
  Zn  Zn132  1  0.31248214  0.05406848  0.55847463  1
  Zn  Zn133  1  0.31193133  0.56181405  0.05955531  1
  Zn  Zn134  1  0.30212315  0.55959358  0.56446753  1
  Zn  Zn135  1  0.81049016  0.06800847  0.06236779  1
  Zn  Zn136  1  0.81112753  0.08506064  0.56326090  1
  Zn  Zn137  1  0.81066785  0.56219157  0.06206959  1
  Zn  Zn138  1  0.81477546  0.55814908  0.56470363  1
  Zn  Zn139  1  0.44271257  0.43335837  0.18752608  1
  Zn  Zn140  1  0.43989330  0.43292971  0.68859569  1
  Zn  Zn141  1  0.43617015  0.93424542  0.19489044  1
  Zn  Zn142  1  0.43687869  0.93452177  0.69124286  1
  Zn  Zn143  1  0.94286172  0.43941704  0.18776056  1
  Zn  Zn144  1  0.93734359  0.44172302  0.69025543  1
  Zn  Zn145  1  0.93608993  0.93598095  0.18613955  1
  Zn  Zn146  1  0.94515494  0.94506853  0.69100873  1
  Zn  Zn147  1  0.06000280  0.06000009  0.31356272  1
  Zn  Zn148  1  0.06173223  0.06523593  0.81272794  1
  Zn  Zn149  1  0.06404093  0.56257593  0.31335364  1
  Zn  Zn150  1  0.05628756  0.56550226  0.81412629  1
  Zn  Zn151  1  0.56225392  0.06356785  0.31960984  1
  Zn  Zn152  1  0.56405984  0.06236908  0.81454873  1
  Zn  Zn153  1  0.55510792  0.55650473  0.30667296  1
  Zn  Zn154  1  0.56115059  0.55801860  0.80325237  1
  Zn  Zn155  1  0.43394434  0.18860238  0.43501443  1
  Zn  Zn156  1  0.44269676  0.18555145  0.93632946  1
  Zn  Zn157  1  0.40354135  0.67599489  0.45008373  1
  Zn  Zn158  1  0.43912582  0.68624632  0.93451704  1
  Zn  Zn159  1  0.93546059  0.18727704  0.43530005  1
  Zn  Zn160  1  0.93600369  0.18940432  0.93704196  1
  Zn  Zn161  1  0.93873898  0.68814013  0.43780707  1
  Zn  Zn162  1  0.93937050  0.68764031  0.93452193  1
  Zn  Zn163  1  0.06267057  0.31515461  0.06354261  1
  Zn  Zn164  1  0.06676658  0.31476248  0.56252295  1
  Zn  Zn165  1  0.06015395  0.81231980  0.06313462  1
  Zn  Zn166  1  0.05946654  0.81545439  0.56433604  1
  Zn  Zn167  1  0.56394662  0.30966384  0.06588082  1
  Zn  Zn168  1  0.55874451  0.31535957  0.56521789  1
  Zn  Zn169  1  0.56837190  0.81223579  0.06191425  1
  Zn  Zn170  1  0.57091533  0.81355608  0.56445154  1
  O  O171  1  0.11997901  0.12158381  0.12043431  1
  O  O172  1  0.12070847  0.12420261  0.61624506  1
  O  O173  1  0.12617119  0.61989983  0.11769314  1
  O  O174  1  0.11378508  0.60991805  0.63326986  1
  O  O175  1  0.62275246  0.12503661  0.11013771  1
  O  O176  1  0.62806353  0.11097430  0.61338478  1
  O  O177  1  0.62034622  0.61572732  0.11641190  1
  O  O178  1  0.61677897  0.61953228  0.62026566  1
  O  O179  1  0.38127854  0.37492944  0.38578862  1
  O  O180  1  0.38099996  0.37987337  0.88335834  1
  O  O181  1  0.38839516  0.87959949  0.37303440  1
  O  O182  1  0.38133203  0.88089473  0.87878686  1
  O  O183  1  0.87933288  0.38131652  0.38048342  1
  O  O184  1  0.88608687  0.38103577  0.88083826  1
  O  O185  1  0.88499266  0.87446124  0.36868506  1
  O  O186  1  0.87556181  0.88979628  0.87921520  1
  O  O187  1  0.25604186  0.00552397  0.37142200  1
  O  O188  1  0.26050753  0.00512652  0.87400571  1
  O  O189  1  0.24592265  0.49550413  0.37072354  1
  O  O190  1  0.25974557  0.50769731  0.87710059  1
  O  O191  1  0.75105493  0.01879302  0.37994295  1
  O  O192  1  0.75723372  0.00486540  0.86395612  1
  O  O193  1  0.75588715  0.51265863  0.37658343  1
  O  O194  1  0.76342720  0.49279972  0.86989202  1
  O  O195  1  0.23638236  0.49786744  0.11891200  1
  O  O196  1  0.23233976  0.49172706  0.62638073  1
  O  O197  1  0.24597621  0.99355145  0.12732195  1
  O  O198  1  0.24525369  0.98842080  0.62956738  1
  O  O199  1  0.73853006  0.49810147  0.12788586  1
  O  O200  1  0.75236762  0.48419572  0.62681036  1
  O  O201  1  0.75586214  0.98642688  0.11920822  1
  O  O202  1  0.75592187  0.99210546  0.62457793  1
  O  O203  1  0.00676223  0.36822217  0.25673579  1
  O  O204  1  -0.00608609  0.36312052  0.75767419  1
  O  O205  1  0.00283839  0.87051490  0.25645069  1
  O  O206  1  0.00715433  0.86880259  0.75318281  1
  O  O207  1  0.50946518  0.36548823  0.25795821  1
  O  O208  1  0.49591799  0.36055154  0.76336669  1
  O  O209  1  0.51179943  0.86796903  0.25499180  1
  O  O210  1  0.50681334  0.86642876  0.75595632  1
  O  O211  1  0.50573005  0.13957521  0.25179240  1
  O  O212  1  0.49204459  0.13610953  0.76014959  1
  O  O213  1  0.49964088  0.63355371  0.23939378  1
  O  O214  1  0.49223939  0.64117751  0.75756639  1
  O  O215  1  0.99073699  0.13047439  0.24664742  1
  O  O216  1  0.99626605  0.13419396  0.74356816  1
  O  O217  1  0.98724552  0.63401484  0.24959128  1
  O  O218  1  0.99304509  0.63453065  0.74519385  1
  O  O219  1  0.37357016  0.25561825  0.00418419  1
  O  O220  1  0.36280419  0.25110071  0.50406164  1
  O  O221  1  0.37827301  0.75670367  0.00826279  1
  O  O222  1  0.35333480  0.75834359  0.50666568  1
  O  O223  1  0.86969339  0.25428895  0.00865733  1
  O  O224  1  0.87791246  0.26594521  0.49715145  1
  O  O225  1  0.86946516  0.75470433  0.00126362  1
  O  O226  1  0.86575874  0.75196954  0.50156751  1
  O  O227  1  0.13441467  0.24143541  0.49510074  1
  O  O228  1  0.12899629  0.24628973  0.99235115  1
  O  O229  1  0.13628466  0.75637437  0.50515756  1
  O  O230  1  0.12560101  0.74409235  0.99243490  1
  O  O231  1  0.62205465  0.23653403  0.50795561  1
  O  O232  1  0.63612816  0.24438766  1.00349831  1
  O  O233  1  0.63690776  0.75057635  0.49189271  1
  O  O234  1  0.63281589  0.73981702  0.99636615  1
  O  O235  1  0.49415978  0.24806671  0.13578300  1
  O  O236  1  0.49790472  0.25443487  0.64400641  1
  O  O237  1  0.49726603  0.74418766  0.12568205  1
  O  O238  1  0.50010818  0.75650686  0.63700320  1
  O  O239  1  0.99050847  0.24488263  0.12852134  1
  O  O240  1  1.01089419  0.24201900  0.63495681  1
  O  O241  1  0.98985936  0.74907550  0.13218608  1
  O  O242  1  1.00630046  0.74099970  0.63566101  1
  O  O243  1  0.00632150  0.25370650  0.36986437  1
  O  O244  1  0.00743283  0.25650221  0.87016242  1
  O  O245  1  -0.00096764  0.76170734  0.36782133  1
  O  O246  1  0.01222404  0.75199213  0.86777934  1
  O  O247  1  0.49318743  0.25846040  0.36222877  1
  O  O248  1  0.49827469  0.26081069  0.86788005  1
  O  O249  1  0.51275284  0.75290773  0.36454734  1
  O  O250  1  0.50368042  0.76228861  0.87286106  1
  O  O251  1  0.24332398  0.12971377  0.49385618  1
  O  O252  1  0.24543595  0.13121166  0.99501649  1
  O  O253  1  0.24798200  0.63906219  0.50252524  1
  O  O254  1  0.24057791  0.62708383  0.98840048  1
  O  O255  1  0.73866117  0.13216588  0.49415492  1
  O  O256  1  0.74418956  0.13453586  0.99705557  1
  O  O257  1  0.75905239  0.63494151  0.49470824  1
  O  O258  1  0.74123068  0.63376969  1.00317908  1
  O  O259  1  0.26097618  0.36883481  0.00058572  1
  O  O260  1  0.25511538  0.36466016  0.50966546  1
  O  O261  1  0.25771428  0.87453675  0.00682728  1
  O  O262  1  0.24482168  0.87505795  0.51653215  1
  O  O263  1  0.75733406  0.36728400  0.00487618  1
  O  O264  1  0.76267744  0.37539271  0.50728224  1
  O  O265  1  0.75395354  0.86968306  0.00453986  1
  O  O266  1  0.75317819  0.86735668  0.49981220  1
  O  O267  1  0.11743620  0.48860245  0.24087092  1
  O  O268  1  0.11691528  0.49639970  0.74298863  1
  O  O269  1  0.12619037  0.99224481  0.24252640  1
  O  O270  1  0.12544900  0.98720767  0.75552156  1
  O  O271  1  0.62574201  0.49039210  0.24171737  1
  O  O272  1  0.62862287  0.50633979  0.73118128  1
  O  O273  1  0.61878791  0.99491344  0.24509360  1
  O  O274  1  0.62887257  0.99745717  0.73677279  1
  O  O275  1  0.37163166  -0.00461275  0.26685441  1
  O  O276  1  0.37701699  0.00567100  0.76184811  1
  O  O277  1  0.37608525  0.50097442  0.24208067  1
  O  O278  1  0.38287382  0.50690846  0.76227442  1
  O  O279  1  0.87665897  0.01554576  0.24371632  1
  O  O280  1  0.87315209  0.01160251  0.75658619  1
  O  O281  1  0.87446604  0.50796020  0.25584839  1
  O  O282  1  0.87450167  0.50998408  0.75847819  1
  O  O283  1  0.11796941  0.36710681  0.36994348  1
  O  O284  1  0.11317225  0.36886953  0.88142621  1
  O  O285  1  0.11682803  0.87482957  0.36195038  1
  O  O286  1  0.12544534  0.86679261  0.87019271  1
  O  O287  1  0.61924101  0.37956523  0.36791765  1
  O  O288  1  0.61300715  0.37752818  0.87640197  1
  O  O289  1  0.61790290  0.88216637  0.36218931  1
  O  O290  1  0.61764400  0.87649908  0.86393452  1
  O  O291  1  0.37968773  0.13665852  0.11999419  1
  O  O292  1  0.36834295  0.12167376  0.63722482  1
  O  O293  1  0.38155924  0.63383612  0.12045771  1
  O  O294  1  0.36616323  0.61777302  0.64027016  1
  O  O295  1  0.87769206  0.13317870  0.13426555  1
  O  O296  1  0.88702850  0.12911586  0.63462087  1
  O  O297  1  0.87489742  0.63017679  0.13263642  1
  O  O298  1  0.89080674  0.61646031  0.63570249  1
  O  O299  1  0.26035658  0.25327538  0.11931441  1
  O  O300  1  0.24926174  0.25638052  0.61871488  1
  O  O301  1  0.26002228  0.75789384  0.11834799  1
  O  O302  1  0.24166935  0.76376746  0.62046476  1
  O  O303  1  0.76152190  0.24966572  0.11937467  1
  O  O304  1  0.74932999  0.26742579  0.61805096  1
  O  O305  1  0.75620774  0.75698378  0.11194509  1
  O  O306  1  0.74837139  0.74915778  0.60984609  1
  O  O307  1  0.24723916  0.24186991  0.38312192  1
  O  O308  1  0.24281361  0.24698823  0.88115260  1
  O  O309  1  0.24052081  0.76474847  0.39695550  1
  O  O310  1  0.23949324  0.74468616  0.87663135  1
  O  O311  1  0.75474248  0.23233542  0.37973990  1
  O  O312  1  0.75846207  0.25038272  0.88677893  1
  O  O313  1  0.75313953  0.73717809  0.38324108  1
  O  O314  1  0.74794864  0.75665823  0.88716977  1
  O  O315  1  0.00398929  0.12188215  0.00693712  1
  O  O316  1  0.00556162  0.12541891  0.50628337  1
  O  O317  1  0.01394463  0.62570613  0.00025982  1
  O  O318  1  -0.00548872  0.61589401  0.50925270  1
  O  O319  1  0.50701925  0.11513531  0.00128964  1
  O  O320  1  0.50970346  0.12839320  0.49815515  1
  O  O321  1  0.50770055  0.61733413  0.00290617  1
  O  O322  1  0.51058755  0.64783436  0.48488758  1
  O  O323  1  0.48651203  0.36467562  0.49222523  1
  O  O324  1  0.49627688  0.37533462  0.98927319  1
  O  O325  1  0.50263001  0.86315700  0.48519492  1
  O  O326  1  0.49885527  0.88063397  0.99319944  1
  O  O327  1  0.99213670  0.37880916  0.49584821  1
  O  O328  1  0.99279619  0.37487033  0.99206774  1
  O  O329  1  1.00050686  0.87765595  0.48552099  1
  O  O330  1  0.99148116  0.88256905  0.99839654  1
  O  O331  1  0.49463865  0.48505619  0.37246223  1
  O  O332  1  0.49502439  0.48729326  0.87716943  1
  O  O333  1  0.49039205  0.99127077  0.37347097  1
  O  O334  1  0.49434903  0.98853897  0.88013896  1
  O  O335  1  0.99505346  0.49461413  0.38296591  1
  O  O336  1  0.99224626  0.49171549  0.87722986  1
  O  O337  1  0.99751067  0.98711451  0.37696440  1
  O  O338  1  0.99172445  1.00176241  0.88153117  1
  O  O339  1  0.00475622  0.00628047  0.11896167  1
  O  O340  1  0.00607150  0.01491123  0.62216315  1
  O  O341  1  0.01280594  0.50399420  0.12089652  1
  O  O342  1  0.00902684  0.50352506  0.62117011  1
  O  O343  1  0.48975054  -0.00130186  0.11272235  1
  O  O344  1  0.50474585  0.00109504  0.62516874  1
  O  O345  1  0.51240075  0.50072090  0.11506463  1
  O  O346  1  0.50623370  0.49925612  0.62647932  1
  O  O347  1  0.23706039  0.36381921  0.24936592  1
  O  O348  1  0.25453683  0.36691036  0.73991550  1
  O  O349  1  0.23945132  0.86984307  0.24227309  1
  O  O350  1  0.24304284  0.87397708  0.74167050  1
  O  O351  1  0.74123438  0.37503603  0.25085163  1
  O  O352  1  0.75554252  0.37529919  0.73586963  1
  O  O353  1  0.73846575  0.87084818  0.23992287  1
  O  O354  1  0.73762320  0.88089379  0.75226211  1
  O  O355  1  0.24509695  0.12636180  0.26427344  1
  O  O356  1  0.25824110  0.12365267  0.75854332  1
  O  O357  1  0.26633067  0.67207035  0.26212094  1
  O  O358  1  0.25694504  0.63380105  0.76208153  1
  O  O359  1  0.76006701  0.12898022  0.25650221  1
  O  O360  1  0.75915008  0.12194701  0.74582334  1
  O  O361  1  0.76034693  0.62639740  0.25631672  1
  O  O362  1  0.76412982  0.62962509  0.74445663  1
  O  O363  1  0.36744493  0.11079100  0.38052973  1
  O  O364  1  0.37131484  0.11702674  0.87123926  1
  O  O365  1  0.36314487  0.61406043  0.36990377  1
  O  O366  1  0.36794020  0.61677271  0.87163850  1
  O  O367  1  0.87112454  0.12480986  0.36265978  1
  O  O368  1  0.87403216  0.11713286  0.86818315  1
  O  O369  1  0.86964881  0.61943378  0.36845224  1
  O  O370  1  0.88246429  0.61498761  0.86607155  1
  O  O371  1  0.12699828  0.38157058  0.13385728  1
  O  O372  1  0.13110303  0.38530913  0.62725859  1
  O  O373  1  0.12841799  0.88048880  0.13164533  1
  O  O374  1  0.12964113  0.87914484  0.63568230  1
  O  O375  1  0.62615537  0.38164440  0.13439859  1
  O  O376  1  0.63394623  0.37800732  0.62703544  1
  O  O377  1  0.63422232  0.87451320  0.13204711  1
  O  O378  1  0.62117339  0.89126193  0.63161821  1
  O  O379  1  0.11708834  0.25603094  0.25390952  1
  O  O380  1  0.11764727  0.24461981  0.76440082  1
  O  O381  1  0.10692712  0.75995331  0.24284980  1
  O  O382  1  0.11793470  0.75912907  0.75699102  1
  O  O383  1  0.61331731  0.25812953  0.24480831  1
  O  O384  1  0.61332206  0.23756133  0.75071534  1
  O  O385  1  0.61774340  0.75385622  0.23909501  1
  O  O386  1  0.61652420  0.75756469  0.74900660  1
  O  O387  1  0.38914298  0.25681693  0.24087939  1
  O  O388  1  0.38346470  0.23826463  0.74976219  1
  O  O389  1  0.39477104  0.76003614  0.23223694  1
  O  O390  1  0.38839153  0.74404469  0.75414706  1
  O  O391  1  0.88021187  0.24494563  0.24273736  1
  O  O392  1  0.88662880  0.23889450  0.75824519  1
  O  O393  1  0.88094917  0.74495582  0.24517505  1
  O  O394  1  0.88727962  0.74489364  0.75907787  1
  O  O395  1  0.36756670  0.48892686  0.50125974  1
  O  O396  1  0.38199174  0.49191037  0.99188503  1
  O  O397  1  0.36892969  0.98865976  0.48297525  1
  O  O398  1  0.38288916  0.99569131  0.98964728  1
  O  O399  1  0.88583274  0.48934495  0.49625258  1
  O  O400  1  0.87616950  0.49493509  0.99403923  1
  O  O401  1  0.86857986  0.99195813  0.51439082  1
  O  O402  1  0.87803505  0.99994420  0.99201838  1
  O  O403  1  0.12003242  0.00630238  0.00482169  1
  O  O404  1  0.12309785  0.01301501  0.49712332  1
  O  O405  1  0.12320755  0.50847704  0.00475178  1
  O  O406  1  0.11056927  0.49082028  0.51054624  1
  O  O407  1  0.61559204  0.00435064  -0.00259077  1
  O  O408  1  0.62302295  0.00502991  0.51241261  1
  O  O409  1  0.62377341  0.50434065  0.00491627  1
  O  O410  1  0.62711928  0.49631825  0.52092133  1
  O  O411  1  0.37952293  0.36619078  0.11099544  1
  O  O412  1  0.36550637  0.37293599  0.62030692  1
  O  O413  1  0.37052669  0.87023494  0.11865355  1
  O  O414  1  0.35994972  0.87883586  0.62685161  1
  O  O415  1  0.87571698  0.36781162  0.12136201  1
  O  O416  1  0.87762760  0.37650513  0.61482044  1
  O  O417  1  0.86858198  0.86906521  0.11823189  1
  O  O418  1  0.87466105  0.87538764  0.62917729  1
  O  O419  1  0.12968323  0.12965050  0.38091815  1
  O  O420  1  0.13008489  0.13278706  0.88181310  1
  O  O421  1  0.12668628  0.63404467  0.36705282  1
  O  O422  1  0.13057064  0.63027532  0.87931561  1
  O  O423  1  0.62890774  0.12162815  0.39158569  1
  O  O424  1  0.62647821  0.11976618  0.89100208  1
  O  O425  1  0.62966799  0.62341166  0.37298951  1
  O  O426  1  0.62023567  0.62217612  0.88511000  1
