# generated using pymatgen
data_V85Zn86O256
_symmetry_space_group_name_H-M   'P 1'
_cell_length_a   16.93481928
_cell_length_b   16.92667234
_cell_length_c   16.93527814
_cell_angle_alpha   90.00302747
_cell_angle_beta   89.96137880
_cell_angle_gamma   90.05208681
_symmetry_Int_Tables_number   1
_chemical_formula_structural   V85Zn86O256
_chemical_formula_sum   'V85 Zn86 O256'
_cell_volume   4854.49668432
_cell_formula_units_Z   1
loop_
 _symmetry_equiv_pos_site_id
 _symmetry_equiv_pos_as_xyz
  1  'x, y, z'
loop_
 _atom_site_type_symbol
 _atom_site_label
 _atom_site_symmetry_multiplicity
 _atom_site_fract_x
 _atom_site_fract_y
 _atom_site_fract_z
 _atom_site_occupancy
  V  V0  1  0.25078798  0.25174117  0.00229982  1
  V  V1  1  -0.00085375  0.49105392  0.49446269  1
  V  V2  1  0.75124069  0.62354241  0.35995014  1
  V  V3  1  0.50001980  0.37709066  0.37197391  1
  V  V4  1  0.87357534  0.74855785  0.62657244  1
  V  V5  1  0.37369263  0.73533184  0.13229080  1
  V  V6  1  0.25459198  0.50413656  0.25643391  1
  V  V7  1  0.24694912  0.25107536  0.49439458  1
  V  V8  1  0.50286256  0.76525069  0.75623492  1
  V  V9  1  0.12094332  0.37169400  0.75870747  1
  V  V10  1  0.87407477  0.74150728  0.12985649  1
  V  V11  1  0.12958207  0.74934511  0.36882013  1
  V  V12  1  0.37015483  0.75519958  0.62645014  1
  V  V13  1  0.37462147  0.12644780  0.75032930  1
  V  V14  1  0.37999572  0.87020236  -0.00163974  1
  V  V15  1  -0.00324463  0.62358056  0.62371737  1
  V  V16  1  0.74785017  0.74448277  0.49970623  1
  V  V17  1  0.75486618  0.00224317  0.74846926  1
  V  V18  1  0.73875052  0.48379861  0.23825228  1
  V  V19  1  0.63015941  0.12417006  0.00060135  1
  V  V20  1  0.87614545  0.87355411  0.49993343  1
  V  V21  1  -0.00894564  0.24835960  0.75891881  1
  V  V22  1  0.74887934  0.12794104  0.37356775  1
  V  V23  1  0.38135268  -0.00305026  0.87481744  1
  V  V24  1  0.24844814  0.88807301  0.12697372  1
  V  V25  1  0.01208567  0.12387438  0.12953743  1
  V  V26  1  0.51013341  0.61306629  0.12493085  1
  V  V27  1  0.87968342  -0.00075991  0.87153851  1
  V  V28  1  0.50124546  -0.00322767  0.49547520  1
  V  V29  1  0.88961440  0.49602243  0.87449731  1
  V  V30  1  0.62444472  -0.00588883  0.12767306  1
  V  V31  1  0.00564593  -0.00133636  0.00660057  1
  V  V32  1  0.62613597  0.25249619  0.87388064  1
  V  V33  1  0.37270318  0.25243186  0.13280772  1
  V  V34  1  0.12365347  0.74914694  0.87607991  1
  V  V35  1  0.12547629  0.62564965  0.49801188  1
  V  V36  1  0.12369875  0.37113885  0.26704901  1
  V  V37  1  0.55468857  0.30706610  0.19295432  1
  V  V38  1  0.74475008  -0.00880123  0.25113367  1
  V  V39  1  0.12395018  0.49886524  0.62581468  1
  V  V40  1  0.86935011  0.37407471  0.49673625  1
  V  V41  1  0.75576630  0.12377642  0.87279741  1
  V  V42  1  0.37539820  0.62568654  0.75011225  1
  V  V43  1  0.75008843  0.73793265  -0.00702255  1
  V  V44  1  0.13052304  0.88754662  0.24701232  1
  V  V45  1  0.24880463  0.75888703  0.49962652  1
  V  V46  1  0.74503151  0.87222885  0.62987241  1
  V  V47  1  0.62187821  0.25583263  0.37460582  1
  V  V48  1  0.24713794  0.62365825  0.87590955  1
  V  V49  1  0.37479128  0.25118221  0.62471607  1
  V  V50  1  0.74577063  0.87245927  0.12127989  1
  V  V51  1  0.26344453  0.62574029  0.37381856  1
  V  V52  1  0.24494884  0.12383541  0.37006937  1
  V  V53  1  0.62180146  0.76228648  0.36726910  1
  V  V54  1  0.12811818  -0.00166770  0.62364345  1
  V  V55  1  0.25029076  0.49971440  0.74944320  1
  V  V56  1  0.87391056  -0.00150632  0.37332783  1
  V  V57  1  0.25008172  0.37545587  0.62442159  1
  V  V58  1  -0.00764928  0.12594784  0.62791392  1
  V  V59  1  0.87583282  0.12634127  0.24137333  1
  V  V60  1  0.13107512  0.87358121  0.74617413  1
  V  V61  1  -0.00020297  0.74921275  0.75113307  1
  V  V62  1  0.24693217  0.74927100  0.00244768  1
  V  V63  1  0.75773553  0.25945448  0.00985873  1
  V  V64  1  0.50062357  0.62545057  0.62534346  1
  V  V65  1  0.11580623  0.49389882  0.12743554  1
  V  V66  1  0.89882995  0.37569288  0.00441515  1
  V  V67  1  0.50217165  -0.00436752  -0.00235021  1
  V  V68  1  0.24960923  0.12664899  0.87605773  1
  V  V69  1  0.62303394  -0.00336414  0.63140794  1
  V  V70  1  0.00161800  0.87407538  0.37315777  1
  V  V71  1  0.24966503  -0.00160763  0.74828579  1
  V  V72  1  0.49923781  0.50247646  0.49504239  1
  V  V73  1  0.87821821  0.50159941  0.36459667  1
  V  V74  1  0.50137108  0.12735536  0.62413871  1
  V  V75  1  0.37788829  0.12538656  0.25354680  1
  V  V76  1  0.50085601  0.12229982  0.12970904  1
  V  V77  1  0.37379200  -0.00147372  0.37011901  1
  V  V78  1  0.11543011  0.61761479  0.00452794  1
  V  V79  1  0.37500045  0.38044673  0.49452784  1
  V  V80  1  0.12184992  0.13109116  0.49874059  1
  V  V81  1  0.62616847  0.75781435  0.87346246  1
  V  V82  1  -0.00304078  0.25524676  0.26027869  1
  V  V83  1  0.37510846  0.87787501  0.50231051  1
  V  V84  1  0.38074701  0.50020978  0.88380004  1
  Zn  Zn85  1  0.24782150  0.37567299  0.12862382  1
  Zn  Zn86  1  0.62345338  0.62502775  0.49553950  1
  Zn  Zn87  1  0.50294160  0.38198023  0.87838361  1
  Zn  Zn88  1  0.37836896  0.37974987  0.00652749  1
  Zn  Zn89  1  0.74846639  0.25048345  0.50160732  1
  Zn  Zn90  1  0.50395265  0.75346603  0.25036273  1
  Zn  Zn91  1  -0.00021515  0.00046060  0.50144079  1
  Zn  Zn92  1  -0.00433635  0.74761942  0.24939107  1
  Zn  Zn93  1  0.12037402  0.25229599  0.88272216  1
  Zn  Zn94  1  0.00158556  0.87656168  0.87719027  1
  Zn  Zn95  1  0.50154514  0.25318992  0.75146470  1
  Zn  Zn96  1  0.87587574  0.87470647  -0.00001357  1
  Zn  Zn97  1  0.62599136  0.12526454  0.49915182  1
  Zn  Zn98  1  0.62720225  0.49754918  0.62671073  1
  Zn  Zn99  1  0.87191842  0.24992217  0.62831789  1
  Zn  Zn100  1  0.62503708  0.38138591  0.74758484  1
  Zn  Zn101  1  0.13017419  0.11950562  0.00698354  1
  Zn  Zn102  1  0.86565324  0.62731340  0.76906474  1
  Zn  Zn103  1  -0.00903296  0.61527971  0.13312393  1
  Zn  Zn104  1  0.74865776  0.50588720  0.75082593  1
  Zn  Zn105  1  0.62135585  0.61244092  -0.00683667  1
  Zn  Zn106  1  0.74652800  0.37355352  0.62964551  1
  Zn  Zn107  1  0.18648575  0.18871778  0.19250978  1
  Zn  Zn108  1  0.18401437  0.18826779  0.68660447  1
  Zn  Zn109  1  0.18426938  0.68618725  0.18816073  1
  Zn  Zn110  1  0.18743787  0.68678528  0.68549378  1
  Zn  Zn111  1  0.69234013  0.18303093  0.18579201  1
  Zn  Zn112  1  0.69115895  0.18783932  0.68695719  1
  Zn  Zn113  1  0.68609713  0.68666752  0.18620316  1
  Zn  Zn114  1  0.68208127  0.68378338  0.69155580  1
  Zn  Zn115  1  0.31127057  0.31355678  0.31432452  1
  Zn  Zn116  1  0.31208214  0.31402523  0.81265460  1
  Zn  Zn117  1  0.34293212  0.83102273  0.29460235  1
  Zn  Zn118  1  0.31222625  0.81335234  0.81398987  1
  Zn  Zn119  1  0.81522762  0.31482711  0.31341205  1
  Zn  Zn120  1  0.81163545  0.32260469  0.81837842  1
  Zn  Zn121  1  0.81002982  0.81120322  0.31110247  1
  Zn  Zn122  1  0.81204380  0.81460475  0.81274911  1
  Zn  Zn123  1  0.18675753  0.43996917  0.43685695  1
  Zn  Zn124  1  0.18954589  0.43692677  0.94038034  1
  Zn  Zn125  1  0.18830610  0.94013219  0.43702360  1
  Zn  Zn126  1  0.18816188  0.93716962  0.93609215  1
  Zn  Zn127  1  0.68607974  0.44088032  0.43486470  1
  Zn  Zn128  1  0.70325194  0.44288391  0.93105393  1
  Zn  Zn129  1  0.68772977  0.93683516  0.44233975  1
  Zn  Zn130  1  0.68719471  0.93211403  0.93535622  1
  Zn  Zn131  1  0.31677208  0.06457344  0.06094723  1
  Zn  Zn132  1  0.31057275  0.06402590  0.56123103  1
  Zn  Zn133  1  0.30181173  0.56164290  0.06618515  1
  Zn  Zn134  1  0.31488230  0.56493228  0.55973128  1
  Zn  Zn135  1  0.81666123  0.05955806  0.06118041  1
  Zn  Zn136  1  0.81200119  0.06156859  0.55938958  1
  Zn  Zn137  1  0.81289759  0.55209716  0.05641827  1
  Zn  Zn138  1  0.81162205  0.55971723  0.56540632  1
  Zn  Zn139  1  0.42997552  0.44440649  0.18947133  1
  Zn  Zn140  1  0.44423519  0.43688250  0.69138572  1
  Zn  Zn141  1  0.43986730  0.93187129  0.18611481  1
  Zn  Zn142  1  0.43321114  0.93962424  0.68199411  1
  Zn  Zn143  1  0.93250401  0.43006699  0.18619073  1
  Zn  Zn144  1  0.93487967  0.43419250  0.68848926  1
  Zn  Zn145  1  0.93543125  0.93365141  0.18610893  1
  Zn  Zn146  1  0.93934749  0.93631031  0.68837306  1
  Zn  Zn147  1  0.06154418  0.06298733  0.31511105  1
  Zn  Zn148  1  0.06296111  0.06627462  0.81274819  1
  Zn  Zn149  1  0.06259177  0.56505460  0.30937118  1
  Zn  Zn150  1  0.05705701  0.56049120  0.81426260  1
  Zn  Zn151  1  0.56251969  0.06188661  0.31348776  1
  Zn  Zn152  1  0.56463810  0.06272634  0.81028994  1
  Zn  Zn153  1  0.56264418  0.56577780  0.30658156  1
  Zn  Zn154  1  0.56708010  0.57019885  0.81288487  1
  Zn  Zn155  1  0.43870953  0.19067500  0.43751307  1
  Zn  Zn156  1  0.44045262  0.19016302  0.94481265  1
  Zn  Zn157  1  0.43912202  0.69188390  0.43729465  1
  Zn  Zn158  1  0.44076997  0.68471515  0.93835951  1
  Zn  Zn159  1  0.93662671  0.18726061  0.43513871  1
  Zn  Zn160  1  0.93603862  0.18528233  0.94248361  1
  Zn  Zn161  1  0.93698490  0.68471584  0.43515739  1
  Zn  Zn162  1  0.93686912  0.68677567  0.94268254  1
  Zn  Zn163  1  0.06538701  0.30490557  0.07423476  1
  Zn  Zn164  1  0.05975504  0.31187948  0.56697286  1
  Zn  Zn165  1  0.06184926  0.81410734  0.06393856  1
  Zn  Zn166  1  0.06335921  0.81387051  0.56187068  1
  Zn  Zn167  1  0.55922762  0.43655229  0.04668453  1
  Zn  Zn168  1  0.56481688  0.31283040  0.55992428  1
  Zn  Zn169  1  0.56251472  0.80638475  0.06175599  1
  Zn  Zn170  1  0.56132572  0.81166700  0.56013108  1
  O  O171  1  0.11657077  0.12030285  0.13010342  1
  O  O172  1  0.11655678  0.11917781  0.61772870  1
  O  O173  1  0.12681812  0.61444925  0.11832545  1
  O  O174  1  0.11562114  0.62112316  0.61902992  1
  O  O175  1  0.62116954  0.11675967  0.11812101  1
  O  O176  1  0.61692288  0.11737090  0.62268374  1
  O  O177  1  0.61265737  0.62917710  0.11976718  1
  O  O178  1  0.60794255  0.63138035  0.61784239  1
  O  O179  1  0.38213510  0.36965144  0.38688525  1
  O  O180  1  0.36997621  0.39361006  0.87265085  1
  O  O181  1  0.36021846  0.88780622  0.39344936  1
  O  O182  1  0.36702681  0.88435428  0.88671755  1
  O  O183  1  0.87503804  0.38636865  0.38664968  1
  O  O184  1  0.87821720  0.38023792  0.89090249  1
  O  O185  1  0.88262528  0.87638917  0.37744059  1
  O  O186  1  0.87848349  0.88720012  0.87549333  1
  O  O187  1  0.26138125  0.01363446  0.38569367  1
  O  O188  1  0.26001387  0.00651374  0.87021277  1
  O  O189  1  0.24301367  0.51099187  0.36672658  1
  O  O190  1  0.25437625  0.50705524  0.86755170  1
  O  O191  1  0.75130270  0.00448714  0.36772932  1
  O  O192  1  0.75578443  0.00157786  0.86656345  1
  O  O193  1  0.75595656  0.51042382  0.36881408  1
  O  O194  1  0.77633904  0.49636324  0.86744003  1
  O  O195  1  0.23967683  0.49856588  0.14111162  1
  O  O196  1  0.24493254  0.49690785  0.62881236  1
  O  O197  1  0.25355530  0.98638823  0.11839025  1
  O  O198  1  0.23669495  1.00804638  0.63219684  1
  O  O199  1  0.75530081  0.50290950  0.14077034  1
  O  O200  1  0.74614053  0.49470220  0.62621051  1
  O  O201  1  0.74638807  0.99200964  0.13074986  1
  O  O202  1  0.74402801  0.99487952  0.62922236  1
  O  O203  1  0.00587939  0.36180397  0.25081690  1
  O  O204  1  0.00950439  0.35856327  0.74224827  1
  O  O205  1  0.00875663  0.86994826  0.25624485  1
  O  O206  1  0.01054259  0.86365434  0.74985982  1
  O  O207  1  0.49734672  0.37237522  0.25363943  1
  O  O208  1  0.50439236  0.37011494  0.76149319  1
  O  O209  1  0.45366100  0.85579732  0.26338035  1
  O  O210  1  0.49238103  0.86302407  0.74302034  1
  O  O211  1  0.48633811  0.11997265  0.24628244  1
  O  O212  1  0.49361223  0.12339540  0.73752321  1
  O  O213  1  0.50133092  0.63136227  0.23209010  1
  O  O214  1  0.49125227  0.63664129  0.74105400  1
  O  O215  1  0.99368760  0.12710327  0.24681398  1
  O  O216  1  1.00743365  0.13839533  0.74076945  1
  O  O217  1  1.00885758  0.63606161  0.24377824  1
  O  O218  1  1.00275272  0.63709952  0.74125677  1
  O  O219  1  0.36610987  0.24335730  0.01604843  1
  O  O220  1  0.36690230  0.25716525  0.50570752  1
  O  O221  1  0.36582156  0.75519512  0.00297708  1
  O  O222  1  0.36979044  0.75919456  0.50530163  1
  O  O223  1  0.86460465  0.25904881  -0.00706112  1
  O  O224  1  0.87558870  0.26341311  0.49460433  1
  O  O225  1  0.86373858  0.75330312  0.00514622  1
  O  O226  1  0.86803645  0.75415613  0.50544044  1
  O  O227  1  0.13158053  0.23998464  0.50681227  1
  O  O228  1  0.13822420  0.24387981  1.00186038  1
  O  O229  1  0.13196966  0.74810078  0.49242944  1
  O  O230  1  0.13093016  0.74447916  0.99690076  1
  O  O231  1  0.62655497  0.24439906  0.48775972  1
  O  O232  1  0.63828757  0.23187818  0.98853569  1
  O  O233  1  0.63324965  0.74935593  0.49042848  1
  O  O234  1  0.63860082  0.74976103  0.99553612  1
  O  O235  1  0.49257641  0.24267715  0.13500361  1
  O  O236  1  0.49398289  0.24118876  0.62431267  1
  O  O237  1  0.48318940  0.74891990  0.12793859  1
  O  O238  1  0.48836646  0.74710156  0.62967632  1
  O  O239  1  1.00370705  0.23497488  0.14363670  1
  O  O240  1  0.99620588  0.24120072  0.63404713  1
  O  O241  1  0.98078545  0.75561914  0.12296375  1
  O  O242  1  0.99714584  0.74370657  0.63063641  1
  O  O243  1  0.00666859  0.23753482  0.35830653  1
  O  O244  1  0.00377170  0.23806747  0.86250067  1
  O  O245  1  0.00828195  0.75990536  0.37681058  1
  O  O246  1  0.00534167  0.75061661  0.86724551  1
  O  O247  1  0.50669257  0.26310738  0.37707242  1
  O  O248  1  0.51834876  0.23759380  0.87564484  1
  O  O249  1  0.51888330  0.74402047  0.37521230  1
  O  O250  1  0.49510309  0.75383682  0.85974644  1
  O  O251  1  0.24334963  0.13381409  0.49428977  1
  O  O252  1  0.25076007  0.12966486  0.99280427  1
  O  O253  1  0.24461460  0.63361232  0.49420919  1
  O  O254  1  0.23979661  0.63290185  0.99522833  1
  O  O255  1  0.74960373  0.12355989  0.48386955  1
  O  O256  1  0.74609950  0.12239692  0.99224484  1
  O  O257  1  0.74978724  0.63658904  0.49656259  1
  O  O258  1  0.74941674  0.63651594  1.00138684  1
  O  O259  1  0.25637452  0.36390754  0.00343218  1
  O  O260  1  0.25514486  0.37062966  0.50212310  1
  O  O261  1  0.25330253  0.86795950  0.00757451  1
  O  O262  1  0.25043602  0.86360494  0.50163363  1
  O  O263  1  0.74793191  0.35866718  0.00132179  1
  O  O264  1  0.76037060  0.37465443  0.49717068  1
  O  O265  1  0.75339688  0.86784562  0.00763571  1
  O  O266  1  0.75635734  0.86550376  0.50792842  1
  O  O267  1  0.12774340  0.48656773  0.24791115  1
  O  O268  1  0.12888127  0.49331275  0.74401563  1
  O  O269  1  0.12542834  0.98658025  0.25702425  1
  O  O270  1  0.12874760  0.99252875  0.74511111  1
  O  O271  1  0.64002076  0.49979612  0.25349228  1
  O  O272  1  0.62468497  0.50174915  0.74758028  1
  O  O273  1  0.63408516  1.00492637  0.24256957  1
  O  O274  1  0.63121613  0.99984256  0.73721796  1
  O  O275  1  0.37587252  0.00698671  0.26431540  1
  O  O276  1  0.36936170  0.00422641  0.75559339  1
  O  O277  1  0.35365087  0.49763915  0.25387881  1
  O  O278  1  0.36829179  0.50763999  0.75518481  1
  O  O279  1  0.86730073  0.00523457  0.25539931  1
  O  O280  1  0.86754888  -0.00320498  0.75657965  1
  O  O281  1  0.87086696  0.49410869  0.26187715  1
  O  O282  1  0.88348030  0.50291209  0.76083309  1
  O  O283  1  0.12172803  0.37666122  0.36611111  1
  O  O284  1  0.13388084  0.37234314  0.86193917  1
  O  O285  1  0.12058167  0.87008864  0.37070255  1
  O  O286  1  0.12416278  0.86722734  0.86577348  1
  O  O287  1  0.61780964  0.36398848  0.37728546  1
  O  O288  1  0.62898051  0.35618627  0.87807062  1
  O  O289  1  0.63210508  0.86112015  0.37679602  1
  O  O290  1  0.61749374  0.86020037  0.88139144  1
  O  O291  1  0.37945269  0.12862592  0.13515220  1
  O  O292  1  0.38088084  0.12968178  0.62904710  1
  O  O293  1  0.37871769  0.63311657  0.11623418  1
  O  O294  1  0.38216993  0.63443487  0.62776514  1
  O  O295  1  0.88129770  0.11936754  0.13839661  1
  O  O296  1  0.88901403  0.12307029  0.61860486  1
  O  O297  1  0.87390230  0.63858030  0.11610913  1
  O  O298  1  0.88844857  0.63140439  0.62003506  1
  O  O299  1  0.25637555  0.24883104  0.12085823  1
  O  O300  1  0.25420616  0.25431328  0.61480871  1
  O  O301  1  0.25523796  0.74926775  0.11361071  1
  O  O302  1  0.26237521  0.74278748  0.61619386  1
  O  O303  1  0.75139205  0.23913763  0.10751747  1
  O  O304  1  0.75589947  0.24974809  0.61908402  1
  O  O305  1  0.75563729  0.75369359  0.11642172  1
  O  O306  1  0.75051883  0.75672100  0.61813384  1
  O  O307  1  0.25319356  0.24250295  0.38805204  1
  O  O308  1  0.25343285  0.24245264  0.88467717  1
  O  O309  1  0.24337957  0.74470392  0.38333440  1
  O  O310  1  0.24472221  0.74508139  0.88487134  1
  O  O311  1  0.74189436  0.24238807  0.37218245  1
  O  O312  1  0.74442669  0.23901036  0.88064375  1
  O  O313  1  0.74564580  0.74158662  0.37976225  1
  O  O314  1  0.74404529  0.75537298  0.88507028  1
  O  O315  1  0.00260567  0.12014347  0.01261114  1
  O  O316  1  0.00735196  0.12380503  0.50548878  1
  O  O317  1  0.01355174  0.62999958  0.00934254  1
  O  O318  1  0.00646102  0.61955514  0.50638113  1
  O  O319  1  0.50898140  0.11670813  0.00917621  1
  O  O320  1  0.49793644  0.11745931  0.51053215  1
  O  O321  1  0.50117834  0.63337988  0.01925771  1
  O  O322  1  0.49662656  0.61780915  0.50493479  1
  O  O323  1  0.49215152  0.38177243  0.49233997  1
  O  O324  1  0.48902954  0.36945972  0.99005419  1
  O  O325  1  0.48910230  0.88486715  0.50441458  1
  O  O326  1  0.48702482  0.87860017  1.00700893  1
  O  O327  1  0.99639925  0.38674338  0.50261468  1
  O  O328  1  0.99746994  0.36041486  1.00050421  1
  O  O329  1  0.99504564  0.87666630  0.49171948  1
  O  O330  1  0.99770285  0.88320575  0.99815361  1
  O  O331  1  0.50487260  0.48791490  0.37860359  1
  O  O332  1  0.48231232  0.50744009  0.87165310  1
  O  O333  1  0.49193410  1.00644011  0.38831963  1
  O  O334  1  0.48783212  1.00569413  0.87770603  1
  O  O335  1  0.99133319  0.51043189  0.38481918  1
  O  O336  1  0.99275109  0.48868586  0.87151284  1
  O  O337  1  0.99456011  0.98781276  0.37620408  1
  O  O338  1  0.99310460  1.00224014  0.87877410  1
  O  O339  1  -0.00581275  0.00673339  0.11733595  1
  O  O340  1  0.01052548  0.00700398  0.62663419  1
  O  O341  1  0.01143597  0.49768462  0.13204147  1
  O  O342  1  0.00398576  0.50753790  0.61820362  1
  O  O343  1  0.50379274  0.00125294  0.12084165  1
  O  O344  1  0.50612497  0.00538364  0.61783347  1
  O  O345  1  0.49818662  0.50863448  0.12447850  1
  O  O346  1  0.49705953  0.51072534  0.61629572  1
  O  O347  1  0.23824526  0.38318791  0.25641598  1
  O  O348  1  0.24376512  0.37935101  0.74188803  1
  O  O349  1  0.24809047  0.87359408  0.23428343  1
  O  O350  1  0.23865594  0.87930467  0.75200968  1
  O  O351  1  0.75093797  0.38397002  0.25082793  1
  O  O352  1  0.74502679  0.37814827  0.74817876  1
  O  O353  1  0.75296251  0.88614344  0.24351346  1
  O  O354  1  0.75329502  0.88346188  0.73671931  1
  O  O355  1  0.25797630  0.12907412  0.26330883  1
  O  O356  1  0.25527404  0.12096437  0.75635223  1
  O  O357  1  0.23884176  0.61181874  0.25995564  1
  O  O358  1  0.25453481  0.62127705  0.75520118  1
  O  O359  1  0.75720001  0.11686231  0.25737595  1
  O  O360  1  0.74712280  0.11041154  0.75687486  1
  O  O361  1  0.75205122  0.62290293  0.25889177  1
  O  O362  1  0.75781769  0.62430347  0.74145081  1
  O  O363  1  0.36999443  0.12183194  0.37030964  1
  O  O364  1  0.36747534  0.11902063  0.87248540  1
  O  O365  1  0.36276904  0.63013593  0.37906953  1
  O  O366  1  0.36768466  0.61837373  0.87136902  1
  O  O367  1  0.86800336  0.11805744  0.36615571  1
  O  O368  1  0.86350566  0.11394450  0.87962936  1
  O  O369  1  0.86007830  0.61790915  0.38105225  1
  O  O370  1  0.88957399  0.60636793  0.88098880  1
  O  O371  1  0.12873701  0.38005261  0.13669677  1
  O  O372  1  0.13144515  0.38016818  0.63219347  1
  O  O373  1  0.13986414  0.86852976  0.13196628  1
  O  O374  1  0.12120976  0.88510573  0.63282919  1
  O  O375  1  0.60602026  0.36176487  0.13037781  1
  O  O376  1  0.62451631  0.37697077  0.62746329  1
  O  O377  1  0.63621907  0.87710759  0.12179041  1
  O  O378  1  0.63432946  0.88326239  0.61719770  1
  O  O379  1  0.11880651  0.26417748  0.25024080  1
  O  O380  1  0.11848696  0.25755614  0.75219847  1
  O  O381  1  0.13036559  0.76053644  0.26157248  1
  O  O382  1  0.12105906  0.75591240  0.75258125  1
  O  O383  1  0.62064197  0.24939200  0.25021193  1
  O  O384  1  0.62479037  0.24128124  0.76625012  1
  O  O385  1  0.62709710  0.75196906  0.26247148  1
  O  O386  1  0.60970093  0.75273567  0.75392454  1
  O  O387  1  0.36855633  0.24192415  0.24133003  1
  O  O388  1  0.37600394  0.24369527  0.74392919  1
  O  O389  1  0.35544432  0.73376867  0.23049464  1
  O  O390  1  0.37803560  0.74745661  0.74291531  1
  O  O391  1  0.88716799  0.24182730  0.25646134  1
  O  O392  1  0.88862040  0.25455992  0.75209257  1
  O  O393  1  0.87113654  0.75183747  0.23355386  1
  O  O394  1  0.88456119  0.74978823  0.74541253  1
  O  O395  1  0.38456586  0.49129160  0.50189508  1
  O  O396  1  0.36330051  0.50210766  0.98661548  1
  O  O397  1  0.38123240  0.99595047  0.49749821  1
  O  O398  1  0.38095293  0.99248546  0.99300685  1
  O  O399  1  0.88179271  0.49325410  0.49231819  1
  O  O400  1  0.88082929  0.48507787  0.99318277  1
  O  O401  1  0.87601317  0.99144033  0.49143053  1
  O  O402  1  0.88664442  0.99862528  0.99089544  1
  O  O403  1  0.11085573  0.00176218  -0.00766998  1
  O  O404  1  0.12425792  0.00911702  0.50836469  1
  O  O405  1  0.13313482  0.50619625  0.01275458  1
  O  O406  1  0.11772884  0.50438246  0.50571717  1
  O  O407  1  0.62168266  0.00554610  0.00431239  1
  O  O408  1  0.61714906  0.00260199  0.50791248  1
  O  O409  1  0.63039455  0.49995878  -0.00855810  1
  O  O410  1  0.61070760  0.50350358  0.49993620  1
  O  O411  1  0.36915523  0.36582415  0.12852652  1
  O  O412  1  0.37076083  0.37119764  0.61545933  1
  O  O413  1  0.36133409  0.86380755  0.11558391  1
  O  O414  1  0.37057350  0.86967291  0.61408819  1
  O  O415  1  0.87878686  0.37368901  0.10478073  1
  O  O416  1  0.87698115  0.37372853  0.60777232  1
  O  O417  1  0.86127350  0.86675658  0.12340808  1
  O  O418  1  0.86911221  0.86821574  0.62037945  1
  O  O419  1  0.13370251  0.11864086  0.38590464  1
  O  O420  1  0.14121745  0.12628569  0.87519036  1
  O  O421  1  0.13053226  0.63509572  0.38157684  1
  O  O422  1  0.12785935  0.62903847  0.88174696  1
  O  O423  1  0.63147659  0.13569095  0.37208500  1
  O  O424  1  0.63716242  0.12260271  0.88177321  1
  O  O425  1  0.63962135  0.63123376  0.37618915  1
  O  O426  1  0.60887424  0.64970784  0.88184112  1
