# generated using pymatgen
data_V85Zn86O256
_symmetry_space_group_name_H-M   'P 1'
_cell_length_a   16.92841104
_cell_length_b   16.92934450
_cell_length_c   16.93403902
_cell_angle_alpha   90.06449864
_cell_angle_beta   89.98232719
_cell_angle_gamma   89.97912854
_symmetry_Int_Tables_number   1
_chemical_formula_structural   V85Zn86O256
_chemical_formula_sum   'V85 Zn86 O256'
_cell_volume   4853.07015798
_cell_formula_units_Z   1
loop_
 _symmetry_equiv_pos_site_id
 _symmetry_equiv_pos_as_xyz
  1  'x, y, z'
loop_
 _atom_site_type_symbol
 _atom_site_label
 _atom_site_symmetry_multiplicity
 _atom_site_fract_x
 _atom_site_fract_y
 _atom_site_fract_z
 _atom_site_occupancy
  V  V0  1  0.75319932  0.00232618  0.74701142  1
  V  V1  1  0.50257115  0.36830869  0.86839769  1
  V  V2  1  0.87346568  0.25545952  0.11867329  1
  V  V3  1  0.50231391  0.74498755  0.24409893  1
  V  V4  1  0.12469311  0.25218061  0.37544886  1
  V  V5  1  0.37140669  0.13170033  0.75081215  1
  V  V6  1  0.61323435  0.62380258  0.00660889  1
  V  V7  1  0.12292655  0.62383026  0.49991461  1
  V  V8  1  0.25299133  -0.00370515  0.24647316  1
  V  V9  1  -0.00461954  0.25298572  0.74589315  1
  V  V10  1  -0.00535217  0.12895205  0.62313937  1
  V  V11  1  0.37434964  0.25095381  0.12539970  1
  V  V12  1  0.38125259  0.48893475  0.37990968  1
  V  V13  1  0.63049596  0.50124339  0.12976603  1
  V  V14  1  0.00017199  0.87090156  0.36727431  1
  V  V15  1  0.86760372  0.63608938  0.74901527  1
  V  V16  1  0.75259067  0.74307865  0.00602362  1
  V  V17  1  0.75209844  0.00324231  0.25156681  1
  V  V18  1  0.49900652  0.48716221  0.50741729  1
  V  V19  1  0.73587490  0.25385249  0.00010664  1
  V  V20  1  -0.00071575  0.37752777  0.87758986  1
  V  V21  1  0.25180489  0.62528725  0.37585934  1
  V  V22  1  0.37624711  -0.00140620  0.37345234  1
  V  V23  1  0.24692080  0.37767310  0.12418847  1
  V  V24  1  0.25270698  0.38098264  0.62400198  1
  V  V25  1  0.12597029  0.12530778  0.50016626  1
  V  V26  1  0.87838420  0.00280816  0.87656523  1
  V  V27  1  0.87891558  0.86994942  0.50202016  1
  V  V28  1  0.87355028  0.50019667  0.87267175  1
  V  V29  1  0.12518955  0.86968150  0.24298527  1
  V  V30  1  0.00875255  0.12578205  0.11756010  1
  V  V31  1  0.36087074  0.62569247  0.74980174  1
  V  V32  1  0.00135612  -0.00139358  0.49861713  1
  V  V33  1  0.14095269  0.74550728  0.87565425  1
  V  V34  1  0.61972020  0.62051532  0.51076200  1
  V  V35  1  0.12475698  0.50319890  0.63004225  1
  V  V36  1  0.25023453  0.75319715  0.50846961  1
  V  V37  1  0.62645376  0.87307700  0.25164801  1
  V  V38  1  0.25412166  0.87085102  0.11204500  1
  V  V39  1  0.25592507  0.25668208  0.49958071  1
  V  V40  1  0.50425430  0.12686301  0.11746773  1
  V  V41  1  0.12921763  0.37927874  0.75210643  1
  V  V42  1  0.75333942  0.74453553  0.50192400  1
  V  V43  1  0.37578642  0.74304220  0.11525964  1
  V  V44  1  0.13181110  -0.00433355  0.62388835  1
  V  V45  1  0.25117634  0.12553352  0.37349410  1
  V  V46  1  0.12868774  0.63088334  0.00256657  1
  V  V47  1  0.75430029  0.87216882  0.62339860  1
  V  V48  1  0.37931837  0.12452598  0.24865347  1
  V  V49  1  0.12671087  0.24237990  0.88063741  1
  V  V50  1  0.73869775  0.12515201  0.88332750  1
  V  V51  1  -0.00324277  0.86776626  0.87260046  1
  V  V52  1  0.63447053  0.12812467  0.49515803  1
  V  V53  1  0.87872655  0.12777905  0.24777977  1
  V  V54  1  0.12549430  0.74911353  0.37069174  1
  V  V55  1  0.62711021  0.00537707  0.12146530  1
  V  V56  1  0.62511482  0.74364205  0.37865228  1
  V  V57  1  0.36137068  0.50493900  0.87165153  1
  V  V58  1  0.86965035  0.36046510  0.51118638  1
  V  V59  1  0.87928975  0.60854491  0.25999832  1
  V  V60  1  0.73300458  0.49600934  0.74366718  1
  V  V61  1  0.50176795  0.00292402  0.49682280  1
  V  V62  1  0.01109051  0.00129119  -0.00340703  1
  V  V63  1  0.00078267  0.24922808  0.25012898  1
  V  V64  1  -0.00746998  0.37793732  0.37823680  1
  V  V65  1  0.63286102  0.25545903  0.37596665  1
  V  V66  1  0.37461307  0.37645514  -0.00218332  1
  V  V67  1  0.13185274  0.87132822  0.74601127  1
  V  V68  1  0.74579350  0.35764732  0.63005642  1
  V  V69  1  0.75501512  0.87059498  0.12871325  1
  V  V70  1  -0.00997336  0.63168381  0.62507830  1
  V  V71  1  0.24907010  0.50205081  0.25168487  1
  V  V72  1  0.38121021  0.62353722  0.24798725  1
  V  V73  1  0.39247610  0.87372017  -0.00647530  1
  V  V74  1  0.38680415  -0.00204767  0.87052100  1
  V  V75  1  0.49930304  0.87327760  0.37556016  1
  V  V76  1  0.11704839  0.50626049  0.12498941  1
  V  V77  1  0.37204245  0.87602744  0.50864828  1
  V  V78  1  0.37858397  0.25371911  0.62582121  1
  V  V79  1  -0.01331791  0.50055227  0.50028825  1
  V  V80  1  0.49968684  0.26285977  0.25559932  1
  V  V81  1  0.64446574  0.37900218  0.24978513  1
  V  V82  1  0.74215485  0.62025512  0.87820538  1
  V  V83  1  0.88847490  0.73881912  0.13798317  1
  V  V84  1  0.62505004  -0.00120684  0.62415679  1
  Zn  Zn85  1  0.86748587  0.37862924  0.00104613  1
  Zn  Zn86  1  0.75097241  0.60730039  0.37450541  1
  Zn  Zn87  1  0.24628271  0.11499351  0.88451220  1
  Zn  Zn88  1  0.49933838  0.62090305  0.63273234  1
  Zn  Zn89  1  0.61888325  0.75658094  0.87669476  1
  Zn  Zn90  1  0.87492389  0.13139635  0.74815136  1
  Zn  Zn91  1  0.49542209  0.50242342  0.00452323  1
  Zn  Zn92  1  -0.00830999  0.75336320  0.74617722  1
  Zn  Zn93  1  -0.00513537  0.50869823  0.00253439  1
  Zn  Zn94  1  0.24400149  0.24031199  0.00592813  1
  Zn  Zn95  1  0.50257401  0.13223861  0.62384759  1
  Zn  Zn96  1  0.12259347  0.37864499  0.25220554  1
  Zn  Zn97  1  0.25068058  -0.00230881  0.74906521  1
  Zn  Zn98  1  0.75683097  0.13385053  0.37595294  1
  Zn  Zn99  1  0.87764779  0.87219375  0.00295930  1
  Zn  Zn100  1  0.50305039  0.75190581  0.75339101  1
  Zn  Zn101  1  0.37765909  0.75269761  0.62960686  1
  Zn  Zn102  1  0.60897011  0.33106036  0.75215987  1
  Zn  Zn103  1  0.51220670  0.00561521  -0.01321470  1
  Zn  Zn104  1  0.87672683  0.00056731  0.37343422  1
  Zn  Zn105  1  0.60742906  0.88531265  0.77290420  1
  Zn  Zn106  1  0.13386061  0.00431127  0.11612613  1
  Zn  Zn107  1  0.18808430  0.18815214  0.18863565  1
  Zn  Zn108  1  0.18685303  0.18879821  0.68916494  1
  Zn  Zn109  1  0.19086868  0.68781559  0.18387596  1
  Zn  Zn110  1  0.18607987  0.68731220  0.68938667  1
  Zn  Zn111  1  0.68922079  0.19218010  0.18673772  1
  Zn  Zn112  1  0.69269187  0.18173047  0.68507836  1
  Zn  Zn113  1  0.69349504  0.67888050  0.19177183  1
  Zn  Zn114  1  0.68319436  0.69087836  0.68942581  1
  Zn  Zn115  1  0.31145514  0.31390311  0.30918152  1
  Zn  Zn116  1  0.30999960  0.31516488  0.81228733  1
  Zn  Zn117  1  0.31299809  0.81056371  0.31142899  1
  Zn  Zn118  1  0.31794348  0.81491336  0.81237655  1
  Zn  Zn119  1  0.81219246  0.43581140  0.32170009  1
  Zn  Zn120  1  0.80881487  0.31158368  0.81566731  1
  Zn  Zn121  1  0.81333482  0.80714509  0.31525178  1
  Zn  Zn122  1  0.78568598  0.82130467  0.82363108  1
  Zn  Zn123  1  0.18382637  0.43969196  0.44038041  1
  Zn  Zn124  1  0.18502228  0.43889781  0.94212377  1
  Zn  Zn125  1  0.18793217  0.93602184  0.43458108  1
  Zn  Zn126  1  0.19320142  0.93386865  0.93089437  1
  Zn  Zn127  1  0.67952823  0.42929386  0.44653223  1
  Zn  Zn128  1  0.68070256  0.43656848  0.93743071  1
  Zn  Zn129  1  0.68936176  0.93653347  0.43629632  1
  Zn  Zn130  1  0.69474263  0.93914616  0.94313994  1
  Zn  Zn131  1  0.31684284  0.06048315  0.05633468  1
  Zn  Zn132  1  0.31249282  0.06540407  0.56183540  1
  Zn  Zn133  1  0.30682498  0.56470429  0.05902222  1
  Zn  Zn134  1  0.31311981  0.56233789  0.56282007  1
  Zn  Zn135  1  0.81940008  0.06378565  0.06140221  1
  Zn  Zn136  1  0.81597302  0.06220438  0.55864710  1
  Zn  Zn137  1  0.81033604  0.55983236  0.06773530  1
  Zn  Zn138  1  0.80578644  0.55769159  0.56465316  1
  Zn  Zn139  1  0.44004668  0.44356239  0.18320204  1
  Zn  Zn140  1  0.43461524  0.44018833  0.69188677  1
  Zn  Zn141  1  0.44081568  0.93546585  0.18272924  1
  Zn  Zn142  1  0.43966871  0.94473071  0.68835246  1
  Zn  Zn143  1  0.93994629  0.43349734  0.18662793  1
  Zn  Zn144  1  0.93316015  0.44157344  0.68956012  1
  Zn  Zn145  1  0.94004017  0.93861585  0.18401086  1
  Zn  Zn146  1  0.93980218  0.93846398  0.68632473  1
  Zn  Zn147  1  0.06564398  0.05779447  0.30913284  1
  Zn  Zn148  1  0.06145455  0.06132210  0.80744067  1
  Zn  Zn149  1  0.05662900  0.56346100  0.31192074  1
  Zn  Zn150  1  0.05961692  0.56763973  0.81226248  1
  Zn  Zn151  1  0.56397549  0.06734508  0.30891244  1
  Zn  Zn152  1  0.57138003  0.12116278  0.79867889  1
  Zn  Zn153  1  0.56415036  0.55733450  0.31631712  1
  Zn  Zn154  1  0.55022781  0.56229952  0.81869627  1
  Zn  Zn155  1  0.44158557  0.19055889  0.43771517  1
  Zn  Zn156  1  0.43126380  0.18906447  0.93864107  1
  Zn  Zn157  1  0.43827580  0.68480174  0.43927363  1
  Zn  Zn158  1  0.43868183  0.68895479  0.92693075  1
  Zn  Zn159  1  0.93637490  0.18823290  0.43605698  1
  Zn  Zn160  1  0.93803406  0.18793303  0.93716131  1
  Zn  Zn161  1  0.93754244  0.68817572  0.43167761  1
  Zn  Zn162  1  0.93669367  0.68412511  0.94114248  1
  Zn  Zn163  1  0.05965266  0.31736673  0.06064759  1
  Zn  Zn164  1  0.06415475  0.31389438  0.56259314  1
  Zn  Zn165  1  0.06271404  0.81221263  0.05798279  1
  Zn  Zn166  1  0.06304507  0.81053987  0.56140431  1
  Zn  Zn167  1  0.55987074  0.31942062  0.06770166  1
  Zn  Zn168  1  0.56638050  0.31281463  0.56231188  1
  Zn  Zn169  1  0.56689566  0.81096225  0.06468532  1
  Zn  Zn170  1  0.55880882  0.81307308  0.57460606  1
  O  O171  1  0.11325594  0.12288064  0.13042687  1
  O  O172  1  0.11770564  0.11877594  0.61899913  1
  O  O173  1  0.12725680  0.62098529  0.11506428  1
  O  O174  1  0.11668970  0.61952294  0.62126151  1
  O  O175  1  0.61784106  0.11661549  0.13327137  1
  O  O176  1  0.62755503  0.11365880  0.61314397  1
  O  O177  1  0.62895189  0.61290108  0.12224483  1
  O  O178  1  0.62626069  0.62358662  0.61325943  1
  O  O179  1  0.36908968  0.39081528  0.37273907  1
  O  O180  1  0.37548432  0.38305563  0.88084873  1
  O  O181  1  0.38145940  0.88035341  0.37919807  1
  O  O182  1  0.37522159  0.88251524  0.88424685  1
  O  O183  1  0.88753167  0.37479031  0.38732429  1
  O  O184  1  0.88222368  0.38268058  0.87404439  1
  O  O185  1  0.88438802  0.87574167  0.38035980  1
  O  O186  1  0.87862307  0.88570175  0.87497289  1
  O  O187  1  0.25575450  0.00476501  0.36671489  1
  O  O188  1  0.26280427  -0.00084155  0.86994322  1
  O  O189  1  0.25734174  0.50627980  0.37353862  1
  O  O190  1  0.26259502  0.49231372  0.87657177  1
  O  O191  1  0.75197444  -0.00020245  0.36000754  1
  O  O192  1  0.76077323  0.00870165  0.87083404  1
  O  O193  1  0.74593570  0.49539162  0.38653269  1
  O  O194  1  0.75269743  0.50496668  0.86958585  1
  O  O195  1  0.24093520  0.49444752  0.13028585  1
  O  O196  1  0.23870536  0.49155109  0.61691825  1
  O  O197  1  0.25364380  0.98990043  0.13043670  1
  O  O198  1  0.23513787  1.00325105  0.62218767  1
  O  O199  1  0.73190867  0.49418996  0.11997771  1
  O  O200  1  0.74757442  0.49105021  0.64113690  1
  O  O201  1  0.74928721  0.99406470  0.13358770  1
  O  O202  1  0.74877852  0.99715900  0.63012515  1
  O  O203  1  0.00083089  0.36786335  0.26123965  1
  O  O204  1  0.00791407  0.37218191  0.75641812  1
  O  O205  1  0.01171147  0.88127068  0.25542879  1
  O  O206  1  0.00704714  0.87268606  0.75600609  1
  O  O207  1  0.49714074  0.36407448  0.24660561  1
  O  O208  1  0.49808384  0.37643971  0.76301433  1
  O  O209  1  0.50709261  0.86652453  0.25503409  1
  O  O210  1  0.50716348  0.86901099  0.73005947  1
  O  O211  1  0.49493250  0.13291860  0.24046999  1
  O  O212  1  0.47665435  0.11901222  0.73917668  1
  O  O213  1  0.48973510  0.63051074  0.25645893  1
  O  O214  1  0.48440850  0.62499934  0.75078274  1
  O  O215  1  0.99616123  0.12692979  0.24337295  1
  O  O216  1  1.00080318  0.13412798  0.74011405  1
  O  O217  1  0.98060223  0.62404225  0.25328772  1
  O  O218  1  0.98635489  0.62878365  0.74267653  1
  O  O219  1  0.36867365  0.25984585  0.00873821  1
  O  O220  1  0.36201191  0.24513656  0.50477201  1
  O  O221  1  0.38345650  0.75486009  0.01026912  1
  O  O222  1  0.36712281  0.75853689  0.49796913  1
  O  O223  1  0.86981820  0.25167172  0.00531052  1
  O  O224  1  0.87903231  0.26141857  0.50240806  1
  O  O225  1  0.86512657  0.74506328  0.01338873  1
  O  O226  1  0.86615796  0.75754336  0.49328493  1
  O  O227  1  0.13431987  0.24516395  0.49447507  1
  O  O228  1  0.12313393  0.25680454  0.98385348  1
  O  O229  1  0.13196778  0.74433505  0.49290112  1
  O  O230  1  0.12269275  0.74413794  0.98638457  1
  O  O231  1  0.61794663  0.24006232  0.48927474  1
  O  O232  1  0.63720159  0.25155568  1.00954363  1
  O  O233  1  0.62874392  0.74254904  0.49399231  1
  O  O234  1  0.63769827  0.74166928  1.00481824  1
  O  O235  1  0.49391550  0.24461606  0.13200834  1
  O  O236  1  0.48187983  0.25241488  0.61515500  1
  O  O237  1  0.49510460  0.75319709  0.13823752  1
  O  O238  1  0.49387271  0.73892283  0.62561472  1
  O  O239  1  0.99706109  0.24395333  0.12745305  1
  O  O240  1  1.00918691  0.24188686  0.63353967  1
  O  O241  1  0.98527901  0.75421090  0.12157255  1
  O  O242  1  1.00127603  0.73575914  0.62460988  1
  O  O243  1  0.00568793  0.25632804  0.37094776  1
  O  O244  1  0.00958161  0.25809062  0.86995613  1
  O  O245  1  0.00970092  0.76316455  0.37848586  1
  O  O246  1  -0.00404129  0.76168091  0.87341574  1
  O  O247  1  0.50907116  0.24304797  0.36174560  1
  O  O248  1  0.48838672  0.26878755  0.87974402  1
  O  O249  1  0.50609579  0.75328478  0.36674280  1
  O  O250  1  0.50516430  0.75715255  0.87228206  1
  O  O251  1  0.24429024  0.13216868  0.49208981  1
  O  O252  1  0.25038550  0.12745449  0.99837181  1
  O  O253  1  0.24437410  0.63171499  0.49429865  1
  O  O254  1  0.23022505  0.62261900  0.99637262  1
  O  O255  1  0.73972757  0.11918572  0.49444573  1
  O  O256  1  0.75757881  0.13065574  0.98862505  1
  O  O257  1  0.74285682  0.63065096  0.49880678  1
  O  O258  1  0.74263978  0.62699017  0.99656532  1
  O  O259  1  0.25664326  0.37348072  0.01037862  1
  O  O260  1  0.24340795  0.36674436  0.50946741  1
  O  O261  1  0.26117655  0.87779299  0.00953140  1
  O  O262  1  0.25940354  0.86512107  0.49004951  1
  O  O263  1  0.75005175  0.35764947  -0.01098314  1
  O  O264  1  0.75353591  0.37512866  0.52229061  1
  O  O265  1  0.75637421  0.86372898  0.01342834  1
  O  O266  1  0.75988618  0.87062011  0.50460112  1
  O  O267  1  0.13107312  0.50220857  0.24376999  1
  O  O268  1  0.11745383  0.49535801  0.73845952  1
  O  O269  1  0.13603864  0.98785681  0.24523967  1
  O  O270  1  0.12530610  0.99065106  0.74120817  1
  O  O271  1  0.62300585  0.48892155  0.24437366  1
  O  O272  1  0.63497540  0.50318691  0.75672549  1
  O  O273  1  0.63372360  0.99479107  0.24250718  1
  O  O274  1  0.63926796  1.00239075  0.73914206  1
  O  O275  1  0.37184782  0.00239779  0.25339346  1
  O  O276  1  0.36936982  0.00826922  0.75295276  1
  O  O277  1  0.37222843  0.50667905  0.25849131  1
  O  O278  1  0.37286204  0.50873081  0.76349930  1
  O  O279  1  0.87042440  0.01011712  0.24734618  1
  O  O280  1  0.86769480  0.00219266  0.75510687  1
  O  O281  1  0.87453868  0.50295935  0.24876910  1
  O  O282  1  0.86389761  0.50687378  0.76103792  1
  O  O283  1  0.11501374  0.36805332  0.37786972  1
  O  O284  1  0.11833992  0.37287188  0.86819887  1
  O  O285  1  0.12055459  0.86972773  0.36447132  1
  O  O286  1  0.11718331  0.86332608  0.86887130  1
  O  O287  1  0.62269280  0.36888892  0.36030687  1
  O  O288  1  0.60714566  0.37508038  0.87215305  1
  O  O289  1  0.62045466  0.86368572  0.37142346  1
  O  O290  1  0.67225856  0.86478756  0.86401134  1
  O  O291  1  0.38273547  0.12949362  0.13176162  1
  O  O292  1  0.37092183  0.13570751  0.63162898  1
  O  O293  1  0.36919023  0.63147885  0.13398751  1
  O  O294  1  0.37165649  0.62286541  0.63986483  1
  O  O295  1  0.88858413  0.13087870  0.12865095  1
  O  O296  1  0.89054234  0.12053585  0.62480879  1
  O  O297  1  0.87212647  0.63267675  0.13605694  1
  O  O298  1  0.87894545  0.61794241  0.63509448  1
  O  O299  1  0.25483774  0.26110938  0.12836353  1
  O  O300  1  0.25377997  0.25805972  0.61690442  1
  O  O301  1  0.26485990  0.75904347  0.12982379  1
  O  O302  1  0.25038001  0.74747781  0.61135761  1
  O  O303  1  0.76013749  0.24002672  0.10869636  1
  O  O304  1  0.76176590  0.25949053  0.63744977  1
  O  O305  1  0.75659075  0.75483879  0.12393461  1
  O  O306  1  0.74534998  0.75887062  0.61096143  1
  O  O307  1  0.24615637  0.24744694  0.38055220  1
  O  O308  1  0.23275916  0.25310340  0.87452642  1
  O  O309  1  0.24459487  0.74306578  0.38028351  1
  O  O310  1  0.23841546  0.75443647  0.87554447  1
  O  O311  1  0.73264039  0.24966967  0.37071461  1
  O  O312  1  0.75289042  0.23456806  0.88557316  1
  O  O313  1  0.74003287  0.75142764  0.38725398  1
  O  O314  1  0.75485068  0.73038972  0.88946965  1
  O  O315  1  -0.00079478  0.11608272  0.00610788  1
  O  O316  1  0.00672823  0.12078569  0.50353908  1
  O  O317  1  0.01701751  0.62223267  -0.00794979  1
  O  O318  1  0.00098320  0.61867432  0.50498118  1
  O  O319  1  0.49501039  0.12514516  0.01356388  1
  O  O320  1  0.50921521  0.11715695  0.50006171  1
  O  O321  1  0.51101935  0.62697232  -0.00025038  1
  O  O322  1  0.50662665  0.61653796  0.50131561  1
  O  O323  1  0.50192490  0.38806632  0.50101062  1
  O  O324  1  0.48513352  0.37542536  0.99694782  1
  O  O325  1  0.49258296  0.88195004  0.49423364  1
  O  O326  1  0.49510348  0.88039275  1.00706211  1
  O  O327  1  0.99354798  0.38124427  0.49917186  1
  O  O328  1  0.99739399  0.38156234  0.98614530  1
  O  O329  1  0.99516663  0.87732526  0.49259063  1
  O  O330  1  0.99669319  0.88150095  0.99051576  1
  O  O331  1  0.48615247  0.50213868  0.38275321  1
  O  O332  1  0.48541258  0.48781264  0.88352936  1
  O  O333  1  0.49701898  0.99513607  0.37768841  1
  O  O334  1  0.48861035  1.01128343  0.87087991  1
  O  O335  1  1.00810207  0.48996429  0.38903572  1
  O  O336  1  0.99052510  0.49352529  0.87115026  1
  O  O337  1  1.00335488  0.98737755  0.38029535  1
  O  O338  1  0.99702534  0.99144111  0.87743731  1
  O  O339  1  0.00397660  0.00674225  0.11361507  1
  O  O340  1  0.00975411  0.00719828  0.61771168  1
  O  O341  1  0.01377840  0.49406896  0.12361455  1
  O  O342  1  0.00446027  0.50969637  0.61999149  1
  O  O343  1  0.51164508  0.00898127  0.12707026  1
  O  O344  1  0.51090043  0.00409294  0.61367330  1
  O  O345  1  0.51717996  0.49572965  0.12009277  1
  O  O346  1  0.49071373  0.50094292  0.61117649  1
  O  O347  1  0.24728352  0.38348966  0.24084974  1
  O  O348  1  0.23523132  0.37219407  0.74151930  1
  O  O349  1  0.24712493  0.87942522  0.24137949  1
  O  O350  1  0.23567926  0.87366219  0.75104832  1
  O  O351  1  0.74241044  0.37219984  0.24988946  1
  O  O352  1  0.74712162  0.38297089  0.74704884  1
  O  O353  1  0.74724081  0.88035034  0.24671163  1
  O  O354  1  0.76124508  0.88418266  0.72943826  1
  O  O355  1  0.25763812  0.11800673  0.25381966  1
  O  O356  1  0.25869018  0.12184845  0.75142324  1
  O  O357  1  0.25960410  0.62066275  0.25569646  1
  O  O358  1  0.26041591  0.62486562  0.75043093  1
  O  O359  1  0.76000915  0.11862621  0.24818004  1
  O  O360  1  0.75684131  0.11736966  0.76290554  1
  O  O361  1  0.76961635  0.62992986  0.25831825  1
  O  O362  1  0.75030830  0.61418776  0.75719632  1
  O  O363  1  0.37092938  0.11900110  0.36895408  1
  O  O364  1  0.37131500  0.12202247  0.86382761  1
  O  O365  1  0.36873074  0.61976311  0.36672959  1
  O  O366  1  0.37244796  0.61271913  0.86946560  1
  O  O367  1  0.87570476  0.12226384  0.36383904  1
  O  O368  1  0.87589037  0.11250807  0.87247576  1
  O  O369  1  0.87340415  0.62214931  0.36527440  1
  O  O370  1  0.86648256  0.61729302  0.86955430  1
  O  O371  1  0.13258639  0.38283890  0.12549224  1
  O  O372  1  0.12984365  0.38340075  0.63186377  1
  O  O373  1  0.13556908  0.87329076  0.12745887  1
  O  O374  1  0.11704419  0.88234251  0.63319750  1
  O  O375  1  0.62405027  0.38131217  0.14214011  1
  O  O376  1  0.63823887  0.36027756  0.63800464  1
  O  O377  1  0.63796522  0.87882686  0.13360327  1
  O  O378  1  0.63885961  0.89004724  0.61191113  1
  O  O379  1  0.11956298  0.25267598  0.25881720  1
  O  O380  1  0.11629412  0.25979991  0.75782509  1
  O  O381  1  0.13225239  0.76191684  0.25323764  1
  O  O382  1  0.11991778  0.75372873  0.76009585  1
  O  O383  1  0.61968890  0.26225059  0.25215008  1
  O  O384  1  0.61477229  0.21910819  0.75426658  1
  O  O385  1  0.61974827  0.75023904  0.25668232  1
  O  O386  1  0.62728340  0.75784004  0.75632638  1
  O  O387  1  0.38128281  0.24551805  0.24574124  1
  O  O388  1  0.36563309  0.24090952  0.74147744  1
  O  O389  1  0.38373730  0.74252274  0.24351465  1
  O  O390  1  0.37161249  0.73719968  0.74958999  1
  O  O391  1  0.88351448  0.23579791  0.23831573  1
  O  O392  1  0.89156704  0.25082348  0.75916672  1
  O  O393  1  0.87653203  0.74687010  0.24057604  1
  O  O394  1  0.86521246  0.73783886  0.75684008  1
  O  O395  1  0.38382929  0.50536824  0.48767891  1
  O  O396  1  0.37237219  0.49481891  0.99257127  1
  O  O397  1  0.37925238  0.99513748  0.49328417  1
  O  O398  1  0.38468810  0.99026324  0.99083406  1
  O  O399  1  0.88432819  0.49182317  0.50760249  1
  O  O400  1  0.87373811  0.49987252  0.98840993  1
  O  O401  1  0.88382088  0.99149884  0.49414928  1
  O  O402  1  0.88637710  0.99632165  0.99216477  1
  O  O403  1  0.11500865  -0.00831941  -0.00316092  1
  O  O404  1  0.12041239  0.00318081  0.50386424  1
  O  O405  1  0.12208483  0.50965195  0.00779702  1
  O  O406  1  0.11470454  0.50583649  0.51160129  1
  O  O407  1  0.62737798  -0.00626905  0.01659147  1
  O  O408  1  0.62109979  0.00659003  0.50063568  1
  O  O409  1  0.62232744  0.50674325  0.00962785  1
  O  O410  1  0.60643230  0.50613362  0.49539359  1
  O  O411  1  0.36593826  0.37477007  0.11892998  1
  O  O412  1  0.36031683  0.37024792  0.63370641  1
  O  O413  1  0.37247328  0.86676312  0.11678007  1
  O  O414  1  0.37319955  0.87812629  0.61077772  1
  O  O415  1  0.88069705  0.35977042  0.12133484  1
  O  O416  1  0.86357712  0.37871190  0.62236034  1
  O  O417  1  0.86669839  0.86559862  0.12874915  1
  O  O418  1  0.87249524  0.87901831  0.60982824  1
  O  O419  1  0.13094114  0.13054717  0.37851883  1
  O  O420  1  0.12375917  0.13968865  0.86761626  1
  O  O421  1  0.12955474  0.62907525  0.37998176  1
  O  O422  1  0.12264906  0.64025564  0.87684199  1
  O  O423  1  0.62854971  0.13184409  0.37921809  1
  O  O424  1  0.64061636  0.10875380  0.88732427  1
  O  O425  1  0.62556665  0.63400924  0.38110348  1
  O  O426  1  0.63069784  0.62134734  0.88744151  1
