# generated using pymatgen
data_V85Zn86O256
_symmetry_space_group_name_H-M   'P 1'
_cell_length_a   16.93386439
_cell_length_b   16.95913956
_cell_length_c   16.95176487
_cell_angle_alpha   90.01912434
_cell_angle_beta   89.96816768
_cell_angle_gamma   89.99933624
_symmetry_Int_Tables_number   1
_chemical_formula_structural   V85Zn86O256
_chemical_formula_sum   'V85 Zn86 O256'
_cell_volume   4868.27071337
_cell_formula_units_Z   1
loop_
 _symmetry_equiv_pos_site_id
 _symmetry_equiv_pos_as_xyz
  1  'x, y, z'
loop_
 _atom_site_type_symbol
 _atom_site_label
 _atom_site_symmetry_multiplicity
 _atom_site_fract_x
 _atom_site_fract_y
 _atom_site_fract_z
 _atom_site_occupancy
  V  V0  1  -0.00260102  0.75170842  0.74574205  1
  V  V1  1  0.24171332  0.49710633  0.25017240  1
  V  V2  1  0.11988362  0.74960807  0.87448343  1
  V  V3  1  0.86841316  0.00844466  0.37504891  1
  V  V4  1  0.51373004  0.11720883  0.61388802  1
  V  V5  1  0.38947185  -0.00234498  0.37863296  1
  V  V6  1  0.12107399  0.12652328  0.49732377  1
  V  V7  1  -0.00486967  0.00304951  -0.00543342  1
  V  V8  1  0.38183995  0.11909188  0.75091186  1
  V  V9  1  0.10885894  0.62258016  -0.00185741  1
  V  V10  1  0.87388008  0.61707245  0.74918254  1
  V  V11  1  0.50032984  0.00130737  -0.00371921  1
  V  V12  1  0.63549587  0.24624520  0.36891089  1
  V  V13  1  0.12363629  -0.00228480  0.62356788  1
  V  V14  1  0.85930790  0.75332191  0.61938535  1
  V  V15  1  0.38106005  0.25089209  0.62609127  1
  V  V16  1  0.63762246  0.24854773  0.87501411  1
  V  V17  1  0.37530488  0.37649281  0.50644918  1
  V  V18  1  0.00165195  0.49644131  0.49704198  1
  V  V19  1  0.64567879  0.62810709  0.49721502  1
  V  V20  1  0.87949917  0.49492694  0.90421092  1
  V  V21  1  0.87154245  0.36962991  0.50302992  1
  V  V22  1  0.50612464  0.50653555  0.00560814  1
  V  V23  1  0.74851945  0.87416778  0.12490923  1
  V  V24  1  0.39328222  0.87662729  0.49635155  1
  V  V25  1  0.37697998  0.75152952  0.62492354  1
  V  V26  1  0.85772193  0.87056019  0.49887400  1
  V  V27  1  0.50137153  0.62510738  0.62094583  1
  V  V28  1  0.12378601  0.12718164  -0.00099461  1
  V  V29  1  0.73589694  0.37858032  0.13580974  1
  V  V30  1  0.24903279  0.24987615  -0.00372955  1
  V  V31  1  -0.00396723  0.87486899  0.37487326  1
  V  V32  1  -0.00273506  -0.00158129  0.49892329  1
  V  V33  1  -0.01219646  0.13569726  0.63794408  1
  V  V34  1  0.38534687  0.62544917  0.24519338  1
  V  V35  1  0.74699574  0.23289420  0.50164966  1
  V  V36  1  0.12710504  0.62369537  0.49920854  1
  V  V37  1  0.74679234  0.00575736  0.25105441  1
  V  V38  1  0.37319997  0.87441762  -0.00174080  1
  V  V39  1  0.12182306  0.25434899  0.36099496  1
  V  V40  1  0.87117005  0.87776384  -0.00590933  1
  V  V41  1  0.73663385  0.50724189  0.25861404  1
  V  V42  1  0.00117296  0.37233246  0.36086843  1
  V  V43  1  0.62895297  0.49900773  0.62446588  1
  V  V44  1  0.37567942  0.49720173  0.37506367  1
  V  V45  1  -0.00159554  0.74616421  0.24851378  1
  V  V46  1  0.11526307  0.49910409  0.12176714  1
  V  V47  1  0.24822120  0.87317504  0.12580379  1
  V  V48  1  0.50128950  0.26153246  0.25081906  1
  V  V49  1  0.00078782  0.62605269  0.62224875  1
  V  V50  1  0.88175118  0.26293111  0.13311981  1
  V  V51  1  0.62934640  0.12725446  -0.00382287  1
  V  V52  1  -0.00261969  0.12809815  0.13383292  1
  V  V53  1  0.50255570  0.74923868  0.75843918  1
  V  V54  1  0.75723759  -0.00169362  0.76329817  1
  V  V55  1  0.62631174  0.00066260  0.12645750  1
  V  V56  1  0.63163768  -0.00643112  0.61585249  1
  V  V57  1  0.12589270  0.87617083  0.74980102  1
  V  V58  1  0.24978415  0.25331727  0.49879843  1
  V  V59  1  0.37486094  0.49965980  0.87379246  1
  V  V60  1  0.49781270  0.12946033  0.12658496  1
  V  V61  1  0.50522882  0.37543997  0.87515876  1
  V  V62  1  0.60893283  0.86832732  0.25416543  1
  V  V63  1  0.50996050  0.24588830  0.74822950  1
  V  V64  1  0.63173404  0.87143863  0.75602657  1
  V  V65  1  0.62790216  0.64300633  0.00237426  1
  V  V66  1  0.75339938  0.26197181  0.00577905  1
  V  V67  1  0.87222833  0.50639458  0.37374765  1
  V  V68  1  0.25309344  0.75269640  0.49855691  1
  V  V69  1  0.62505340  0.75123100  0.37918994  1
  V  V70  1  0.24300045  0.37460882  0.12744114  1
  V  V71  1  0.38392223  0.74479872  0.12808663  1
  V  V72  1  0.19194691  0.32501816  0.68193183  1
  V  V73  1  0.86956344  0.75139235  0.12467132  1
  V  V74  1  0.25144658  0.00008492  0.25222287  1
  V  V75  1  0.25138658  0.62511979  0.37208421  1
  V  V76  1  0.63460799  0.37667808  0.74967505  1
  V  V77  1  0.12540453  0.75023483  0.37480328  1
  V  V78  1  0.37406364  0.37532303  -0.00018678  1
  V  V79  1  0.24648027  0.62209201  0.87431182  1
  V  V80  1  0.25105864  0.12483691  0.37578690  1
  V  V81  1  0.12452615  0.87453509  0.24984230  1
  V  V82  1  0.13025039  0.50117004  0.63291107  1
  V  V83  1  0.24695237  0.74884016  0.00079963  1
  V  V84  1  0.00710987  0.37301189  0.88018918  1
  Zn  Zn85  1  0.37735859  0.12698132  0.25354481  1
  Zn  Zn86  1  0.25335349  -0.00287936  0.75271820  1
  Zn  Zn87  1  0.75518907  0.37208069  0.62258639  1
  Zn  Zn88  1  0.37339686  0.25059013  0.12678792  1
  Zn  Zn89  1  0.37547109  0.62430217  0.74954436  1
  Zn  Zn90  1  0.50723101  0.37723316  0.37300231  1
  Zn  Zn91  1  0.83634061  0.14433534  0.82094726  1
  Zn  Zn92  1  0.75191159  0.50231816  0.75680309  1
  Zn  Zn93  1  0.50308981  0.49846223  0.49894528  1
  Zn  Zn94  1  0.12356866  0.00147372  0.12516299  1
  Zn  Zn95  1  0.87017834  0.13020242  0.25110703  1
  Zn  Zn96  1  0.74268226  0.63356726  0.87816987  1
  Zn  Zn97  1  0.50385122  0.86868840  0.87878126  1
  Zn  Zn98  1  -0.00954195  0.62120189  0.11954156  1
  Zn  Zn99  1  0.25017643  0.49589965  0.74835647  1
  Zn  Zn100  1  0.12123217  0.25101350  0.85952940  1
  Zn  Zn101  1  -0.00439005  0.88101273  0.87225423  1
  Zn  Zn102  1  0.24957552  0.12161858  0.87403722  1
  Zn  Zn103  1  0.61461362  0.50658588  0.13554830  1
  Zn  Zn104  1  0.86412620  0.63058511  0.25415067  1
  Zn  Zn105  1  0.37468366  -0.00213121  0.87307765  1
  Zn  Zn106  1  0.25393961  0.87877671  0.62296156  1
  Zn  Zn107  1  0.18915549  0.18569714  0.18447750  1
  Zn  Zn108  1  0.19065990  0.16282628  0.68308529  1
  Zn  Zn109  1  0.18792650  0.68394021  0.18548596  1
  Zn  Zn110  1  0.18944431  0.68685604  0.68814700  1
  Zn  Zn111  1  0.68519848  0.18882875  0.18726344  1
  Zn  Zn112  1  0.72892423  0.20298801  0.70453010  1
  Zn  Zn113  1  0.67964621  0.68740853  0.18399575  1
  Zn  Zn114  1  0.68744753  0.68613444  0.68933828  1
  Zn  Zn115  1  0.31329419  0.31297786  0.31141145  1
  Zn  Zn116  1  0.32074537  0.30495801  0.81708886  1
  Zn  Zn117  1  0.31940774  0.81365032  0.31277077  1
  Zn  Zn118  1  0.31117543  0.81093432  0.81251097  1
  Zn  Zn119  1  0.81097620  0.31901345  0.31384409  1
  Zn  Zn120  1  0.85618503  0.32791018  0.79515730  1
  Zn  Zn121  1  0.80515718  0.81504000  0.31187862  1
  Zn  Zn122  1  0.80870061  0.80896007  0.81204515  1
  Zn  Zn123  1  0.18783889  0.43423189  0.43909563  1
  Zn  Zn124  1  0.18087312  0.43652250  0.93695619  1
  Zn  Zn125  1  0.19122383  0.93615766  0.43707956  1
  Zn  Zn126  1  0.18586200  0.94079200  0.93531432  1
  Zn  Zn127  1  0.68512815  0.43327840  0.43487608  1
  Zn  Zn128  1  0.69473479  0.44112109  0.93733406  1
  Zn  Zn129  1  0.68315962  0.93614994  0.43123156  1
  Zn  Zn130  1  0.68649409  0.93178834  0.93879625  1
  Zn  Zn131  1  0.31225646  0.06193477  0.06277200  1
  Zn  Zn132  1  0.31635508  0.06161717  0.56265668  1
  Zn  Zn133  1  0.30804554  0.56195606  0.06088786  1
  Zn  Zn134  1  0.31247306  0.56293548  0.56323488  1
  Zn  Zn135  1  0.83328062  0.08881900  0.02155140  1
  Zn  Zn136  1  0.80886267  0.05507625  0.56725098  1
  Zn  Zn137  1  0.80223536  0.56760910  0.07187626  1
  Zn  Zn138  1  0.81716119  0.55735681  0.56678614  1
  Zn  Zn139  1  0.42979865  0.43847867  0.18627496  1
  Zn  Zn140  1  0.44301970  0.43622149  0.68897352  1
  Zn  Zn141  1  0.43373569  0.94142060  0.18287307  1
  Zn  Zn142  1  0.44509855  0.93500419  0.68544283  1
  Zn  Zn143  1  0.92980770  0.44136562  0.18873052  1
  Zn  Zn144  1  0.94781927  0.43326767  0.68465381  1
  Zn  Zn145  1  0.93532119  0.94176644  0.18508588  1
  Zn  Zn146  1  0.93520737  0.93785757  0.68265901  1
  Zn  Zn147  1  0.06123393  0.06213457  0.31258564  1
  Zn  Zn148  1  0.06059382  0.06540678  0.81358594  1
  Zn  Zn149  1  0.06039288  0.56219593  0.31096984  1
  Zn  Zn150  1  0.05321631  0.55892869  0.81431138  1
  Zn  Zn151  1  0.56639635  0.06931995  0.31220215  1
  Zn  Zn152  1  0.56972946  0.06004711  0.81106893  1
  Zn  Zn153  1  0.56048150  0.57009899  0.32067783  1
  Zn  Zn154  1  0.56446258  0.56580113  0.81582265  1
  Zn  Zn155  1  0.44112695  0.18791777  0.43542505  1
  Zn  Zn156  1  0.44134248  0.18978274  0.93531772  1
  Zn  Zn157  1  0.44341946  0.68860510  0.43479390  1
  Zn  Zn158  1  0.43521153  0.68395060  0.94066492  1
  Zn  Zn159  1  0.93690443  0.18983072  0.43812374  1
  Zn  Zn160  1  0.94356774  0.20267000  0.94726874  1
  Zn  Zn161  1  0.93565572  0.68756740  0.43834554  1
  Zn  Zn162  1  0.90785088  0.70011278  0.92375849  1
  Zn  Zn163  1  0.06057465  0.31499223  0.05938563  1
  Zn  Zn164  1  0.05436333  0.30814674  0.55319657  1
  Zn  Zn165  1  0.05790067  0.81323059  0.06268069  1
  Zn  Zn166  1  0.05995549  0.81371844  0.56068075  1
  Zn  Zn167  1  0.56202563  0.31631873  0.06292234  1
  Zn  Zn168  1  0.56753605  0.30888229  0.55745022  1
  Zn  Zn169  1  0.56020360  0.81499612  0.06752173  1
  Zn  Zn170  1  0.57101445  0.81013992  0.56619654  1
  O  O171  1  0.11695498  0.12541242  0.11840114  1
  O  O172  1  0.11424919  0.11579758  0.61497705  1
  O  O173  1  0.12207476  0.61770837  0.11451577  1
  O  O174  1  0.12146369  0.61897764  0.61905385  1
  O  O175  1  0.61297779  0.12133676  0.11895757  1
  O  O176  1  0.61649954  0.11011314  0.62741472  1
  O  O177  1  0.61920017  0.62217931  0.11010313  1
  O  O178  1  0.62121716  0.62039987  0.61625113  1
  O  O179  1  0.37414435  0.38714012  0.38051560  1
  O  O180  1  0.38204909  0.38155362  0.87980405  1
  O  O181  1  0.37377077  0.88419008  0.38402431  1
  O  O182  1  0.37646062  0.87227314  0.88845225  1
  O  O183  1  0.88220854  0.38566533  0.38149167  1
  O  O184  1  0.87204154  0.39179031  0.88960383  1
  O  O185  1  0.87938791  0.87988309  0.38011081  1
  O  O186  1  0.87644818  0.87430769  0.89143778  1
  O  O187  1  0.25362612  0.00485132  0.36558205  1
  O  O188  1  0.25602553  0.00307128  0.87176360  1
  O  O189  1  0.25361772  0.50309803  0.36762204  1
  O  O190  1  0.25594573  0.50479506  0.87323667  1
  O  O191  1  0.75723259  -0.00525754  0.36519311  1
  O  O192  1  0.74840181  -0.00905607  0.86352351  1
  O  O193  1  0.75568084  0.49630876  0.36500091  1
  O  O194  1  0.76772749  0.50713762  0.87676976  1
  O  O195  1  0.24100853  0.49400662  0.13094124  1
  O  O196  1  0.23965779  0.50359755  0.62871866  1
  O  O197  1  0.25028373  0.99351479  0.13633601  1
  O  O198  1  0.23613622  1.00150345  0.62628078  1
  O  O199  1  0.74385828  0.49440369  0.14005502  1
  O  O200  1  0.73738376  0.49845914  0.62735555  1
  O  O201  1  0.73854922  0.99191056  0.13314469  1
  O  O202  1  0.73555309  0.99946356  0.63616914  1
  O  O203  1  -0.00458185  0.37940751  0.26177358  1
  O  O204  1  -0.03172356  0.36970088  0.77367508  1
  O  O205  1  0.00400415  0.86762110  0.25534088  1
  O  O206  1  0.00936460  0.86941288  0.74795245  1
  O  O207  1  0.49328656  0.36485381  0.24827620  1
  O  O208  1  0.51505267  0.36777812  0.75488102  1
  O  O209  1  0.51141399  0.88064092  0.24179822  1
  O  O210  1  0.50852861  0.86597528  0.75458828  1
  O  O211  1  0.49869077  0.13437652  0.24006003  1
  O  O212  1  0.49969080  0.12859218  0.74313220  1
  O  O213  1  0.48433656  0.61462018  0.24728510  1
  O  O214  1  0.50252305  0.63166682  0.73885452  1
  O  O215  1  0.99692149  0.12045189  0.23729520  1
  O  O216  1  0.99934731  0.12318251  0.73793424  1
  O  O217  1  0.99868574  0.63886652  0.24972208  1
  O  O218  1  0.99533036  0.63264248  0.74138752  1
  O  O219  1  0.36779427  0.25631120  0.00007652  1
  O  O220  1  0.36973327  0.25493035  0.50686467  1
  O  O221  1  0.36738950  0.75462133  0.00583477  1
  O  O222  1  0.37212852  0.75472876  0.50407638  1
  O  O223  1  0.86262669  0.25346192  0.01941910  1
  O  O224  1  0.85929576  0.25862632  0.48715709  1
  O  O225  1  0.88801852  0.76447238  0.02032156  1
  O  O226  1  0.88057825  0.75885064  0.50741021  1
  O  O227  1  0.13122620  0.24169418  0.49350699  1
  O  O228  1  0.13258273  0.24009376  1.00103629  1
  O  O229  1  0.13201031  0.74410216  0.49560271  1
  O  O230  1  0.12770734  0.74485541  0.99338687  1
  O  O231  1  0.63973363  0.24964398  0.48845707  1
  O  O232  1  0.62644784  0.24570575  0.99456981  1
  O  O233  1  0.62636918  0.73743806  0.49587644  1
  O  O234  1  0.61785433  0.74210841  1.00122108  1
  O  O235  1  0.49924815  0.24520824  0.13103609  1
  O  O236  1  0.50371512  0.23814163  0.63066563  1
  O  O237  1  0.48281617  0.75144404  0.12235149  1
  O  O238  1  0.49177255  0.74366883  0.63093602  1
  O  O239  1  0.98765517  0.24907319  0.12309990  1
  O  O240  1  1.00067165  0.23440855  0.62004833  1
  O  O241  1  0.99371162  0.74955301  0.13607930  1
  O  O242  1  1.00067348  0.74493293  0.63331352  1
  O  O243  1  0.00934819  0.25918380  0.37848069  1
  O  O244  1  0.00428486  0.26293406  0.87492275  1
  O  O245  1  0.00527327  0.75511945  0.36901811  1
  O  O246  1  0.00073713  0.75233219  0.85919016  1
  O  O247  1  0.50376639  0.25315876  0.36493025  1
  O  O248  1  0.51213032  0.25778231  0.86880423  1
  O  O249  1  0.52159223  0.73501082  0.36883377  1
  O  O250  1  0.49230766  0.74577847  0.86124602  1
  O  O251  1  0.23919584  0.13023014  0.49822165  1
  O  O252  1  0.24426164  0.13302256  1.00101611  1
  O  O253  1  0.24779870  0.63325607  0.49234360  1
  O  O254  1  0.24139103  0.62915158  0.98849163  1
  O  O255  1  0.75632493  0.13469821  0.50071374  1
  O  O256  1  0.73272516  0.14211736  1.01382504  1
  O  O257  1  0.74332403  0.62395242  0.50506286  1
  O  O258  1  0.73087694  0.62369611  1.00221555  1
  O  O259  1  0.25271924  0.36829954  0.00346813  1
  O  O260  1  0.26426408  0.36781287  0.49655494  1
  O  O261  1  0.25491000  0.87085338  0.00493566  1
  O  O262  1  0.25440146  0.86340362  0.50206791  1
  O  O263  1  0.74120116  0.36763180  0.01412578  1
  O  O264  1  0.75969893  0.37340451  0.49962029  1
  O  O265  1  0.75586796  0.88025259  0.01519317  1
  O  O266  1  0.75883887  0.87342508  0.49407248  1
  O  O267  1  0.13601164  0.50674921  0.24178733  1
  O  O268  1  0.12314732  0.50258084  0.73686007  1
  O  O269  1  0.13403972  0.99310140  0.25042960  1
  O  O270  1  0.12424909  0.99217151  0.74199364  1
  O  O271  1  0.63214829  0.50421984  0.25535235  1
  O  O272  1  0.62612403  0.49361148  0.74450282  1
  O  O273  1  0.62823400  0.99242083  0.24821911  1
  O  O274  1  0.63057916  0.98522558  0.74663535  1
  O  O275  1  0.36657042  0.00031385  0.25761821  1
  O  O276  1  0.37807557  0.00527598  0.75001392  1
  O  O277  1  0.36321135  0.50477726  0.25651074  1
  O  O278  1  0.37673967  0.50063386  0.76255109  1
  O  O279  1  0.86514664  0.00011521  0.25815867  1
  O  O280  1  0.85745892  -0.01135962  0.74707742  1
  O  O281  1  0.86403781  0.50633292  0.25859780  1
  O  O282  1  0.87378953  0.51493067  0.72933827  1
  O  O283  1  0.11547694  0.36574306  0.37972629  1
  O  O284  1  0.11319462  0.37483065  0.86759645  1
  O  O285  1  0.11916057  0.86876817  0.36963261  1
  O  O286  1  0.12149290  0.86817518  0.86607871  1
  O  O287  1  0.62041599  0.35714435  0.38033501  1
  O  O288  1  0.62533516  0.37146836  0.86789840  1
  O  O289  1  0.61999109  0.86821052  0.36271686  1
  O  O290  1  0.62174632  0.87193582  0.86195069  1
  O  O291  1  0.38790786  0.12621758  0.12360954  1
  O  O292  1  0.38453448  0.12844498  0.63434533  1
  O  O293  1  0.36508677  0.63266560  0.13251306  1
  O  O294  1  0.38328400  0.63136692  0.62736612  1
  O  O295  1  0.88344959  0.13826816  0.12341476  1
  O  O296  1  0.89114227  0.11614330  0.61823421  1
  O  O297  1  0.87401235  0.63668779  0.13076005  1
  O  O298  1  0.88287321  0.63494519  0.62599686  1
  O  O299  1  0.25031401  0.25761797  0.11496156  1
  O  O300  1  0.25136045  0.25600748  0.62400510  1
  O  O301  1  0.25253402  0.75616317  0.11821866  1
  O  O302  1  0.26358093  0.74758804  0.61887209  1
  O  O303  1  0.75275374  0.26107446  0.12510502  1
  O  O304  1  0.74174908  0.25444666  0.60425243  1
  O  O305  1  0.75826474  0.76022480  0.13458179  1
  O  O306  1  0.76058974  0.74925481  0.62651974  1
  O  O307  1  0.24512776  0.24380051  0.37965404  1
  O  O308  1  0.24640489  0.24873302  0.88605164  1
  O  O309  1  0.24559778  0.74581252  0.37960685  1
  O  O310  1  0.24179139  0.74173109  0.87977926  1
  O  O311  1  0.74195538  0.25047026  0.37820735  1
  O  O312  1  0.73960997  0.25495668  0.89132639  1
  O  O313  1  0.72836610  0.74890239  0.36301379  1
  O  O314  1  0.79993980  0.73065487  0.88776653  1
  O  O315  1  0.00912401  0.12201143  0.01193890  1
  O  O316  1  0.01031082  0.11854480  0.49913304  1
  O  O317  1  0.00827890  0.63465481  -0.00201785  1
  O  O318  1  0.00744222  0.61824590  0.50371293  1
  O  O319  1  0.50748905  0.12085681  0.00536333  1
  O  O320  1  0.49684470  0.12769751  0.51641276  1
  O  O321  1  0.50592773  0.61145547  -0.00401697  1
  O  O322  1  0.50296362  0.62313958  0.51334638  1
  O  O323  1  0.48760814  0.37492782  0.49833107  1
  O  O324  1  0.49377093  0.38306044  0.99365022  1
  O  O325  1  0.49192686  0.86761991  0.50277776  1
  O  O326  1  0.49245280  0.88345552  1.00016012  1
  O  O327  1  0.99265756  0.38098368  0.49039296  1
  O  O328  1  1.00171832  0.37485351  0.98269236  1
  O  O329  1  0.99762002  0.88152859  0.48985085  1
  O  O330  1  0.99301487  0.88611538  1.00064968  1
  O  O331  1  0.48976033  0.49758463  0.37854894  1
  O  O332  1  0.49281298  0.49521736  0.88257926  1
  O  O333  1  0.48782095  1.00729791  0.36941081  1
  O  O334  1  0.49964241  0.99931229  0.88790073  1
  O  O335  1  0.99509037  0.49380076  0.37887952  1
  O  O336  1  0.98800332  0.48821071  0.87530794  1
  O  O337  1  0.99216902  0.99333618  0.37878209  1
  O  O338  1  1.00648797  0.99915731  0.89045941  1
  O  O339  1  0.00248089  0.01024288  0.11803539  1
  O  O340  1  0.01007262  0.00336904  0.61756027  1
  O  O341  1  0.01156353  0.50223068  0.13349846  1
  O  O342  1  0.01049710  0.50387950  0.61622068  1
  O  O343  1  0.50409420  0.00803179  0.11446045  1
  O  O344  1  0.51166947  0.01017348  0.62875815  1
  O  O345  1  0.49559039  0.49423268  0.10871586  1
  O  O346  1  0.51154524  0.50792203  0.62494143  1
  O  O347  1  0.25340533  0.38413725  0.23967969  1
  O  O348  1  0.25370362  0.37427384  0.74708621  1
  O  O349  1  0.24618126  0.88124865  0.24640460  1
  O  O350  1  0.23777153  0.87341959  0.74550843  1
  O  O351  1  0.75156694  0.39102599  0.24524040  1
  O  O352  1  0.74246964  0.38079538  0.74574644  1
  O  O353  1  0.74015744  0.88534770  0.24096259  1
  O  O354  1  0.73791579  0.87559732  0.75153764  1
  O  O355  1  0.25322135  0.11564956  0.25388853  1
  O  O356  1  0.26600386  0.12030992  0.75225213  1
  O  O357  1  0.25450293  0.61659472  0.25618270  1
  O  O358  1  0.25122004  0.62333411  0.76329413  1
  O  O359  1  0.74863044  0.11001158  0.24274958  1
  O  O360  1  0.74307549  0.10214916  0.75866484  1
  O  O361  1  0.74610820  0.61117052  0.24643120  1
  O  O362  1  0.75910218  0.62399689  0.75466335  1
  O  O363  1  0.36689151  0.11680969  0.37774894  1
  O  O364  1  0.37979359  0.12573037  0.86081019  1
  O  O365  1  0.37029522  0.61461745  0.37025372  1
  O  O366  1  0.36520068  0.61641335  0.87476684  1
  O  O367  1  0.88170032  0.11126356  0.37213241  1
  O  O368  1  0.87807646  0.11650647  0.91613499  1
  O  O369  1  0.87950903  0.61101427  0.37524514  1
  O  O370  1  0.89055598  0.60228276  0.86014188  1
  O  O371  1  0.13482950  0.38324775  0.11798170  1
  O  O372  1  0.12556736  0.37918790  0.62241560  1
  O  O373  1  0.13136198  0.87641799  0.13151208  1
  O  O374  1  0.12642604  0.88178527  0.63024800  1
  O  O375  1  0.63233045  0.38045046  0.12825884  1
  O  O376  1  0.62392131  0.38334369  0.63163804  1
  O  O377  1  0.62909554  0.87986570  0.13346166  1
  O  O378  1  0.61722842  0.88647129  0.63842079  1
  O  O379  1  0.13111240  0.24681883  0.26230219  1
  O  O380  1  0.14007396  0.25697959  0.73769540  1
  O  O381  1  0.11870441  0.75434489  0.25408999  1
  O  O382  1  0.11837585  0.75606581  0.75250713  1
  O  O383  1  0.61741258  0.24950331  0.25883052  1
  O  O384  1  0.63121934  0.25666454  0.75769903  1
  O  O385  1  0.62197210  0.76463812  0.25023392  1
  O  O386  1  0.61704761  0.76168758  0.74151163  1
  O  O387  1  0.38325152  0.24670221  0.24717045  1
  O  O388  1  0.38727600  0.24267584  0.74384010  1
  O  O389  1  0.36701790  0.73844906  0.24083692  1
  O  O390  1  0.38164850  0.74949670  0.74065679  1
  O  O391  1  0.86704649  0.24805420  0.23701315  1
  O  O392  1  0.83155297  0.23135074  0.75250758  1
  O  O393  1  0.88193117  0.75211019  0.24486077  1
  O  O394  1  0.88335639  0.74450082  0.73712708  1
  O  O395  1  0.37475162  0.49312682  0.49354289  1
  O  O396  1  0.38096790  0.49777044  0.99013193  1
  O  O397  1  0.36966241  0.98836604  0.49125604  1
  O  O398  1  0.38223117  0.99146289  1.00045767  1
  O  O399  1  0.88160773  0.49442458  0.49278891  1
  O  O400  1  0.87654987  0.51008020  1.00134613  1
  O  O401  1  0.87666349  0.99047825  0.49282083  1
  O  O402  1  0.88564673  0.98785793  1.01439261  1
  O  O403  1  0.12121634  0.01243841  0.00324394  1
  O  O404  1  0.12132249  0.00580739  0.50390932  1
  O  O405  1  0.12857184  0.51073636  0.00950428  1
  O  O406  1  0.12258297  0.50534146  0.50641474  1
  O  O407  1  0.61937246  0.00769539  0.00393011  1
  O  O408  1  0.62999428  -0.00955376  0.51630984  1
  O  O409  1  0.60977105  0.49640948  0.00060799  1
  O  O410  1  0.62505984  0.51073993  0.50623088  1
  O  O411  1  0.35988262  0.37589295  0.11627482  1
  O  O412  1  0.38222991  0.36623625  0.61888555  1
  O  O413  1  0.36798366  0.86885345  0.11539684  1
  O  O414  1  0.37506694  0.86751808  0.61748865  1
  O  O415  1  0.86509978  0.36633626  0.12995524  1
  O  O416  1  0.87768699  0.37922735  0.60704172  1
  O  O417  1  0.86503242  0.87083359  0.12422895  1
  O  O418  1  0.88161627  0.86466759  0.61045671  1
  O  O419  1  0.12934054  0.13029738  0.38107072  1
  O  O420  1  0.12681375  0.13178455  0.88279731  1
  O  O421  1  0.13063514  0.63061335  0.37967905  1
  O  O422  1  0.12721104  0.62765206  0.87900069  1
  O  O423  1  0.61915049  0.14582404  0.37646723  1
  O  O424  1  0.61939638  0.13557121  0.88490810  1
  O  O425  1  0.62864091  0.62710540  0.39304509  1
  O  O426  1  0.62561813  0.62193849  0.89318459  1
