# generated using pymatgen
data_V85Zn86O256
_symmetry_space_group_name_H-M   'P 1'
_cell_length_a   16.93855123
_cell_length_b   16.94237522
_cell_length_c   16.93835886
_cell_angle_alpha   89.98629401
_cell_angle_beta   90.03674172
_cell_angle_gamma   89.97621897
_symmetry_Int_Tables_number   1
_chemical_formula_structural   V85Zn86O256
_chemical_formula_sum   'V85 Zn86 O256'
_cell_volume   4860.95665145
_cell_formula_units_Z   1
loop_
 _symmetry_equiv_pos_site_id
 _symmetry_equiv_pos_as_xyz
  1  'x, y, z'
loop_
 _atom_site_type_symbol
 _atom_site_label
 _atom_site_symmetry_multiplicity
 _atom_site_fract_x
 _atom_site_fract_y
 _atom_site_fract_z
 _atom_site_occupancy
  V  V0  1  0.62351708  0.00195825  0.62487782  1
  V  V1  1  0.74298584  0.37065207  0.63114893  1
  V  V2  1  0.50273292  -0.00904966  0.50132078  1
  V  V3  1  0.87475707  0.74671656  0.63309366  1
  V  V4  1  0.76995349  0.24532338  0.00333714  1
  V  V5  1  0.12675210  0.87258340  0.25674144  1
  V  V6  1  0.49464504  0.87140743  0.88117463  1
  V  V7  1  0.24583886  0.61540793  0.37018727  1
  V  V8  1  0.75189652  0.87581669  0.12279252  1
  V  V9  1  0.74692868  0.74632978  0.49956432  1
  V  V10  1  0.75382476  0.12718310  0.87927736  1
  V  V11  1  0.61714070  0.37534756  0.77029868  1
  V  V12  1  0.01057775  -0.00381645  0.00796335  1
  V  V13  1  0.37691601  0.75027332  0.61635495  1
  V  V14  1  0.00742640  0.62038854  0.12813598  1
  V  V15  1  0.24861004  0.12796036  0.87508874  1
  V  V16  1  0.24519218  0.00233926  0.24612438  1
  V  V17  1  0.74744473  0.62342283  0.37006811  1
  V  V18  1  -0.00236350  0.50149504  -0.00342218  1
  V  V19  1  0.75417827  0.24315322  0.50500907  1
  V  V20  1  0.12764622  0.86925126  0.75403797  1
  V  V21  1  0.87159339  0.37576168  0.50438622  1
  V  V22  1  -0.04310276  0.06085673  0.55694092  1
  V  V23  1  0.37381421  -0.00379510  0.88005568  1
  V  V24  1  0.25108104  0.75451289  -0.00372077  1
  V  V25  1  0.00363649  0.74504294  0.75779832  1
  V  V26  1  0.57998275  0.17661801  0.44262947  1
  V  V27  1  0.75920575  0.37176131  0.12448628  1
  V  V28  1  0.25384780  0.37481975  0.62378536  1
  V  V29  1  0.76537280  0.61899145  0.87359105  1
  V  V30  1  0.25017052  0.25747409  0.50236963  1
  V  V31  1  0.62455312  0.87421257  0.75211037  1
  V  V32  1  0.12924425  0.62240066  0.00268809  1
  V  V33  1  0.37238057  0.37592634  -0.00273360  1
  V  V34  1  0.61596597  0.35110177  0.25232570  1
  V  V35  1  0.12130854  0.62941178  0.49624321  1
  V  V36  1  0.38847319  0.49646061  0.37685264  1
  V  V37  1  0.76047185  0.49933248  0.75126470  1
  V  V38  1  0.37719631  0.62416309  0.74648030  1
  V  V39  1  0.37567561  0.12805605  0.75234919  1
  V  V40  1  0.12538585  -0.00246639  0.62136816  1
  V  V41  1  0.37974039  0.49810334  0.87263460  1
  V  V42  1  0.24529916  0.62967628  0.87197525  1
  V  V43  1  -0.00935580  0.62255998  0.62926569  1
  V  V44  1  0.75111064  0.12907926  0.37051951  1
  V  V45  1  0.62608468  0.62357767  -0.00243356  1
  V  V46  1  0.75419517  0.00404236  0.75494327  1
  V  V47  1  0.37497746  0.25273306  0.13547986  1
  V  V48  1  0.62610754  0.74470394  0.87505462  1
  V  V49  1  0.11848172  0.25034228  0.87553651  1
  V  V50  1  0.12114894  0.36931895  0.74829737  1
  V  V51  1  0.00440517  0.74941290  0.26001252  1
  V  V52  1  0.50688517  0.13079523  0.63134802  1
  V  V53  1  0.25171692  0.49938115  0.74879556  1
  V  V54  1  0.62709102  0.49870472  0.13061921  1
  V  V55  1  0.12526356  0.12614858  0.50578309  1
  V  V56  1  0.24903455  0.75131663  0.48901265  1
  V  V57  1  0.24627403  0.39111915  0.12749815  1
  V  V58  1  0.87751160  0.74834852  0.12620741  1
  V  V59  1  0.49519874  0.86933897  0.37288168  1
  V  V60  1  0.12336026  0.50150416  0.62346915  1
  V  V61  1  0.01305701  0.12167196  0.12429167  1
  V  V62  1  0.62124855  0.87328850  0.24513539  1
  V  V63  1  0.00037274  0.25345447  0.24060199  1
  V  V64  1  0.37092732  -0.00579851  0.38223813  1
  V  V65  1  0.49960480  -0.00642750  0.00903737  1
  V  V66  1  0.74878942  0.87303375  0.62674640  1
  V  V67  1  0.88149111  -0.00343459  0.87620755  1
  V  V68  1  0.49969550  0.74830469  0.74818919  1
  V  V69  1  0.37736407  0.75732816  0.12545198  1
  V  V70  1  -0.00840298  0.37873384  0.87018098  1
  V  V71  1  0.37177359  0.62529546  0.24951144  1
  V  V72  1  0.88208637  0.87469273  0.50131095  1
  V  V73  1  0.59218089  0.16513338  -0.02613665  1
  V  V74  1  0.51465056  0.61850049  0.61609241  1
  V  V75  1  -0.00414406  0.37785511  0.37373507  1
  V  V76  1  0.87569924  0.13013228  0.24024931  1
  V  V77  1  0.50062881  0.49779524  -0.00206655  1
  V  V78  1  0.12657055  0.39053156  0.24596533  1
  V  V79  1  0.24646489  0.87808986  0.12239317  1
  V  V80  1  0.24754954  0.12639386  0.37438657  1
  V  V81  1  0.62274139  0.74957801  0.37476672  1
  V  V82  1  0.88279744  0.00146390  0.37282882  1
  V  V83  1  0.50030724  0.63006298  0.12966127  1
  V  V84  1  0.25600674  0.87372748  0.61903223  1
  Zn  Zn85  1  0.86913607  0.49936391  0.37358644  1
  Zn  Zn86  1  0.00670483  0.87488488  0.38084851  1
  Zn  Zn87  1  -0.00868933  0.50323635  0.50051752  1
  Zn  Zn88  1  0.87912493  0.37881589  0.00080283  1
  Zn  Zn89  1  0.24491206  0.25389656  0.00386990  1
  Zn  Zn90  1  0.75130976  0.00000450  0.24782123  1
  Zn  Zn91  1  0.75159721  0.49427877  0.24939311  1
  Zn  Zn92  1  0.00799533  0.86848447  0.88232165  1
  Zn  Zn93  1  0.12626293  0.25493141  0.37308343  1
  Zn  Zn94  1  0.63240194  0.00946553  0.11677120  1
  Zn  Zn95  1  0.38106903  0.25649729  0.63363391  1
  Zn  Zn96  1  0.88914427  0.23944777  0.64267461  1
  Zn  Zn97  1  0.53454782  0.49697161  0.49969531  1
  Zn  Zn98  1  0.87544091  0.62257645  0.25086032  1
  Zn  Zn99  1  0.37896321  0.12833040  0.25156824  1
  Zn  Zn100  1  0.88095410  0.87332579  0.00218037  1
  Zn  Zn101  1  0.51036280  0.24793683  0.78858488  1
  Zn  Zn102  1  0.75355786  0.74745707  -0.00143131  1
  Zn  Zn103  1  0.12823510  0.12428950  0.00389068  1
  Zn  Zn104  1  0.38772843  0.37902574  0.49942983  1
  Zn  Zn105  1  0.25285009  -0.00083530  0.74797211  1
  Zn  Zn106  1  0.51107709  0.13964134  0.13360360  1
  Zn  Zn107  1  0.18977480  0.19765264  0.18949670  1
  Zn  Zn108  1  0.06671561  0.18718399  0.68838674  1
  Zn  Zn109  1  0.18805420  0.68980672  0.18795637  1
  Zn  Zn110  1  0.18668369  0.68757205  0.68271944  1
  Zn  Zn111  1  0.68843612  0.18369496  0.17390810  1
  Zn  Zn112  1  0.68770770  0.19220376  0.69522775  1
  Zn  Zn113  1  0.68570749  0.69224278  0.18823656  1
  Zn  Zn114  1  0.69096935  0.68373973  0.69223138  1
  Zn  Zn115  1  0.30912855  0.31902019  0.31258412  1
  Zn  Zn116  1  0.31186067  0.31049765  0.81213119  1
  Zn  Zn117  1  0.31521069  0.81040668  0.30876664  1
  Zn  Zn118  1  0.31320074  0.81128781  0.80792347  1
  Zn  Zn119  1  0.80920815  0.31069751  0.31019892  1
  Zn  Zn120  1  0.80703173  0.31137951  0.81607503  1
  Zn  Zn121  1  0.81324073  0.81307366  0.31026225  1
  Zn  Zn122  1  0.81372780  0.81282538  0.81558612  1
  Zn  Zn123  1  0.18536018  0.44254035  0.43538382  1
  Zn  Zn124  1  0.18612229  0.44078952  0.93658436  1
  Zn  Zn125  1  0.18547585  0.93792731  0.43943815  1
  Zn  Zn126  1  0.19011385  0.93775151  0.93737933  1
  Zn  Zn127  1  0.68130032  0.42539069  0.42877802  1
  Zn  Zn128  1  0.69205038  0.43680191  0.93964776  1
  Zn  Zn129  1  0.68913041  0.93771572  0.43578994  1
  Zn  Zn130  1  0.68677081  0.93454813  0.93905082  1
  Zn  Zn131  1  0.31381268  0.06374542  0.06143459  1
  Zn  Zn132  1  0.31378433  0.06541878  0.56499090  1
  Zn  Zn133  1  0.31387763  0.56543794  0.06180093  1
  Zn  Zn134  1  0.31383301  0.56471342  0.55917464  1
  Zn  Zn135  1  0.82173246  0.06037240  0.06056658  1
  Zn  Zn136  1  0.79257792  0.05915374  0.55785854  1
  Zn  Zn137  1  0.81498156  0.56331133  0.06298369  1
  Zn  Zn138  1  0.74815137  0.53839689  0.54107871  1
  Zn  Zn139  1  0.43750970  0.44010546  0.18920445  1
  Zn  Zn140  1  0.44570572  0.43566323  0.68609289  1
  Zn  Zn141  1  0.43179091  0.93943917  0.19518616  1
  Zn  Zn142  1  0.43615539  0.93803806  0.69008962  1
  Zn  Zn143  1  0.93769182  0.44380577  0.18776369  1
  Zn  Zn144  1  0.93291485  0.43378595  0.68468417  1
  Zn  Zn145  1  0.93939142  0.93779375  0.18897344  1
  Zn  Zn146  1  0.93721404  0.93160356  0.69510504  1
  Zn  Zn147  1  0.06373717  0.06294560  0.31290423  1
  Zn  Zn148  1  0.06890281  0.05220710  0.81639226  1
  Zn  Zn149  1  0.05929930  0.56273393  0.31668037  1
  Zn  Zn150  1  0.06392014  0.56053273  0.81197304  1
  Zn  Zn151  1  0.55902124  0.05282528  0.30282909  1
  Zn  Zn152  1  0.56388477  0.06017554  0.81665968  1
  Zn  Zn153  1  0.56273341  0.56689885  0.30949032  1
  Zn  Zn154  1  0.56688529  0.55804145  0.80687953  1
  Zn  Zn155  1  0.41942014  0.18403677  0.44376812  1
  Zn  Zn156  1  0.42374020  0.18403133  0.94919640  1
  Zn  Zn157  1  0.43796714  0.68357950  0.43819270  1
  Zn  Zn158  1  0.43390938  0.68574026  0.94004372  1
  Zn  Zn159  1  0.93428166  0.19709636  0.42885648  1
  Zn  Zn160  1  0.93563210  0.18356645  0.81792291  1
  Zn  Zn161  1  0.93138329  0.68697762  0.44006258  1
  Zn  Zn162  1  0.94021686  0.68739634  0.94132899  1
  Zn  Zn163  1  0.06200698  0.31301886  0.06171214  1
  Zn  Zn164  1  0.06151418  0.31537703  0.55887766  1
  Zn  Zn165  1  0.06907052  0.80807017  0.06712468  1
  Zn  Zn166  1  0.06371964  0.80942178  0.56640165  1
  Zn  Zn167  1  0.56063957  0.32075133  0.06685889  1
  Zn  Zn168  1  0.56235479  0.31970193  0.56510376  1
  Zn  Zn169  1  0.56362083  0.81233743  0.06001492  1
  Zn  Zn170  1  0.56237134  0.81157598  0.56114671  1
  O  O171  1  0.11719033  0.12943109  0.12864191  1
  O  O172  1  0.12710269  0.11619440  0.61263691  1
  O  O173  1  0.11975141  0.62986420  0.11616801  1
  O  O174  1  0.11644149  0.61934068  0.61771452  1
  O  O175  1  0.62177068  0.12593469  0.09958417  1
  O  O176  1  0.61840836  0.11498136  0.63503843  1
  O  O177  1  0.61871781  0.62187822  0.11876708  1
  O  O178  1  0.61304903  0.63331284  0.62569030  1
  O  O179  1  0.37325203  0.39347885  0.37245629  1
  O  O180  1  0.36810442  0.38415430  0.88670150  1
  O  O181  1  0.38273554  0.88085292  0.37245060  1
  O  O182  1  0.38313612  0.88284435  0.86642955  1
  O  O183  1  0.87999013  0.37391077  0.38093123  1
  O  O184  1  0.88949326  0.37169102  0.87640855  1
  O  O185  1  0.87335743  0.88417713  0.38443132  1
  O  O186  1  0.87841854  0.88359119  0.88008260  1
  O  O187  1  0.25479252  0.00607483  0.37379750  1
  O  O188  1  0.25757601  0.00675295  0.87199277  1
  O  O189  1  0.25778647  0.51293077  0.37516121  1
  O  O190  1  0.26074937  0.50781468  0.86971199  1
  O  O191  1  0.76136134  0.01120960  0.37657626  1
  O  O192  1  0.75745146  -0.00002639  0.87214138  1
  O  O193  1  0.74613865  0.51165411  0.36963975  1
  O  O194  1  0.74741513  0.50730380  0.86606783  1
  O  O195  1  0.25640845  0.49080095  0.12587432  1
  O  O196  1  0.24607897  0.49357799  0.62732613  1
  O  O197  1  0.25904707  0.99170102  0.13414168  1
  O  O198  1  0.24601826  0.99081013  0.62404452  1
  O  O199  1  0.74200553  0.49293847  0.12243013  1
  O  O200  1  0.75373607  0.48652729  0.64223231  1
  O  O201  1  0.75172686  0.99064011  0.12363069  1
  O  O202  1  0.74383270  0.99344766  0.63577417  1
  O  O203  1  0.00654091  0.37183046  0.25210754  1
  O  O204  1  0.01064969  0.38527128  0.75685837  1
  O  O205  1  0.00982207  0.86766244  0.25070144  1
  O  O206  1  0.01084721  0.86367782  0.75141904  1
  O  O207  1  0.51859870  0.37751433  0.23843835  1
  O  O208  1  0.51207757  0.37001431  0.75331431  1
  O  O209  1  0.50752867  0.87994118  0.26149893  1
  O  O210  1  0.50465521  0.86834876  0.75818009  1
  O  O211  1  0.48993292  0.10972395  0.23913065  1
  O  O212  1  0.49548672  0.12592645  0.74682942  1
  O  O213  1  0.49395296  0.62607330  0.23532625  1
  O  O214  1  0.49644913  0.63096129  0.74162936  1
  O  O215  1  0.99673976  0.13331747  0.24687905  1
  O  O216  1  1.00663959  0.12162548  0.75636075  1
  O  O217  1  1.00205101  0.63225637  0.24430574  1
  O  O218  1  1.00749135  0.63172663  0.74112342  1
  O  O219  1  0.36580006  0.26378473  0.00694874  1
  O  O220  1  0.36136923  0.25596542  0.50678946  1
  O  O221  1  0.36115400  0.74305986  0.01075832  1
  O  O222  1  0.36660220  0.74386767  0.51016226  1
  O  O223  1  0.86735571  0.25507154  -0.00063910  1
  O  O224  1  0.86739177  0.25848579  0.50026231  1
  O  O225  1  0.87701136  0.75184066  0.01385289  1
  O  O226  1  0.86752569  0.75754597  0.51064426  1
  O  O227  1  0.13562058  0.24462072  0.49626639  1
  O  O228  1  0.12695844  0.24790807  0.99032671  1
  O  O229  1  0.13354890  0.73798546  0.50616091  1
  O  O230  1  0.14027882  0.73866003  1.00187733  1
  O  O231  1  0.63249362  0.24400934  0.50140659  1
  O  O232  1  0.63502321  0.25273033  1.00609060  1
  O  O233  1  0.63679633  0.76137007  0.48963471  1
  O  O234  1  0.62727499  0.74176848  0.99115238  1
  O  O235  1  0.47904559  0.25445285  0.11618596  1
  O  O236  1  0.50028254  0.23416647  0.61854069  1
  O  O237  1  0.48893033  0.74247456  0.11451954  1
  O  O238  1  0.49307737  0.74368615  0.62614206  1
  O  O239  1  1.00254503  0.24292790  0.13461381  1
  O  O240  1  1.00053860  0.24583862  0.61898415  1
  O  O241  1  0.99615875  0.74067047  0.13310332  1
  O  O242  1  0.99273237  0.74384648  0.63419120  1
  O  O243  1  0.00353678  0.26474156  0.36584478  1
  O  O244  1  0.01302665  0.26017945  0.87282411  1
  O  O245  1  -0.00771198  0.75172880  0.36299355  1
  O  O246  1  -0.00298398  0.74901753  0.86203687  1
  O  O247  1  0.51368552  0.22863298  0.39150589  1
  O  O248  1  0.52227477  0.21414754  0.90127113  1
  O  O249  1  0.50627330  0.76159823  0.38501051  1
  O  O250  1  0.50198856  0.75390894  0.87081705  1
  O  O251  1  0.24437405  0.13406887  0.49628749  1
  O  O252  1  0.24951524  0.12686359  0.98755364  1
  O  O253  1  0.24174361  0.63199705  0.49271949  1
  O  O254  1  0.24675044  0.62942736  0.99167741  1
  O  O255  1  0.74662896  0.13450170  0.48899024  1
  O  O256  1  0.75878676  0.13584387  0.99756347  1
  O  O257  1  0.75346283  0.64071090  0.48800543  1
  O  O258  1  0.74423128  0.62370900  0.99097537  1
  O  O259  1  0.25591422  0.38021910  0.00830876  1
  O  O260  1  0.24917455  0.37199557  0.50484689  1
  O  O261  1  0.24559548  0.86749856  0.00881696  1
  O  O262  1  0.24403523  0.86565115  0.50985769  1
  O  O263  1  0.75490974  0.36540533  0.00543463  1
  O  O264  1  0.75276320  0.35973705  0.50754045  1
  O  O265  1  0.75196354  0.86960824  0.01202694  1
  O  O266  1  0.76084127  0.86900000  0.50626232  1
  O  O267  1  0.11802150  0.48896237  0.24899662  1
  O  O268  1  0.13424999  0.49266212  0.74360367  1
  O  O269  1  0.13853688  0.99402626  0.25521906  1
  O  O270  1  0.13111864  0.99025999  0.73633922  1
  O  O271  1  0.62780086  0.50431848  0.23643191  1
  O  O272  1  0.63335691  0.48287126  0.75266470  1
  O  O273  1  0.63156602  0.98682639  0.24148820  1
  O  O274  1  0.62995701  0.99086334  0.74717037  1
  O  O275  1  0.36018698  -0.00038885  0.26466022  1
  O  O276  1  0.37663244  0.00827193  0.76139999  1
  O  O277  1  0.38154013  0.51383889  0.26135674  1
  O  O278  1  0.37250113  0.50301263  0.75610574  1
  O  O279  1  0.87274054  0.00746227  0.25801235  1
  O  O280  1  0.86415851  -0.00790202  0.75948288  1
  O  O281  1  0.86912734  0.50448649  0.25386713  1
  O  O282  1  0.85974458  0.49261895  0.75383271  1
  O  O283  1  0.11697425  0.37873892  0.36445604  1
  O  O284  1  0.12188037  0.36956628  0.86699554  1
  O  O285  1  0.12457569  0.87764596  0.36354053  1
  O  O286  1  0.12963376  0.87843452  0.85774162  1
  O  O287  1  0.63043173  0.36352015  0.35203846  1
  O  O288  1  0.62257314  0.37746577  0.86962938  1
  O  O289  1  0.61937868  0.86997306  0.36762214  1
  O  O290  1  0.61711516  0.86486564  0.87072935  1
  O  O291  1  0.36628662  0.14569817  0.12533551  1
  O  O292  1  0.38286323  0.12720294  0.63685359  1
  O  O293  1  0.38086424  0.63139029  0.13065710  1
  O  O294  1  0.38029369  0.63212442  0.62961062  1
  O  O295  1  0.88677933  0.12042090  0.13763201  1
  O  O296  1  0.88434984  0.11493070  0.60642585  1
  O  O297  1  0.88444407  0.63298999  0.12729160  1
  O  O298  1  0.88803079  0.63409495  0.62092497  1
  O  O299  1  0.25850340  0.26516179  0.12434127  1
  O  O300  1  0.25096249  0.26814308  0.61832420  1
  O  O301  1  0.25729309  0.75749046  0.11818600  1
  O  O302  1  0.25788808  0.75432917  0.61542687  1
  O  O303  1  0.75433860  0.25673376  0.11180141  1
  O  O304  1  0.75594005  0.24867998  0.61856113  1
  O  O305  1  0.76051429  0.75489103  0.12416325  1
  O  O306  1  0.75614193  0.75129945  0.62059976  1
  O  O307  1  0.24998707  0.24400479  0.38201900  1
  O  O308  1  0.24010895  0.24397283  0.87590503  1
  O  O309  1  0.25734906  0.74325225  0.38608773  1
  O  O310  1  0.25914432  0.74165351  0.88232564  1
  O  O311  1  0.75400373  0.23525792  0.38184556  1
  O  O312  1  0.75054429  0.23852971  0.89070665  1
  O  O313  1  0.74363990  0.74885677  0.38157540  1
  O  O314  1  0.74356260  0.73998856  0.87348772  1
  O  O315  1  0.00462494  0.11401350  0.01549407  1
  O  O316  1  0.00875103  0.12540247  0.48911813  1
  O  O317  1  0.01085251  0.62246446  0.00578418  1
  O  O318  1  0.00513541  0.62566382  0.50662725  1
  O  O319  1  0.49792509  0.11198505  0.00970901  1
  O  O320  1  0.51043644  0.11764370  0.50234092  1
  O  O321  1  0.50253395  0.61540027  0.00774042  1
  O  O322  1  0.50102096  0.62192332  0.51294444  1
  O  O323  1  0.50015664  0.38807439  0.50716274  1
  O  O324  1  0.48903254  0.39063046  1.00540967  1
  O  O325  1  0.49996905  0.88583929  0.49508487  1
  O  O326  1  0.49673940  0.87531865  0.98704660  1
  O  O327  1  0.99025053  0.37866860  0.49093690  1
  O  O328  1  1.00294076  0.38507757  0.99244193  1
  O  O329  1  0.98704647  0.86560650  0.49944621  1
  O  O330  1  1.00515629  0.87856968  1.00225827  1
  O  O331  1  0.49132948  0.51060196  0.38021378  1
  O  O332  1  0.48732717  0.50914999  0.88187910  1
  O  O333  1  0.49338548  0.99007709  0.38317608  1
  O  O334  1  0.49351316  0.99046920  0.88282083  1
  O  O335  1  0.99361032  0.48983446  0.37905830  1
  O  O336  1  1.00757456  0.49156359  0.88356059  1
  O  O337  1  0.98773229  0.99699392  0.37161574  1
  O  O338  1  0.99515054  0.99235542  0.88387178  1
  O  O339  1  0.00067078  0.00696253  0.12039533  1
  O  O340  1  0.00710703  -0.00624150  0.62327999  1
  O  O341  1  0.00077402  0.51464150  0.11877434  1
  O  O342  1  0.00208878  0.50701296  0.62269109  1
  O  O343  1  0.49502294  -0.01260333  0.11253436  1
  O  O344  1  0.50098042  0.00868641  0.61807616  1
  O  O345  1  0.50596914  0.50891362  0.11738470  1
  O  O346  1  0.50103789  0.51670943  0.62663629  1
  O  O347  1  0.23366160  0.37609090  0.24549769  1
  O  O348  1  0.24519585  0.38060943  0.74263719  1
  O  O349  1  0.24480316  0.88079967  0.24558666  1
  O  O350  1  0.24498161  0.87263107  0.73577173  1
  O  O351  1  0.74036355  0.37105957  0.23877099  1
  O  O352  1  0.74235842  0.38133169  0.75049603  1
  O  O353  1  0.74437390  0.87534172  0.23849777  1
  O  O354  1  0.74404256  0.88156591  0.74658340  1
  O  O355  1  0.24921874  0.11994811  0.25849911  1
  O  O356  1  0.26718985  0.12359010  0.76203135  1
  O  O357  1  0.25737520  0.63072341  0.25905956  1
  O  O358  1  0.25525380  0.62105747  0.75385785  1
  O  O359  1  0.75819136  0.12561044  0.25243365  1
  O  O360  1  0.74008979  0.11006157  0.76227316  1
  O  O361  1  0.75030447  0.63030749  0.26115920  1
  O  O362  1  0.74603746  0.60846881  0.75758469  1
  O  O363  1  0.36084674  0.11675997  0.37381043  1
  O  O364  1  0.36960698  0.11720874  0.87136262  1
  O  O365  1  0.36920270  0.62094802  0.36717331  1
  O  O366  1  0.36691818  0.61863045  0.86742739  1
  O  O367  1  0.86985090  0.11956415  0.36607916  1
  O  O368  1  0.86289540  0.10767724  0.87656943  1
  O  O369  1  0.86264147  0.62423719  0.37342330  1
  O  O370  1  0.86412943  0.62933256  0.87810200  1
  O  O371  1  0.13055780  0.37385877  0.13704452  1
  O  O372  1  0.13022494  0.38321541  0.63011290  1
  O  O373  1  0.13994669  0.87131700  0.13761837  1
  O  O374  1  0.13259231  0.88026364  0.62955309  1
  O  O375  1  0.63602084  0.38338525  0.12971173  1
  O  O376  1  0.64079782  0.36600439  0.63468845  1
  O  O377  1  0.63309759  0.87104958  0.13075845  1
  O  O378  1  0.62963877  0.87908974  0.63241227  1
  O  O379  1  0.11524661  0.26013959  0.25448283  1
  O  O380  1  0.12930526  0.26459060  0.75483413  1
  O  O381  1  0.11670214  0.75905469  0.24830132  1
  O  O382  1  0.11668142  0.75729130  0.74164827  1
  O  O383  1  0.62028385  0.25184811  0.23651590  1
  O  O384  1  0.62388609  0.26615582  0.75526859  1
  O  O385  1  0.62657529  0.76398352  0.25885402  1
  O  O386  1  0.61957916  0.75370880  0.75637197  1
  O  O387  1  0.37122370  0.25371361  0.23923243  1
  O  O388  1  0.38883812  0.24297916  0.75647848  1
  O  O389  1  0.37320771  0.73766806  0.23923459  1
  O  O390  1  0.38100357  0.74398818  0.73800227  1
  O  O391  1  0.88649283  0.24108588  0.25582727  1
  O  O392  1  0.86272265  0.23905993  0.75301754  1
  O  O393  1  0.88448642  0.74992536  0.24041557  1
  O  O394  1  0.88182579  0.75585686  0.73847352  1
  O  O395  1  0.37151939  0.50329318  0.48164878  1
  O  O396  1  0.38093482  0.49687381  0.99281134  1
  O  O397  1  0.38360772  1.00744732  0.48943604  1
  O  O398  1  0.38142372  1.00185198  0.98733990  1
  O  O399  1  0.86231288  0.48304969  0.49873105  1
  O  O400  1  0.89270966  0.50200058  1.00226194  1
  O  O401  1  0.88235285  0.99667237  0.49851258  1
  O  O402  1  0.89020111  0.99511575  0.99391577  1
  O  O403  1  0.11487883  0.00333310  -0.00561798  1
  O  O404  1  0.12576606  0.00684147  0.51189909  1
  O  O405  1  0.11885882  0.51478481  -0.00323060  1
  O  O406  1  0.12201699  0.51221435  0.50608207  1
  O  O407  1  0.60831074  -0.01224403  0.00158833  1
  O  O408  1  0.61748594  -0.00663680  0.51079710  1
  O  O409  1  0.61782391  0.50286822  0.00824713  1
  O  O410  1  0.64797280  0.50104805  0.50157861  1
  O  O411  1  0.36745037  0.37221653  0.12001975  1
  O  O412  1  0.36775051  0.37628397  0.62458580  1
  O  O413  1  0.36449796  0.86337776  0.13429584  1
  O  O414  1  0.36761641  0.86547233  0.62856587  1
  O  O415  1  0.86301868  0.38128681  0.12388881  1
  O  O416  1  0.86406113  0.36701002  0.61950192  1
  O  O417  1  0.86900490  0.86720771  0.12646503  1
  O  O418  1  0.86877575  0.86853656  0.61977009  1
  O  O419  1  0.13496921  0.12391832  0.38577650  1
  O  O420  1  0.13474272  0.13285930  0.87402577  1
  O  O421  1  0.13218707  0.62185707  0.38337785  1
  O  O422  1  0.14031039  0.62216451  0.87887797  1
  O  O423  1  0.63170944  0.11642646  0.37423572  1
  O  O424  1  0.64080034  0.11154725  0.89056455  1
  O  O425  1  0.62869778  0.64265994  0.36842149  1
  O  O426  1  0.62759949  0.62936572  0.87918098  1
