# generated using pymatgen
data_V85Zn86O256
_symmetry_space_group_name_H-M   'P 1'
_cell_length_a   16.92801592
_cell_length_b   16.95296334
_cell_length_c   16.92826569
_cell_angle_alpha   89.97783799
_cell_angle_beta   89.96949830
_cell_angle_gamma   89.97550451
_symmetry_Int_Tables_number   1
_chemical_formula_structural   V85Zn86O256
_chemical_formula_sum   'V85 Zn86 O256'
_cell_volume   4858.07275579
_cell_formula_units_Z   1
loop_
 _symmetry_equiv_pos_site_id
 _symmetry_equiv_pos_as_xyz
  1  'x, y, z'
loop_
 _atom_site_type_symbol
 _atom_site_label
 _atom_site_symmetry_multiplicity
 _atom_site_fract_x
 _atom_site_fract_y
 _atom_site_fract_z
 _atom_site_occupancy
  V  V0  1  0.87237893  0.74239219  0.62941533  1
  V  V1  1  0.86964469  0.87238744  0.49767072  1
  V  V2  1  0.87093141  0.24993747  0.11473493  1
  V  V3  1  0.49925060  0.49888337  0.50152629  1
  V  V4  1  -0.00105545  0.87288544  0.36655893  1
  V  V5  1  0.75045968  0.00035687  0.24949481  1
  V  V6  1  0.12256580  0.87519162  0.74822622  1
  V  V7  1  0.13999598  0.74779463  0.88017944  1
  V  V8  1  -0.00252245  0.25602939  0.25911698  1
  V  V9  1  0.86334986  0.62284833  0.25343092  1
  V  V10  1  0.87500130  -0.00169342  0.37390128  1
  V  V11  1  0.37265989  0.12063024  0.26611198  1
  V  V12  1  0.61730184  0.74739548  0.37216923  1
  V  V13  1  0.00584697  -0.00455765  0.50803063  1
  V  V14  1  0.00003736  0.12507161  0.12556431  1
  V  V15  1  0.36739872  0.37674891  0.50682463  1
  V  V16  1  0.25156244  0.24042852  0.50140850  1
  V  V17  1  0.24495731  0.87747345  0.13211768  1
  V  V18  1  0.62931747  0.62238448  0.49442918  1
  V  V19  1  0.00680429  0.74542014  0.24529581  1
  V  V20  1  0.62157583  0.89031814  0.74928158  1
  V  V21  1  0.12363181  -0.00178195  0.13231334  1
  V  V22  1  0.37214460  0.00195037  0.87345049  1
  V  V23  1  0.62610914  0.00394816  0.11951012  1
  V  V24  1  0.36698156  0.87643372  0.00046227  1
  V  V25  1  0.88415816  0.37311880  0.49704197  1
  V  V26  1  0.37797851  0.50785731  0.87715738  1
  V  V27  1  0.75029085  0.87609277  0.12326571  1
  V  V28  1  0.75429594  0.25158774  0.50113446  1
  V  V29  1  0.62571321  0.49930625  0.62889750  1
  V  V30  1  0.37143009  0.74893601  0.11866512  1
  V  V31  1  0.37153169  0.25150796  0.62826076  1
  V  V32  1  0.76225334  0.12426851  0.88561623  1
  V  V33  1  -0.00339733  0.61735984  0.11384317  1
  V  V34  1  0.62850971  0.12169408  0.51308147  1
  V  V35  1  0.74824933  0.74991584  0.49283798  1
  V  V36  1  0.74772896  0.37265097  0.12764534  1
  V  V37  1  0.13139243  0.37397591  0.74983426  1
  V  V38  1  0.37271949  0.75129097  0.62303861  1
  V  V39  1  0.25125628  0.13448271  0.87803138  1
  V  V40  1  0.24675334  0.62179357  0.37029951  1
  V  V41  1  0.11837007  0.49459031  0.11388347  1
  V  V42  1  0.63156926  0.50666909  0.12424357  1
  V  V43  1  0.75389512  0.37449043  0.62983324  1
  V  V44  1  0.50143417  0.62447444  0.11064549  1
  V  V45  1  0.12182601  0.74802649  0.37063805  1
  V  V46  1  0.00240709  0.50001433  0.48928399  1
  V  V47  1  0.85782268  0.50038808  0.37230164  1
  V  V48  1  -0.00481335  0.24757092  0.75246842  1
  V  V49  1  0.50028662  0.25215287  0.24894142  1
  V  V50  1  0.87712877  0.12681598  0.25055170  1
  V  V51  1  0.12771570  0.25106192  0.38007008  1
  V  V52  1  0.76287435  0.50610574  0.75151755  1
  V  V53  1  0.24428115  0.00466325  0.74583355  1
  V  V54  1  -0.00304836  0.00168203  -0.00786751  1
  V  V55  1  0.50330084  0.75293607  0.74960921  1
  V  V56  1  0.37973787  0.62148626  0.24647160  1
  V  V57  1  0.62651314  0.23900760  0.88730961  1
  V  V58  1  0.87315713  0.87786391  -0.00977115  1
  V  V59  1  0.50102609  0.00513257  -0.00208047  1
  V  V60  1  0.62740922  0.25010815  0.37669427  1
  V  V61  1  0.50167576  0.12619098  0.12415707  1
  V  V62  1  0.37961117  0.36493149  -0.00849817  1
  V  V63  1  0.74243447  0.87964245  0.62286925  1
  V  V64  1  0.50315507  0.25268231  0.75117445  1
  V  V65  1  0.62643828  0.37607795  0.76503178  1
  V  V66  1  -0.00300993  0.74067686  0.75407699  1
  V  V67  1  0.73826193  0.74747731  -0.00016456  1
  V  V68  1  0.24754919  0.49324536  0.24639501  1
  V  V69  1  0.13098297  0.13092969  0.00312545  1
  V  V70  1  0.25068326  0.50768262  0.75188937  1
  V  V71  1  0.12890839  0.49736368  0.62304390  1
  V  V72  1  0.74805881  0.62625456  0.87474536  1
  V  V73  1  0.87601168  0.38920033  0.00208750  1
  V  V74  1  0.49939244  0.37580013  0.37560303  1
  V  V75  1  0.87417647  0.75006736  0.12496267  1
  V  V76  1  0.61526915  0.87646989  0.25173324  1
  V  V77  1  0.37859444  0.87859005  0.48225698  1
  V  V78  1  0.37463259  0.49798644  0.37404813  1
  V  V79  1  0.00304992  0.38492683  0.88109390  1
  V  V80  1  0.25043939  0.36578769  0.11837056  1
  V  V81  1  0.49880163  0.62505768  0.62562414  1
  V  V82  1  0.24739519  0.74661809  0.49811342  1
  V  V83  1  0.76766339  0.00741134  0.75109901  1
  V  V84  1  0.24475679  0.87894291  0.62223261  1
  Zn  Zn85  1  0.63077433  0.38100157  0.25194289  1
  Zn  Zn86  1  0.49585209  0.75300341  0.25107762  1
  Zn  Zn87  1  0.88304488  0.51201309  0.87603668  1
  Zn  Zn88  1  0.37597889  0.12577110  0.74766171  1
  Zn  Zn89  1  0.13457147  0.11160384  0.50678945  1
  Zn  Zn90  1  0.25976428  -0.00222861  0.26563064  1
  Zn  Zn91  1  0.37102348  0.63117056  0.75519482  1
  Zn  Zn92  1  0.49613772  -0.00281937  0.49609705  1
  Zn  Zn93  1  0.11897324  0.37550489  0.25386569  1
  Zn  Zn94  1  0.37089044  0.24568540  0.12205788  1
  Zn  Zn95  1  -0.00418939  0.61987177  0.62567241  1
  Zn  Zn96  1  0.00153766  0.11625082  0.63400310  1
  Zn  Zn97  1  0.75187586  0.12567638  0.37589563  1
  Zn  Zn98  1  0.12258534  0.62355691  0.50058731  1
  Zn  Zn99  1  0.50025363  0.87600589  0.87596412  1
  Zn  Zn100  1  0.62013566  0.74854321  0.87761551  1
  Zn  Zn101  1  0.13436127  0.62194979  -0.00911209  1
  Zn  Zn102  1  0.87594670  0.23898064  0.63165442  1
  Zn  Zn103  1  0.12833644  0.25447916  0.88015888  1
  Zn  Zn104  1  -0.00133162  0.87628605  0.87266175  1
  Zn  Zn105  1  0.50247058  0.11658162  0.62891028  1
  Zn  Zn106  1  0.50825282  0.49653872  -0.00902946  1
  Zn  Zn107  1  0.18718013  0.18536276  0.19398235  1
  Zn  Zn108  1  0.18240697  0.18671806  0.68328322  1
  Zn  Zn109  1  0.20434398  0.66723384  0.15041799  1
  Zn  Zn110  1  0.18319477  0.68577816  0.68770137  1
  Zn  Zn111  1  0.68797327  0.18849149  0.18566523  1
  Zn  Zn112  1  0.69397525  0.18945699  0.69408390  1
  Zn  Zn113  1  0.68480202  0.68794058  0.18545067  1
  Zn  Zn114  1  0.68647027  0.68771472  0.68715242  1
  Zn  Zn115  1  0.31217193  0.30860117  0.31417019  1
  Zn  Zn116  1  0.31281955  0.31757314  0.81137203  1
  Zn  Zn117  1  0.30756580  0.80619257  0.30505131  1
  Zn  Zn118  1  0.31353756  0.81721660  0.80916256  1
  Zn  Zn119  1  0.81398451  0.31627202  0.31180731  1
  Zn  Zn120  1  0.81258899  0.31277482  0.82186713  1
  Zn  Zn121  1  0.80864148  0.80996081  0.31027169  1
  Zn  Zn122  1  0.80798718  0.81235674  0.81097406  1
  Zn  Zn123  1  0.18594489  0.43034402  0.43559380  1
  Zn  Zn124  1  0.19470069  0.43705408  0.93594958  1
  Zn  Zn125  1  0.18856291  0.92868392  0.43414875  1
  Zn  Zn126  1  0.18456220  0.94093200  0.93811568  1
  Zn  Zn127  1  0.68726597  0.43324636  0.44094364  1
  Zn  Zn128  1  0.69376411  0.43934313  0.94345723  1
  Zn  Zn129  1  0.65828955  0.95243666  0.42222218  1
  Zn  Zn130  1  0.68781254  0.94021728  0.93215759  1
  Zn  Zn131  1  0.31239955  0.06314567  0.06738882  1
  Zn  Zn132  1  0.32077684  0.05993832  0.56306773  1
  Zn  Zn133  1  0.31034338  0.55618138  0.05585276  1
  Zn  Zn134  1  0.30799185  0.56294450  0.56479749  1
  Zn  Zn135  1  0.81417153  0.06327254  0.05939371  1
  Zn  Zn136  1  0.81977101  0.06277173  0.56678927  1
  Zn  Zn137  1  0.80742120  0.56623799  0.06186681  1
  Zn  Zn138  1  0.81203690  0.56148914  0.56027851  1
  Zn  Zn139  1  0.43970799  0.43626475  0.18047550  1
  Zn  Zn140  1  0.43853644  0.43514356  0.69228829  1
  Zn  Zn141  1  0.43513899  0.94113318  0.18793157  1
  Zn  Zn142  1  0.43605205  0.93995219  0.68040203  1
  Zn  Zn143  1  0.93352278  0.43764210  0.19035397  1
  Zn  Zn144  1  0.94391335  0.43340719  0.68546065  1
  Zn  Zn145  1  0.93946599  0.93722081  0.18398466  1
  Zn  Zn146  1  0.93230984  0.92759079  0.68630003  1
  Zn  Zn147  1  0.09648405  0.04688162  0.33676798  1
  Zn  Zn148  1  0.06651596  0.06405331  0.81489783  1
  Zn  Zn149  1  0.05915156  0.56235459  0.30596245  1
  Zn  Zn150  1  0.06609436  0.56523752  0.81236264  1
  Zn  Zn151  1  0.55859729  0.06423358  0.31710840  1
  Zn  Zn152  1  0.56286257  0.06708083  0.81224564  1
  Zn  Zn153  1  0.56503977  0.56199834  0.30867658  1
  Zn  Zn154  1  0.56404176  0.56573981  0.81396003  1
  Zn  Zn155  1  0.44298934  0.18958356  0.44270288  1
  Zn  Zn156  1  0.44266019  0.18748944  0.93439557  1
  Zn  Zn157  1  0.43699881  0.68692495  0.43717884  1
  Zn  Zn158  1  0.43259176  0.69063770  0.93519285  1
  Zn  Zn159  1  0.94160652  0.18276066  0.43785157  1
  Zn  Zn160  1  0.94271161  0.19293750  0.93617684  1
  Zn  Zn161  1  0.93489464  0.68216876  0.43727966  1
  Zn  Zn162  1  0.93341955  0.69146497  0.93575957  1
  Zn  Zn163  1  0.05816049  0.31141992  0.06493465  1
  Zn  Zn164  1  0.06546998  0.31209545  0.56773323  1
  Zn  Zn165  1  0.06187729  0.81261932  0.06000843  1
  Zn  Zn166  1  0.05955500  0.81056896  0.56073735  1
  Zn  Zn167  1  0.56190931  0.31632854  0.06240958  1
  Zn  Zn168  1  0.56252923  0.31204060  0.56738493  1
  Zn  Zn169  1  0.55628888  0.81838183  0.06496752  1
  Zn  Zn170  1  0.56124316  0.81430328  0.56200627  1
  O  O171  1  0.12142735  0.11977069  0.12115895  1
  O  O172  1  0.11326374  0.12988545  0.61688693  1
  O  O173  1  0.10773959  0.60874302  0.13350726  1
  O  O174  1  0.12201885  0.61165279  0.62225229  1
  O  O175  1  0.61313031  0.11706808  0.13061794  1
  O  O176  1  0.62541419  0.13998369  0.61475351  1
  O  O177  1  0.61692672  0.61554276  0.12711139  1
  O  O178  1  0.61789869  0.61933143  0.61776022  1
  O  O179  1  0.38056356  0.37978728  0.38234785  1
  O  O180  1  0.37208559  0.38324313  0.88681433  1
  O  O181  1  0.36847278  0.86543472  0.38411134  1
  O  O182  1  0.37383453  0.88723088  0.88168613  1
  O  O183  1  0.87088138  0.38879817  0.38323038  1
  O  O184  1  0.88172844  0.37962239  0.88680496  1
  O  O185  1  0.87927308  0.87708778  0.37780171  1
  O  O186  1  0.87422799  0.87182118  0.88722565  1
  O  O187  1  0.20416067  0.00907013  0.36166846  1
  O  O188  1  0.25564725  0.00748741  0.86781946  1
  O  O189  1  0.25419108  0.50214911  0.36665284  1
  O  O190  1  0.26350474  0.49889004  0.86610936  1
  O  O191  1  0.75342597  0.00187807  0.36434114  1
  O  O192  1  0.74634111  0.01245397  0.86260945  1
  O  O193  1  0.75901841  0.50035828  0.38008335  1
  O  O194  1  0.75167526  0.50800014  0.86775133  1
  O  O195  1  0.24236457  0.48590110  0.13147162  1
  O  O196  1  0.24175830  0.49973623  0.63355942  1
  O  O197  1  0.24070503  0.99583290  0.13311124  1
  O  O198  1  0.25548695  0.99044002  0.63280517  1
  O  O199  1  0.73788020  0.49578993  0.12345448  1
  O  O200  1  0.74617501  0.49500187  0.63228911  1
  O  O201  1  0.74278028  0.99793768  0.12863151  1
  O  O202  1  0.75731721  0.99132968  0.63915704  1
  O  O203  1  -0.00139302  0.35912029  0.24435790  1
  O  O204  1  0.01165596  0.37136146  0.75941806  1
  O  O205  1  -0.00836909  0.86359519  0.25967482  1
  O  O206  1  0.01219910  0.86998078  0.74845329  1
  O  O207  1  0.49998317  0.36621537  0.25501374  1
  O  O208  1  0.51379023  0.36427128  0.74650993  1
  O  O209  1  0.51130991  0.87403767  0.24361301  1
  O  O210  1  0.50523575  0.87106027  0.74828976  1
  O  O211  1  0.49557949  0.13133718  0.24613339  1
  O  O212  1  0.49884684  0.13840402  0.74807772  1
  O  O213  1  0.48830094  0.62309339  0.24190022  1
  O  O214  1  0.49728891  0.63498147  0.74288245  1
  O  O215  1  0.98602631  0.13289077  0.24490713  1
  O  O216  1  1.00722269  0.14425390  0.75784031  1
  O  O217  1  0.98751092  0.63072002  0.24174652  1
  O  O218  1  1.00113606  0.63723559  0.74660771  1
  O  O219  1  0.37894946  0.26092154  -0.00093081  1
  O  O220  1  0.37095201  0.25680787  0.50633892  1
  O  O221  1  0.37808606  0.76292840  0.00684702  1
  O  O222  1  0.36715275  0.75421852  0.50461937  1
  O  O223  1  0.88153409  0.25823675  0.01250275  1
  O  O224  1  0.87078402  0.25776539  0.49832455  1
  O  O225  1  0.86606592  0.75948382  0.00760354  1
  O  O226  1  0.86574425  0.75307956  0.50334768  1
  O  O227  1  0.13741342  0.25943821  0.49585391  1
  O  O228  1  0.11987264  0.23505550  1.00165162  1
  O  O229  1  0.12919101  0.74601582  0.49038233  1
  O  O230  1  0.12321154  0.75434005  0.98216652  1
  O  O231  1  0.63536158  0.25014890  0.49512799  1
  O  O232  1  0.62147573  0.25421321  0.98519231  1
  O  O233  1  0.62816499  0.74348975  0.49253796  1
  O  O234  1  0.63503877  0.76187024  1.00079688  1
  O  O235  1  0.50135958  0.24326409  0.13323219  1
  O  O236  1  0.49081163  0.24922324  0.63283569  1
  O  O237  1  0.48993791  0.74339816  0.12635371  1
  O  O238  1  0.49137134  0.74696666  0.62918064  1
  O  O239  1  0.99185702  0.24186609  0.13404822  1
  O  O240  1  0.99738439  0.25916839  0.64402121  1
  O  O241  1  0.99480128  0.74382358  0.12995988  1
  O  O242  1  0.98968544  0.74932351  0.63132799  1
  O  O243  1  0.00512179  0.25021516  0.36871085  1
  O  O244  1  0.00472393  0.26356945  0.86755150  1
  O  O245  1  0.00251867  0.75082715  0.36771897  1
  O  O246  1  0.00301360  0.75546683  0.86592862  1
  O  O247  1  0.50868353  0.25645769  0.37054274  1
  O  O248  1  0.51556044  0.24601125  0.86666238  1
  O  O249  1  0.51241664  0.74541951  0.37190278  1
  O  O250  1  0.49885463  0.75437617  0.86465565  1
  O  O251  1  0.25385143  0.13685290  0.50372796  1
  O  O252  1  0.24295172  0.11834203  0.99248854  1
  O  O253  1  0.24811516  0.62966790  0.48897945  1
  O  O254  1  0.23558601  0.63473154  1.04107803  1
  O  O255  1  0.74819682  0.14045164  0.50173988  1
  O  O256  1  0.74749886  0.11730991  0.98487323  1
  O  O257  1  0.73605919  0.63297611  0.50715849  1
  O  O258  1  0.74900705  0.63826094  0.99393222  1
  O  O259  1  0.26371820  0.37670253  0.00748644  1
  O  O260  1  0.26409105  0.36749962  0.49633384  1
  O  O261  1  0.26168770  0.88728988  0.01034712  1
  O  O262  1  0.25565221  0.86700872  0.50479315  1
  O  O263  1  0.76254974  0.37668522  0.01326690  1
  O  O264  1  0.75754194  0.36739992  0.50860243  1
  O  O265  1  0.75555350  0.87329151  0.00435262  1
  O  O266  1  0.74949776  0.86745873  0.50687578  1
  O  O267  1  0.13285045  0.49496442  0.24409140  1
  O  O268  1  0.13246933  0.49639016  0.74467234  1
  O  O269  1  0.10564997  1.00153927  0.23106385  1
  O  O270  1  0.13585001  0.99147324  0.75449186  1
  O  O271  1  0.61870455  0.49662421  0.23187440  1
  O  O272  1  0.63105445  0.49175432  0.74644560  1
  O  O273  1  0.63025737  0.99433452  0.23909693  1
  O  O274  1  0.62820282  0.99232406  0.75025208  1
  O  O275  1  0.37855787  0.01468229  0.25422875  1
  O  O276  1  0.36345384  -0.00097544  0.75766821  1
  O  O277  1  0.36988307  0.50303210  0.25217662  1
  O  O278  1  0.36910370  0.49893829  0.75979369  1
  O  O279  1  0.87185500  0.00669642  0.25286571  1
  O  O280  1  0.86554207  -0.00779856  0.75574218  1
  O  O281  1  0.87674922  0.50521910  0.26528431  1
  O  O282  1  0.86505231  0.49409171  0.75019836  1
  O  O283  1  0.12284192  0.35956581  0.37170603  1
  O  O284  1  0.12031817  0.37506397  0.87170488  1
  O  O285  1  0.11310579  0.85561899  0.37577006  1
  O  O286  1  0.12550625  0.86674063  0.86554528  1
  O  O287  1  0.62052504  0.36650524  0.37383942  1
  O  O288  1  0.63705129  0.36651097  0.86746393  1
  O  O289  1  0.63797714  0.85875286  0.35936910  1
  O  O290  1  0.62138482  0.87260708  0.86319488  1
  O  O291  1  0.38821299  0.12668738  0.13242517  1
  O  O292  1  0.37888793  0.13658982  0.62762432  1
  O  O293  1  0.38229671  0.63031795  0.12827774  1
  O  O294  1  0.37904268  0.63749155  0.62410056  1
  O  O295  1  0.87749901  0.13271408  0.12982998  1
  O  O296  1  0.88821622  0.12685453  0.62576123  1
  O  O297  1  0.87983234  0.62882082  0.13042593  1
  O  O298  1  0.87269601  0.63850041  0.62068752  1
  O  O299  1  0.25035825  0.26224962  0.13357583  1
  O  O300  1  0.26333527  0.25103258  0.61979610  1
  O  O301  1  0.26513082  0.76330972  0.13346586  1
  O  O302  1  0.25523198  0.75348282  0.62037294  1
  O  O303  1  0.75926866  0.25667530  0.12681130  1
  O  O304  1  0.75584851  0.25897332  0.62126651  1
  O  O305  1  0.75299438  0.75581090  0.11742516  1
  O  O306  1  0.75330736  0.75655922  0.61774442  1
  O  O307  1  0.23866629  0.25138268  0.38366138  1
  O  O308  1  0.25149701  0.23741686  0.87066209  1
  O  O309  1  0.23910732  0.74195909  0.37406422  1
  O  O310  1  0.23902780  0.75304636  0.86899154  1
  O  O311  1  0.74463364  0.25293887  0.38334568  1
  O  O312  1  0.73869837  0.23569346  0.86760374  1
  O  O313  1  0.74390537  0.74928566  0.38806382  1
  O  O314  1  0.74633408  0.74558828  0.88256806  1
  O  O315  1  0.00540217  0.11917456  0.00482561  1
  O  O316  1  -0.00414348  0.09975532  0.49700075  1
  O  O317  1  0.00218367  0.63169793  0.01202895  1
  O  O318  1  0.00157017  0.61442610  0.50277810  1
  O  O319  1  0.49601075  0.11356256  0.00813361  1
  O  O320  1  0.51987742  0.12750685  0.50121077  1
  O  O321  1  0.49625998  0.62478989  0.00819948  1
  O  O322  1  0.50756879  0.61869447  0.50468554  1
  O  O323  1  0.49375232  0.38067289  0.49570034  1
  O  O324  1  0.48294462  0.37883046  1.00497004  1
  O  O325  1  0.48033230  0.86812944  0.50070903  1
  O  O326  1  0.48784730  0.88901133  1.00021810  1
  O  O327  1  0.98836630  0.38018673  0.50564076  1
  O  O328  1  0.99210149  0.37216499  0.99220072  1
  O  O329  1  0.99120949  0.87724082  0.48934230  1
  O  O330  1  0.99035031  0.88296678  0.99974039  1
  O  O331  1  0.49459188  0.49554976  0.38056719  1
  O  O332  1  0.48534807  0.50255057  0.87257653  1
  O  O333  1  0.54766405  0.98801926  0.39518397  1
  O  O334  1  0.49208623  1.00181384  0.88149623  1
  O  O335  1  0.99659182  0.50143866  0.38613122  1
  O  O336  1  0.99971464  0.49016035  0.86930861  1
  O  O337  1  0.99763251  0.98659564  0.37977805  1
  O  O338  1  1.00634307  0.99713534  0.88761279  1
  O  O339  1  0.00302162  0.00610559  0.11354322  1
  O  O340  1  -0.00557618  -0.01248605  0.61024323  1
  O  O341  1  0.00530367  0.50468387  0.12847096  1
  O  O342  1  0.00649914  0.50048989  0.61412630  1
  O  O343  1  0.50628060  0.00684457  0.11874409  1
  O  O344  1  0.49332029  0.00426403  0.61123155  1
  O  O345  1  0.50695327  0.50939063  0.11936468  1
  O  O346  1  0.50492825  0.50425019  0.62119239  1
  O  O347  1  0.25285645  0.38339154  0.24461592  1
  O  O348  1  0.23744102  0.38520482  0.75530730  1
  O  O349  1  0.25594652  0.88192948  0.23740797  1
  O  O350  1  0.24116026  0.88119534  0.74144443  1
  O  O351  1  0.75064546  0.37311275  0.23469293  1
  O  O352  1  0.74632573  0.38105257  0.74546545  1
  O  O353  1  0.74460445  0.88095512  0.24065877  1
  O  O354  1  0.74184651  0.88460000  0.74462863  1
  O  O355  1  0.27040353  0.12672942  0.24801066  1
  O  O356  1  0.25000033  0.11828590  0.75668139  1
  O  O357  1  0.26072122  0.61079750  0.24644437  1
  O  O358  1  0.25272501  0.61256178  0.74528235  1
  O  O359  1  0.76132622  0.12027247  0.24893531  1
  O  O360  1  0.75154426  0.11144418  0.75476319  1
  O  O361  1  0.76392374  0.63063793  0.24495446  1
  O  O362  1  0.74640408  0.61539863  0.75516629  1
  O  O363  1  0.38394705  0.12850721  0.36497523  1
  O  O364  1  0.36970855  0.11580564  0.87358912  1
  O  O365  1  0.36925920  0.61876184  0.36550985  1
  O  O366  1  0.37274418  0.61298772  0.87461578  1
  O  O367  1  0.87283682  0.11755953  0.36693339  1
  O  O368  1  0.86192873  0.13302781  0.88034729  1
  O  O369  1  0.87507619  0.61076619  0.36869859  1
  O  O370  1  0.85901082  0.62591119  0.87854557  1
  O  O371  1  0.13035954  0.37858925  0.12744954  1
  O  O372  1  0.12146618  0.38816998  0.63557476  1
  O  O373  1  0.13534234  0.88273413  0.11624622  1
  O  O374  1  0.13715478  0.86560714  0.63090986  1
  O  O375  1  0.63221075  0.38179160  0.12703307  1
  O  O376  1  0.63819235  0.37943888  0.63125835  1
  O  O377  1  0.63025870  0.88271835  0.13202835  1
  O  O378  1  0.63584584  0.87061592  0.63099322  1
  O  O379  1  0.11644007  0.24698129  0.26303200  1
  O  O380  1  0.11982596  0.26088458  0.75371278  1
  O  O381  1  0.11011472  0.74154855  0.25362706  1
  O  O382  1  0.11789608  0.75629479  0.75704431  1
  O  O383  1  0.61617585  0.25032567  0.25888937  1
  O  O384  1  0.62122194  0.25817863  0.75586739  1
  O  O385  1  0.62219471  0.75589559  0.25499340  1
  O  O386  1  0.61238731  0.75886976  0.74611703  1
  O  O387  1  0.38729094  0.24185199  0.25023215  1
  O  O388  1  0.38351543  0.25418114  0.74489098  1
  O  O389  1  0.37698307  0.73793424  0.24214343  1
  O  O390  1  0.38390426  0.75274459  0.74143378  1
  O  O391  1  0.87948372  0.24360077  0.24632568  1
  O  O392  1  0.89172269  0.26168321  0.75319030  1
  O  O393  1  0.88101508  0.74250879  0.24468278  1
  O  O394  1  0.88393123  0.76006684  0.74067528  1
  O  O395  1  0.37815494  0.49401890  0.49650943  1
  O  O396  1  0.37674558  0.49313118  0.98834047  1
  O  O397  1  0.37109401  0.98308412  0.49211374  1
  O  O398  1  0.38049828  0.99710845  0.99376522  1
  O  O399  1  0.87961633  0.49512315  0.49035976  1
  O  O400  1  0.87491467  0.49255034  1.00156197  1
  O  O401  1  0.87808961  0.98943836  0.49092612  1
  O  O402  1  0.88426232  0.99004610  1.00570768  1
  O  O403  1  0.11752011  0.00973795  0.00842590  1
  O  O404  1  0.10877874  -0.00986929  0.50055149  1
  O  O405  1  0.12840547  0.49998756  0.01059062  1
  O  O406  1  0.11939218  0.49660038  0.50480127  1
  O  O407  1  0.61669819  -0.00759941  0.01134428  1
  O  O408  1  0.64929644  0.02388770  0.51332096  1
  O  O409  1  0.62213270  0.49387421  0.01601153  1
  O  O410  1  0.62146078  0.50574690  0.50605217  1
  O  O411  1  0.36749640  0.37181984  0.11382599  1
  O  O412  1  0.38186143  0.36799735  0.61594238  1
  O  O413  1  0.37065573  0.87031244  0.11914502  1
  O  O414  1  0.36224393  0.86375402  0.61931728  1
  O  O415  1  0.86988447  0.36958699  0.12035017  1
  O  O416  1  0.86496660  0.37634880  0.61674054  1
  O  O417  1  0.86792665  0.86913138  0.11928408  1
  O  O418  1  0.86215972  0.86373619  0.61730977  1
  O  O419  1  0.11388000  0.14614967  0.39326795  1
  O  O420  1  0.13530122  0.12694198  0.88520608  1
  O  O421  1  0.12823632  0.63174853  0.37278792  1
  O  O422  1  0.12409080  0.64138664  0.87545123  1
  O  O423  1  0.63124391  0.14023129  0.38525569  1
  O  O424  1  0.63254284  0.13525889  0.87465666  1
  O  O425  1  0.62288088  0.63010459  0.38324691  1
  O  O426  1  0.63857090  0.63077978  0.87151791  1
