# generated using pymatgen
data_V85Zn86O256
_symmetry_space_group_name_H-M   'P 1'
_cell_length_a   16.98275290
_cell_length_b   16.98789341
_cell_length_c   16.99015159
_cell_angle_alpha   89.91860164
_cell_angle_beta   89.93294534
_cell_angle_gamma   89.88482663
_symmetry_Int_Tables_number   1
_chemical_formula_structural   V85Zn86O256
_chemical_formula_sum   'V85 Zn86 O256'
_cell_volume   4901.66086647
_cell_formula_units_Z   1
loop_
 _symmetry_equiv_pos_site_id
 _symmetry_equiv_pos_as_xyz
  1  'x, y, z'
loop_
 _atom_site_type_symbol
 _atom_site_label
 _atom_site_symmetry_multiplicity
 _atom_site_fract_x
 _atom_site_fract_y
 _atom_site_fract_z
 _atom_site_occupancy
  V  V0  1  0.87693326  0.12913221  0.25116746  1
  V  V1  1  0.50092277  0.25042124  0.74655675  1
  V  V2  1  0.62656331  -0.00077314  0.12581292  1
  V  V3  1  0.62638207  0.12238324  -0.00039207  1
  V  V4  1  -0.00010648  0.87472473  0.37874519  1
  V  V5  1  0.00262588  0.46992248  -0.03447006  1
  V  V6  1  0.25376626  0.24712814  0.49637544  1
  V  V7  1  0.86941097  0.61933920  0.24829975  1
  V  V8  1  0.00653228  0.12379251  0.12369293  1
  V  V9  1  0.49806110  0.87611615  0.37195226  1
  V  V10  1  0.37149183  0.50048551  0.88081795  1
  V  V11  1  0.49582068  0.75122526  0.24271596  1
  V  V12  1  0.62975376  0.36755007  0.25355174  1
  V  V13  1  0.75111401  0.25596026  -0.00336858  1
  V  V14  1  0.87288273  0.25473812  0.11927642  1
  V  V15  1  0.25061317  0.62302179  0.37802644  1
  V  V16  1  0.25624439  0.87303343  0.12898511  1
  V  V17  1  0.62918877  0.74306516  0.87675654  1
  V  V18  1  0.37453734  0.87806566  0.49665282  1
  V  V19  1  0.00832093  0.26454746  0.24102923  1
  V  V20  1  0.12756142  0.25089797  0.37593498  1
  V  V21  1  0.87562804  0.87269905  0.00348795  1
  V  V22  1  0.49412773  0.13304310  0.12444603  1
  V  V23  1  0.49815486  0.62613378  0.62368264  1
  V  V24  1  0.87441732  0.00145527  0.37564877  1
  V  V25  1  0.74941882  -0.00383748  0.74236932  1
  V  V26  1  0.12509348  0.12527968  0.49913997  1
  V  V27  1  0.37751111  0.50021844  0.37602517  1
  V  V28  1  0.75111862  0.00089525  0.24980067  1
  V  V29  1  0.13239566  0.86979147  0.75159576  1
  V  V30  1  0.73098128  0.13327331  0.37484846  1
  V  V31  1  0.50376962  0.50163670  0.49993747  1
  V  V32  1  0.75056592  0.37965071  0.62515804  1
  V  V33  1  0.00555306  0.87610561  0.87728210  1
  V  V34  1  0.87697198  0.74642243  0.13022008  1
  V  V35  1  0.13421452  0.74017702  0.88310757  1
  V  V36  1  0.85933412  0.75203109  0.63145952  1
  V  V37  1  0.62914477  0.63364047  0.49992984  1
  V  V38  1  0.49639906  0.37831136  0.87617505  1
  V  V39  1  0.12503693  0.62213924  0.50790724  1
  V  V40  1  0.50469851  -0.00371540  -0.00185935  1
  V  V41  1  0.12486036  0.74767700  0.37994761  1
  V  V42  1  0.49987861  0.49982272  0.00378941  1
  V  V43  1  0.86164043  0.86850134  0.50316190  1
  V  V44  1  0.75196917  0.38386828  0.12788400  1
  V  V45  1  0.50642458  0.36691105  0.37639721  1
  V  V46  1  0.62158937  0.24905482  0.87372762  1
  V  V47  1  -0.00291062  0.00635701  -0.00153175  1
  V  V48  1  0.25427260  0.49856417  0.74834206  1
  V  V49  1  0.86898965  -0.01892546  0.86814870  1
  V  V50  1  0.62653259  0.50145591  0.13214128  1
  V  V51  1  0.37622020  0.10974318  0.74726780  1
  V  V52  1  0.49629272  0.87687831  0.87467633  1
  V  V53  1  0.19720621  0.04898318  0.80383929  1
  V  V54  1  -0.00138812  0.63463708  0.62950315  1
  V  V55  1  0.86492017  0.49707548  0.37516817  1
  V  V56  1  0.00100480  0.74824073  0.25215864  1
  V  V57  1  0.09153738  0.46734055  0.64427710  1
  V  V58  1  0.01637628  0.61352710  0.12717629  1
  V  V59  1  0.75162331  0.87399670  0.12667949  1
  V  V60  1  0.37035796  0.62621144  0.75555298  1
  V  V61  1  0.37378925  0.24657278  0.62954746  1
  V  V62  1  0.74105063  0.24456772  0.50747038  1
  V  V63  1  0.00320989  0.37521986  0.37732487  1
  V  V64  1  0.23677353  0.48671165  0.25048503  1
  V  V65  1  -0.01817532  0.13591434  0.62026303  1
  V  V66  1  -0.00534675  0.50283273  0.50023905  1
  V  V67  1  0.32033781  0.33447659  0.05582434  1
  V  V68  1  0.75152173  0.63327163  0.37994494  1
  V  V69  1  0.25094480  0.88483087  0.62669851  1
  V  V70  1  0.25402186  0.37704909  0.62591256  1
  V  V71  1  0.92413708  0.15542784  0.79665623  1
  V  V72  1  -0.00144912  -0.00247931  0.50499930  1
  V  V73  1  0.49844144  0.75042396  0.75271598  1
  V  V74  1  0.63130666  0.87334884  0.74433185  1
  V  V75  1  0.37342508  0.62542744  0.24187742  1
  V  V76  1  0.37701812  0.86528891  0.00408313  1
  V  V77  1  0.12277750  -0.00374043  0.12256479  1
  V  V78  1  0.75014402  0.12013231  0.87181342  1
  V  V79  1  0.62333929  0.00227935  0.61598591  1
  V  V80  1  0.33224983  0.05533940  0.93204904  1
  V  V81  1  0.12892007  0.87711393  0.25439188  1
  V  V82  1  0.75189925  0.73885175  0.00163646  1
  V  V83  1  0.25279068  0.73450948  0.00622838  1
  V  V84  1  0.37282947  0.75205052  0.62591689  1
  Zn  Zn85  1  0.62558832  0.38125563  0.74875828  1
  Zn  Zn86  1  0.49909887  0.62711732  0.12397169  1
  Zn  Zn87  1  0.24926252  0.74968167  0.50365958  1
  Zn  Zn88  1  0.62464749  0.50117104  0.63164917  1
  Zn  Zn89  1  0.12344666  0.45072438  0.12150669  1
  Zn  Zn90  1  -0.00308932  0.74802259  0.75613025  1
  Zn  Zn91  1  0.35403617  0.14387287  0.26546906  1
  Zn  Zn92  1  0.87512489  0.36152803  0.50316715  1
  Zn  Zn93  1  0.91570437  0.56494997  0.80141468  1
  Zn  Zn94  1  0.49676792  0.25024376  0.24855671  1
  Zn  Zn95  1  0.62608744  0.75296169  0.37479790  1
  Zn  Zn96  1  0.38056143  0.37269318  0.50123490  1
  Zn  Zn97  1  0.22298956  0.21264639  -0.01782481  1
  Zn  Zn98  1  0.36259433  0.01006741  0.36860951  1
  Zn  Zn99  1  0.74762541  0.52408134  0.77824172  1
  Zn  Zn100  1  0.62927465  0.62061182  0.00131141  1
  Zn  Zn101  1  0.12448520  0.00518553  0.62798862  1
  Zn  Zn102  1  0.03925375  0.34890601  0.79422746  1
  Zn  Zn103  1  0.50561912  0.12749528  0.61749467  1
  Zn  Zn104  1  0.50227299  0.00779228  0.49082850  1
  Zn  Zn105  1  0.62360420  0.87204262  0.25006763  1
  Zn  Zn106  1  0.23877105  0.02783338  0.25851561  1
  Zn  Zn107  1  0.18905087  0.24432656  0.17851578  1
  Zn  Zn108  1  0.17480898  0.19399175  0.68564730  1
  Zn  Zn109  1  0.19506419  0.69188838  0.19370353  1
  Zn  Zn110  1  0.18886104  0.68966968  0.68850595  1
  Zn  Zn111  1  0.68631369  0.18991205  0.18825739  1
  Zn  Zn112  1  0.68980090  0.18280106  0.68874175  1
  Zn  Zn113  1  0.68638011  0.68558489  0.19116677  1
  Zn  Zn114  1  0.68292291  0.68719342  0.68495470  1
  Zn  Zn115  1  0.32106176  0.31190376  0.31491289  1
  Zn  Zn116  1  0.20789641  0.31680189  0.81762830  1
  Zn  Zn117  1  0.31309540  0.81123334  0.31378564  1
  Zn  Zn118  1  0.31190473  0.81463248  0.81697383  1
  Zn  Zn119  1  0.81435231  0.31145592  0.31307540  1
  Zn  Zn120  1  0.81410480  0.31122543  0.80113942  1
  Zn  Zn121  1  0.81281223  0.81267589  0.31451712  1
  Zn  Zn122  1  0.81169721  0.70648714  0.81654450  1
  Zn  Zn123  1  0.18520565  0.43571524  0.44518236  1
  Zn  Zn124  1  0.18141644  0.44271553  0.93405441  1
  Zn  Zn125  1  0.18827712  0.93962373  0.44019878  1
  Zn  Zn126  1  0.18596709  0.92899713  0.94766713  1
  Zn  Zn127  1  0.68642594  0.43653969  0.44263212  1
  Zn  Zn128  1  0.68248515  0.43543075  0.93895484  1
  Zn  Zn129  1  0.68693457  0.93774916  0.43115040  1
  Zn  Zn130  1  0.68792295  0.92667180  0.93572554  1
  Zn  Zn131  1  0.28371430  0.09877865  0.11270916  1
  Zn  Zn132  1  0.31506796  0.06486477  0.55662060  1
  Zn  Zn133  1  0.30592713  0.53929074  0.06798478  1
  Zn  Zn134  1  0.31608659  0.56278071  0.56317786  1
  Zn  Zn135  1  0.81510737  0.06488314  0.06072941  1
  Zn  Zn136  1  0.80357414  0.05799748  0.55660867  1
  Zn  Zn137  1  0.82461158  0.55662926  -0.04668914  1
  Zn  Zn138  1  0.81504314  0.56323898  0.57168228  1
  Zn  Zn139  1  0.43977234  0.43923338  0.19453036  1
  Zn  Zn140  1  0.43794179  0.43602559  0.68805168  1
  Zn  Zn141  1  0.42983397  0.94902456  0.19102995  1
  Zn  Zn142  1  0.44274238  0.93561496  0.68466359  1
  Zn  Zn143  1  0.93444214  0.44031161  0.18531064  1
  Zn  Zn144  1  0.91243597  0.41798894  0.70730604  1
  Zn  Zn145  1  0.93797650  0.93567322  0.19082399  1
  Zn  Zn146  1  0.93974440  0.93173677  0.68723505  1
  Zn  Zn147  1  0.06197565  0.06706877  0.31377237  1
  Zn  Zn148  1  0.09508872  0.20641775  0.87066923  1
  Zn  Zn149  1  0.06014450  0.56366743  0.31599748  1
  Zn  Zn150  1  0.08040771  0.56826366  0.80899503  1
  Zn  Zn151  1  0.55555145  0.05797173  0.30642223  1
  Zn  Zn152  1  0.56063226  0.06164241  0.80905573  1
  Zn  Zn153  1  0.56488484  0.56199277  0.31119388  1
  Zn  Zn154  1  0.56349750  0.56317100  0.81119996  1
  Zn  Zn155  1  0.44001959  0.18082734  0.43830454  1
  Zn  Zn156  1  0.37825228  0.24626663  0.88906842  1
  Zn  Zn157  1  0.43810858  0.69136435  0.43494903  1
  Zn  Zn158  1  0.43883165  0.68393379  0.93908595  1
  Zn  Zn159  1  0.93356962  0.18923958  0.43707792  1
  Zn  Zn160  1  0.92705471  0.30127281  0.92249643  1
  Zn  Zn161  1  0.93423650  0.68745046  0.44031744  1
  Zn  Zn162  1  0.95139974  0.69181771  0.94978026  1
  Zn  Zn163  1  0.06957900  0.29901057  0.04835494  1
  Zn  Zn164  1  0.05774274  0.31123830  0.56603119  1
  Zn  Zn165  1  0.06520059  0.81050322  0.06479573  1
  Zn  Zn166  1  0.06293575  0.81291863  0.56437030  1
  Zn  Zn167  1  0.56247036  0.31581867  0.05933569  1
  Zn  Zn168  1  0.56824222  0.30987558  0.55946588  1
  Zn  Zn169  1  0.56486106  0.81013651  0.06479460  1
  Zn  Zn170  1  0.56068828  0.81567425  0.56157512  1
  O  O171  1  0.10790817  0.11404796  0.12426025  1
  O  O172  1  0.11073611  0.12540149  0.61355759  1
  O  O173  1  0.11297002  0.63145969  0.14332443  1
  O  O174  1  0.11519283  0.63101205  0.61953013  1
  O  O175  1  0.62859800  0.11373461  0.11796364  1
  O  O176  1  0.62564147  0.10546226  0.63000590  1
  O  O177  1  0.62442246  0.61447057  0.12566161  1
  O  O178  1  0.61587294  0.62404587  0.61611103  1
  O  O179  1  0.38587474  0.38745122  0.38023936  1
  O  O180  1  0.39152675  0.39135808  0.86728541  1
  O  O181  1  0.38003908  0.87383966  0.38331031  1
  O  O182  1  0.38916340  0.86968432  0.88279227  1
  O  O183  1  0.88352049  0.38261120  0.37674736  1
  O  O184  1  0.91834198  0.35713167  0.81930752  1
  O  O185  1  0.88068653  0.87915041  0.38488992  1
  O  O186  1  0.88526738  0.87542207  0.88300960  1
  O  O187  1  0.24752253  -0.00881518  0.36446606  1
  O  O188  1  0.25653846  -0.00642577  0.87432762  1
  O  O189  1  0.25600875  0.50794122  0.37796569  1
  O  O190  1  0.25913986  0.49774235  0.85914405  1
  O  O191  1  0.75594759  0.01116291  0.36995309  1
  O  O192  1  0.75486837  -0.00402303  0.86911985  1
  O  O193  1  0.76234932  0.50624572  0.38243143  1
  O  O194  1  0.76278936  0.49099661  0.88757829  1
  O  O195  1  0.23112461  0.49885879  0.14498179  1
  O  O196  1  0.26006185  0.49052571  0.63246009  1
  O  O197  1  0.23509319  0.98681159  0.12664355  1
  O  O198  1  0.24738604  0.98750865  0.61811504  1
  O  O199  1  0.74324557  0.48406235  0.11947314  1
  O  O200  1  0.74331110  0.48325100  0.61037330  1
  O  O201  1  0.74607508  0.99594118  0.12920005  1
  O  O202  1  0.73909822  0.99799776  0.63128360  1
  O  O203  1  -0.00687100  0.36659925  0.25959445  1
  O  O204  1  0.02335503  0.39301186  0.68830974  1
  O  O205  1  0.00583332  0.86811287  0.25955446  1
  O  O206  1  0.01463051  0.87311153  0.75927349  1
  O  O207  1  0.50962920  0.37668736  0.26083043  1
  O  O208  1  0.50368904  0.36714835  0.75425953  1
  O  O209  1  0.49488318  0.86903409  0.25401328  1
  O  O210  1  0.50507785  0.86993382  0.75887709  1
  O  O211  1  0.50618778  0.12679083  0.23047555  1
  O  O212  1  0.49162749  0.13099568  0.74490469  1
  O  O213  1  0.49049908  0.63196406  0.25123944  1
  O  O214  1  0.49034054  0.63044827  0.74381265  1
  O  O215  1  0.99297555  0.13313763  0.24242505  1
  O  O216  1  0.99039336  0.11263791  0.73007487  1
  O  O217  1  0.99305194  0.63287939  0.25125905  1
  O  O218  1  1.00160999  0.62846303  0.74294806  1
  O  O219  1  0.38779224  0.28646844  -0.00130073  1
  O  O220  1  0.36744402  0.24910568  0.51331383  1
  O  O221  1  0.36991053  0.75855182  -0.00269150  1
  O  O222  1  0.37484050  0.76098380  0.50725069  1
  O  O223  1  0.86386859  0.24975322  0.00655928  1
  O  O224  1  0.85054761  0.24918056  0.48470101  1
  O  O225  1  0.87101023  0.75521245  0.01157751  1
  O  O226  1  0.87876869  0.76374084  0.50661574  1
  O  O227  1  0.12904785  0.24439119  0.49362765  1
  O  O228  1  0.11215116  0.22581957  0.97869616  1
  O  O229  1  0.12591971  0.74280092  0.49489745  1
  O  O230  1  0.13670742  0.75788715  0.99062681  1
  O  O231  1  0.64153039  0.25152054  0.49082835  1
  O  O232  1  0.63057758  0.24010097  0.99285737  1
  O  O233  1  0.61632072  0.73740215  0.49600708  1
  O  O234  1  0.63473447  0.74843411  0.99554946  1
  O  O235  1  0.51104724  0.23464573  0.11961372  1
  O  O236  1  0.49354621  0.25112935  0.63035689  1
  O  O237  1  0.50173205  0.74792031  0.13803643  1
  O  O238  1  0.49181892  0.74795349  0.63331358  1
  O  O239  1  0.98900628  0.23972062  0.12729299  1
  O  O240  1  0.99071143  0.23518061  0.61779833  1
  O  O241  1  0.99805628  0.75136345  0.14201737  1
  O  O242  1  0.99591712  0.74312333  0.62763482  1
  O  O243  1  0.00431035  0.25873444  0.36903548  1
  O  O244  1  -0.02210204  0.21214388  0.86357062  1
  O  O245  1  0.00260847  0.75249838  0.36813299  1
  O  O246  1  0.01506813  0.76115779  0.87962151  1
  O  O247  1  0.49792359  0.26581252  0.37921193  1
  O  O248  1  0.49493777  0.26097298  0.86415933  1
  O  O249  1  0.49926847  0.76109408  0.36450494  1
  O  O250  1  0.50597831  0.75583783  0.87072227  1
  O  O251  1  0.23875791  0.13896048  0.50905445  1
  O  O252  1  0.26788505  0.10372855  0.99877971  1
  O  O253  1  0.24391307  0.62442245  0.49599868  1
  O  O254  1  0.25855149  0.63597875  1.01544849  1
  O  O255  1  0.74775389  0.13050199  0.48397168  1
  O  O256  1  0.74297135  0.13081475  0.99355138  1
  O  O257  1  0.74033278  0.62009769  0.49329016  1
  O  O258  1  0.75309937  0.63639953  1.00532860  1
  O  O259  1  0.25874662  0.40084038  0.00695333  1
  O  O260  1  0.25739545  0.36462681  0.50529614  1
  O  O261  1  0.26106671  0.86756200  0.00921581  1
  O  O262  1  0.25618159  0.87054162  0.50924330  1
  O  O263  1  0.73994082  0.35929916  0.01032860  1
  O  O264  1  0.74887103  0.36263191  0.50692873  1
  O  O265  1  0.75751629  0.86664919  0.00969063  1
  O  O266  1  0.76399175  0.87639440  0.49318986  1
  O  O267  1  0.13765571  0.49715113  0.26686788  1
  O  O268  1  0.13886446  0.50800236  0.73204731  1
  O  O269  1  0.11964587  0.99616160  0.24009203  1
  O  O270  1  0.13475149  0.98968042  0.74607238  1
  O  O271  1  0.62180759  0.49124534  0.23767990  1
  O  O272  1  0.63365324  0.49980623  0.74968113  1
  O  O273  1  0.63255765  0.99660840  0.24013536  1
  O  O274  1  0.62775520  0.99023997  0.74184243  1
  O  O275  1  0.36187143  0.01872787  0.24664117  1
  O  O276  1  0.37916439  0.01000088  0.74585622  1
  O  O277  1  0.36588636  0.50620010  0.26331455  1
  O  O278  1  0.37185566  0.50807453  0.75547878  1
  O  O279  1  0.87099370  0.00811411  0.25470299  1
  O  O280  1  0.86249991  -0.01738981  0.75583254  1
  O  O281  1  0.88119417  0.50965374  0.26209220  1
  O  O282  1  0.85384625  0.50930269  0.73007781  1
  O  O283  1  0.11058839  0.36732143  0.38557279  1
  O  O284  1  0.12174090  0.37831694  0.86528095  1
  O  O285  1  0.11768916  0.86671116  0.37465022  1
  O  O286  1  0.12187149  0.87119057  0.86990168  1
  O  O287  1  0.61812210  0.38685199  0.36498401  1
  O  O288  1  0.61408764  0.36561456  0.87170816  1
  O  O289  1  0.61476728  0.87329177  0.37117021  1
  O  O290  1  0.61414824  0.86389728  0.87002409  1
  O  O291  1  0.39738969  0.12181270  0.11057295  1
  O  O292  1  0.37433063  0.13090618  0.63206107  1
  O  O293  1  0.37379043  0.61102871  0.14100156  1
  O  O294  1  0.38065313  0.63337980  0.63098191  1
  O  O295  1  0.87774010  0.13200897  0.13514964  1
  O  O296  1  0.88423834  0.11774628  0.61188587  1
  O  O297  1  0.89142235  0.63320498  0.14066459  1
  O  O298  1  0.88239357  0.64546021  0.61418122  1
  O  O299  1  0.25900541  0.25261283  0.08816154  1
  O  O300  1  0.25630546  0.25661548  0.62216119  1
  O  O301  1  0.24497280  0.76369451  0.11876959  1
  O  O302  1  0.25802147  0.76017232  0.62541650  1
  O  O303  1  0.75717698  0.25281194  0.11738595  1
  O  O304  1  0.74172276  0.25115762  0.61227836  1
  O  O305  1  0.75588591  0.75398243  0.12219928  1
  O  O306  1  0.76123548  0.75184481  0.62440978  1
  O  O307  1  0.23988512  0.25924726  0.38604259  1
  O  O308  1  0.26646961  0.24856266  0.88330384  1
  O  O309  1  0.24571937  0.73605645  0.37847275  1
  O  O310  1  0.24110140  0.75495102  0.88768728  1
  O  O311  1  0.74738105  0.23497776  0.37056667  1
  O  O312  1  0.74625307  0.24556241  0.88035852  1
  O  O313  1  0.74992386  0.73713470  0.37473215  1
  O  O314  1  0.74029595  0.75972146  0.89052016  1
  O  O315  1  -0.01482875  0.10593244  0.01141683  1
  O  O316  1  0.00151945  0.11781103  0.50567659  1
  O  O317  1  0.00944058  0.63576267  0.02954507  1
  O  O318  1  0.00580644  0.61956897  0.50338158  1
  O  O319  1  0.51959757  0.11504161  0.00867725  1
  O  O320  1  0.50297747  0.11950563  0.50522779  1
  O  O321  1  0.50317881  0.61380440  0.00460658  1
  O  O322  1  0.50337408  0.62034978  0.50368392  1
  O  O323  1  0.50245017  0.38521815  0.49428353  1
  O  O324  1  0.50917169  0.39086581  0.99016725  1
  O  O325  1  0.49163729  0.87729459  0.48959105  1
  O  O326  1  0.49536777  0.87511275  0.99624513  1
  O  O327  1  0.99361226  0.38275010  0.49571567  1
  O  O328  1  0.99460471  0.36760450  0.98546359  1
  O  O329  1  0.99573986  0.88198979  0.49579884  1
  O  O330  1  0.99404256  0.87846633  0.99712366  1
  O  O331  1  0.49313701  0.49832313  0.38144966  1
  O  O332  1  0.49671790  0.49703677  0.88264796  1
  O  O333  1  0.49399301  0.98671083  0.37091843  1
  O  O334  1  0.51106616  0.98847231  0.88446853  1
  O  O335  1  0.99362238  0.49384878  0.38331970  1
  O  O336  1  1.00238207  0.50377493  0.86614521  1
  O  O337  1  0.99363942  0.99720477  0.38585018  1
  O  O338  1  0.99061705  0.98461791  0.88387237  1
  O  O339  1  0.00138413  0.00259019  0.12077502  1
  O  O340  1  0.00046246  0.00073326  0.61325390  1
  O  O341  1  0.01617767  0.50804268  0.14260774  1
  O  O342  1  -0.00466800  0.51972144  0.61579104  1
  O  O343  1  0.51198272  0.00455873  0.11851317  1
  O  O344  1  0.51447751  -0.00103530  0.62295043  1
  O  O345  1  0.50785855  0.49999859  0.11941453  1
  O  O346  1  0.49901966  0.50673352  0.61613789  1
  O  O347  1  0.25050591  0.38944602  0.26389931  1
  O  O348  1  0.25381036  0.38618697  0.73658646  1
  O  O349  1  0.24118359  0.86598156  0.24242408  1
  O  O350  1  0.24100576  0.87058959  0.74418119  1
  O  O351  1  0.74331533  0.36825562  0.24097136  1
  O  O352  1  0.74288933  0.36463574  0.73093699  1
  O  O353  1  0.75067153  0.88210908  0.24495333  1
  O  O354  1  0.73194831  0.88338871  0.75641113  1
  O  O355  1  0.24698147  0.13880865  0.21250076  1
  O  O356  1  0.25083830  0.11702636  0.74603775  1
  O  O357  1  0.25605229  0.61778831  0.26170602  1
  O  O358  1  0.26403811  0.61784350  0.74158566  1
  O  O359  1  0.75672101  0.12217945  0.25709039  1
  O  O360  1  0.73979871  0.10477124  0.75887832  1
  O  O361  1  0.76341963  0.62829273  0.25932353  1
  O  O362  1  0.74553489  0.63707743  0.75933599  1
  O  O363  1  0.36768704  0.12509439  0.37683414  1
  O  O364  1  0.37826281  0.12207424  0.86539626  1
  O  O365  1  0.36782880  0.61771171  0.37272114  1
  O  O366  1  0.38045549  0.61488532  0.86481777  1
  O  O367  1  0.87461622  0.11997896  0.36172282  1
  O  O368  1  0.86705603  0.09745258  0.86669869  1
  O  O369  1  0.86918481  0.61831910  0.37176730  1
  O  O370  1  0.87967132  0.63635467  0.88273411  1
  O  O371  1  0.11633930  0.33814628  0.14204627  1
  O  O372  1  0.14440826  0.37680134  0.60835714  1
  O  O373  1  0.12821813  0.88015834  0.13470916  1
  O  O374  1  0.13269795  0.87428305  0.63489591  1
  O  O375  1  0.63156727  0.37954878  0.13317024  1
  O  O376  1  0.63336567  0.37784078  0.62522066  1
  O  O377  1  0.63199431  0.88553793  0.12521826  1
  O  O378  1  0.61910083  0.88116257  0.63657014  1
  O  O379  1  0.11600056  0.24059881  0.26809578  1
  O  O380  1  0.12037615  0.25132542  0.76687497  1
  O  O381  1  0.11807525  0.75497934  0.26096244  1
  O  O382  1  0.12693856  0.75489798  0.76519545  1
  O  O383  1  0.61871602  0.26366185  0.24597627  1
  O  O384  1  0.61215816  0.24329979  0.75570910  1
  O  O385  1  0.61364513  0.75160280  0.25359606  1
  O  O386  1  0.61765462  0.75820892  0.75650753  1
  O  O387  1  0.38343370  0.25180212  0.24745756  1
  O  O388  1  0.38564530  0.23929093  0.73914392  1
  O  O389  1  0.38132682  0.73670327  0.25521800  1
  O  O390  1  0.37764320  0.74372707  0.74832677  1
  O  O391  1  0.88449206  0.24447047  0.24266074  1
  O  O392  1  0.86002535  0.21430039  0.75011330  1
  O  O393  1  0.88346029  0.74416563  0.24990808  1
  O  O394  1  0.87821211  0.75938219  0.73443197  1
  O  O395  1  0.38670879  0.50173379  0.49193313  1
  O  O396  1  0.38372406  0.50748606  0.98944708  1
  O  O397  1  0.37575515  0.98616842  0.49917476  1
  O  O398  1  0.38674740  0.98555236  0.99267028  1
  O  O399  1  0.88469296  0.50149308  0.49405657  1
  O  O400  1  0.91744117  0.50589514  1.00457885  1
  O  O401  1  0.87939384  0.98827502  0.49606797  1
  O  O402  1  0.87711853  0.98950235  0.99403700  1
  O  O403  1  0.11173824  -0.01071825  0.01407762  1
  O  O404  1  0.11528711  0.00777264  0.50263620  1
  O  O405  1  0.09861020  0.48864512  0.00552985  1
  O  O406  1  0.11036244  0.50076839  0.51637720  1
  O  O407  1  0.62754898  0.00286178  0.00637482  1
  O  O408  1  0.62640095  -0.01104174  0.51394512  1
  O  O409  1  0.61837647  0.50150955  0.01257498  1
  O  O410  1  0.61270410  0.51173530  0.49842397  1
  O  O411  1  0.36666331  0.38690508  0.12799135  1
  O  O412  1  0.36923378  0.36564890  0.62349781  1
  O  O413  1  0.36668377  0.88056246  0.11678311  1
  O  O414  1  0.36951061  0.87098345  0.62060700  1
  O  O415  1  0.86799262  0.36317500  0.13063316  1
  O  O416  1  0.85460685  0.36639045  0.61978757  1
  O  O417  1  0.87145706  0.86651797  0.12461304  1
  O  O418  1  0.87937098  0.86407663  0.61188111  1
  O  O419  1  0.11604440  0.13457936  0.39099268  1
  O  O420  1  0.13432075  0.09632246  0.86170380  1
  O  O421  1  0.13206615  0.62725918  0.38586961  1
  O  O422  1  0.12861047  0.64122901  0.88000694  1
  O  O423  1  0.63402577  0.12039730  0.36544480  1
  O  O424  1  0.62963480  0.12832439  0.88194869  1
  O  O425  1  0.63551078  0.62439652  0.38035575  1
  O  O426  1  0.61718411  0.64029442  0.87988595  1
