# generated using pymatgen
data_V85Zn86O256
_symmetry_space_group_name_H-M   'P 1'
_cell_length_a   16.94381909
_cell_length_b   16.94883802
_cell_length_c   16.93868744
_cell_angle_alpha   90.02103586
_cell_angle_beta   90.03623025
_cell_angle_gamma   90.02733034
_symmetry_Int_Tables_number   1
_chemical_formula_structural   V85Zn86O256
_chemical_formula_sum   'V85 Zn86 O256'
_cell_volume   4864.41729238
_cell_formula_units_Z   1
loop_
 _symmetry_equiv_pos_site_id
 _symmetry_equiv_pos_as_xyz
  1  'x, y, z'
loop_
 _atom_site_type_symbol
 _atom_site_label
 _atom_site_symmetry_multiplicity
 _atom_site_fract_x
 _atom_site_fract_y
 _atom_site_fract_z
 _atom_site_occupancy
  V  V0  1  0.12738759  0.50082740  0.12861362  1
  V  V1  1  0.87391290  0.24817490  0.11962489  1
  V  V2  1  0.12641458  0.62565252  0.00031938  1
  V  V3  1  0.26225166  0.12595334  0.87466967  1
  V  V4  1  0.12857920  -0.01284215  0.12417099  1
  V  V5  1  0.37400616  0.74967495  0.62340406  1
  V  V6  1  0.37368121  0.12529221  0.24865272  1
  V  V7  1  0.12916285  0.12512463  0.00118634  1
  V  V8  1  0.24782380  0.76356952  0.00393800  1
  V  V9  1  0.00013500  0.86848251  0.86664481  1
  V  V10  1  0.62576918  0.24799502  0.37602135  1
  V  V11  1  0.12358673  0.86831066  0.26714723  1
  V  V12  1  0.87492414  0.50188854  0.37132726  1
  V  V13  1  0.74963699  0.37269392  0.11987618  1
  V  V14  1  0.73124363  -0.00357582  0.24596611  1
  V  V15  1  0.13097527  0.37708286  0.25155368  1
  V  V16  1  0.24555970  0.00069927  0.74621066  1
  V  V17  1  0.62832229  0.24718660  0.85525155  1
  V  V18  1  0.37483881  0.00091568  0.37607228  1
  V  V19  1  0.61833229  0.87240975  0.74591153  1
  V  V20  1  0.87260953  0.50052610  0.87395912  1
  V  V21  1  0.00204290  0.11713819  0.62547679  1
  V  V22  1  0.50473174  0.74743570  0.75063023  1
  V  V23  1  0.00586926  0.62773430  0.62301120  1
  V  V24  1  0.61956495  0.62032496  -0.00039365  1
  V  V25  1  0.39576954  0.24623994  0.63015775  1
  V  V26  1  0.25429683  0.37757477  0.12634353  1
  V  V27  1  0.50603636  0.00574178  0.50033623  1
  V  V28  1  0.37045047  0.61261974  0.25754526  1
  V  V29  1  0.63675668  0.13926724  0.01300956  1
  V  V30  1  0.74726108  0.87764842  0.62105835  1
  V  V31  1  0.00060805  0.24951513  0.74882685  1
  V  V32  1  0.87982237  0.75208783  0.62610706  1
  V  V33  1  0.24054064  0.87729688  0.62222711  1
  V  V34  1  0.37604860  0.87527184  0.49817905  1
  V  V35  1  0.49506332  0.61874156  0.12228418  1
  V  V36  1  0.00006569  0.37456738  0.37475479  1
  V  V37  1  0.12791840  0.25126385  0.87445747  1
  V  V38  1  0.75234211  0.74956628  -0.00552662  1
  V  V39  1  0.73648590  0.87580790  0.12588268  1
  V  V40  1  0.75259779  0.37677977  0.62228574  1
  V  V41  1  -0.00007326  0.37471145  0.87318942  1
  V  V42  1  0.74964666  0.50090664  0.74830251  1
  V  V43  1  0.00294273  -0.00537609  0.49509796  1
  V  V44  1  0.87578834  0.87384609  0.49208394  1
  V  V45  1  0.37894053  0.49622966  0.89399745  1
  V  V46  1  0.87980876  0.63128081  0.75069478  1
  V  V47  1  0.37570113  0.25089602  0.12099010  1
  V  V48  1  0.36518207  0.75671026  0.12716168  1
  V  V49  1  0.37645930  -0.02410810  0.88302204  1
  V  V50  1  -0.00139416  0.49683112  0.00092129  1
  V  V51  1  0.73850994  0.62642952  0.87230593  1
  V  V52  1  0.12812642  0.11970449  0.50495320  1
  V  V53  1  0.37195769  0.38278695  0.50546025  1
  V  V54  1  0.25230533  0.25028826  0.51223823  1
  V  V55  1  0.56922356  0.80486751  0.92797427  1
  V  V56  1  0.24921998  -0.00515241  0.24645174  1
  V  V57  1  0.00275954  -0.00095944  0.00001777  1
  V  V58  1  0.50448539  0.75315583  0.24317670  1
  V  V59  1  0.87835541  -0.00161355  0.36307045  1
  V  V60  1  0.75390588  0.12204741  0.37023402  1
  V  V61  1  0.49883232  0.24933213  0.24989004  1
  V  V62  1  0.87867819  0.00146737  0.87390481  1
  V  V63  1  -0.00030392  0.12239979  0.13015891  1
  V  V64  1  0.49437263  0.38118226  0.37613823  1
  V  V65  1  0.62052002  0.75104255  0.38296021  1
  V  V66  1  0.87764211  0.24915051  0.62361048  1
  V  V67  1  0.74298169  0.62431139  0.37698753  1
  V  V68  1  -0.00253481  0.75157199  0.26325513  1
  V  V69  1  0.37525372  0.61867503  0.74988092  1
  V  V70  1  0.75200622  0.24643716  0.49785262  1
  V  V71  1  0.87699302  0.87386827  0.00343427  1
  V  V72  1  0.23833325  0.74684393  0.48787590  1
  V  V73  1  0.24176326  0.61126238  0.37528518  1
  V  V74  1  0.13264630  0.37769398  0.74084361  1
  V  V75  1  -0.00252922  0.24548810  0.25120166  1
  V  V76  1  0.56407748  0.05451561  0.68521250  1
  V  V77  1  0.75276001  0.00040879  0.74583612  1
  V  V78  1  0.25412824  0.25766399  -0.00177759  1
  V  V79  1  0.00700124  0.50496540  0.49813096  1
  V  V80  1  0.12312254  0.74831718  0.86610507  1
  V  V81  1  0.12767574  0.24844014  0.37707606  1
  V  V82  1  0.62673998  0.37712380  0.25006556  1
  V  V83  1  0.62787682  0.50650003  0.61166913  1
  V  V84  1  0.50481490  0.62672360  0.61443264  1
  Zn  Zn85  1  0.25087197  0.12621569  0.37664104  1
  Zn  Zn86  1  0.87786633  0.37421244  0.49717450  1
  Zn  Zn87  1  -0.00269405  0.62922032  0.12723374  1
  Zn  Zn88  1  0.13197513  0.50297207  0.61854343  1
  Zn  Zn89  1  0.24956906  0.62318539  0.87419491  1
  Zn  Zn90  1  0.75493199  0.12639024  0.88452266  1
  Zn  Zn91  1  0.62500618  0.11958915  0.50579057  1
  Zn  Zn92  1  0.62132370  0.49660210  0.12147766  1
  Zn  Zn93  1  0.61566118  0.37158207  0.74292207  1
  Zn  Zn94  1  0.87596610  0.74696746  0.12649695  1
  Zn  Zn95  1  0.49470660  0.37238323  0.87903492  1
  Zn  Zn96  1  0.86454433  0.37148658  -0.00554322  1
  Zn  Zn97  1  0.74557224  0.74460498  0.50226132  1
  Zn  Zn98  1  0.11998266  0.87537349  0.74357423  1
  Zn  Zn99  1  0.25381775  0.49948777  0.74520169  1
  Zn  Zn100  1  0.75017450  0.50277064  0.24701947  1
  Zn  Zn101  1  0.87641929  0.12607656  0.75149190  1
  Zn  Zn102  1  0.49981919  0.50654534  0.49272509  1
  Zn  Zn103  1  0.87276980  0.62739621  0.24730355  1
  Zn  Zn104  1  0.50088700  0.11259462  0.11723838  1
  Zn  Zn105  1  0.50564994  0.87814704  0.37032314  1
  Zn  Zn106  1  0.38709834  0.12440595  0.74891119  1
  Zn  Zn107  1  0.18683410  0.18584134  0.18743524  1
  Zn  Zn108  1  0.18871019  0.18621491  0.68845519  1
  Zn  Zn109  1  0.18609781  0.68635084  0.19418974  1
  Zn  Zn110  1  0.19173501  0.68812403  0.68429916  1
  Zn  Zn111  1  0.69076278  0.18686013  0.19078414  1
  Zn  Zn112  1  0.69509348  0.18706737  0.68713352  1
  Zn  Zn113  1  0.68669689  0.68771369  0.18537158  1
  Zn  Zn114  1  0.68807397  0.68963835  0.68526825  1
  Zn  Zn115  1  0.31159265  0.31262515  0.31715417  1
  Zn  Zn116  1  0.31956233  0.31603789  0.80947889  1
  Zn  Zn117  1  0.31322209  0.81200205  0.30990769  1
  Zn  Zn118  1  0.30693994  0.80512950  0.80897894  1
  Zn  Zn119  1  0.81441904  0.31206236  0.30739177  1
  Zn  Zn120  1  0.80821560  0.31231205  0.81219533  1
  Zn  Zn121  1  0.80727477  0.81296429  0.31160651  1
  Zn  Zn122  1  0.81125187  0.81343428  0.81144547  1
  Zn  Zn123  1  0.18985681  0.43507871  0.44076267  1
  Zn  Zn124  1  0.19167601  0.43978065  0.93259663  1
  Zn  Zn125  1  0.19033128  0.93987011  0.43745584  1
  Zn  Zn126  1  0.18897964  0.93772544  0.93271793  1
  Zn  Zn127  1  0.68947810  0.43564167  0.43516668  1
  Zn  Zn128  1  0.64726740  0.41168032  0.95819456  1
  Zn  Zn129  1  0.68629424  0.93412808  0.43408617  1
  Zn  Zn130  1  0.69537517  0.94239325  0.93615231  1
  Zn  Zn131  1  0.31644338  0.05966892  0.06198337  1
  Zn  Zn132  1  0.31676897  0.06431180  0.56716586  1
  Zn  Zn133  1  0.30720310  0.56821010  0.06778715  1
  Zn  Zn134  1  0.30904457  0.56484896  0.56367154  1
  Zn  Zn135  1  0.81451516  0.06097160  0.06883908  1
  Zn  Zn136  1  0.81568568  0.06112297  0.55891617  1
  Zn  Zn137  1  0.81087818  0.56014334  0.06457643  1
  Zn  Zn138  1  0.81842425  0.56425593  0.55656430  1
  Zn  Zn139  1  0.43775640  0.43768363  0.18686780  1
  Zn  Zn140  1  0.44212970  0.43531237  0.68590109  1
  Zn  Zn141  1  0.43298830  0.93290028  0.18832663  1
  Zn  Zn142  1  0.42652784  0.93402822  0.69394092  1
  Zn  Zn143  1  0.93907239  0.43450944  0.18735703  1
  Zn  Zn144  1  0.93967460  0.43915444  0.68580226  1
  Zn  Zn145  1  0.94101449  0.93032092  0.18707001  1
  Zn  Zn146  1  0.93735396  0.93691572  0.68375656  1
  Zn  Zn147  1  0.06513840  0.06103342  0.31484427  1
  Zn  Zn148  1  0.06762340  0.06279008  0.81295337  1
  Zn  Zn149  1  0.06294705  0.56494053  0.31117648  1
  Zn  Zn150  1  0.06111568  0.56213127  0.81153199  1
  Zn  Zn151  1  0.55956909  0.06529737  0.31373692  1
  Zn  Zn152  1  0.55044536  0.05531653  0.90494180  1
  Zn  Zn153  1  0.56142814  0.56482701  0.31029113  1
  Zn  Zn154  1  0.55683413  0.54988212  0.80509736  1
  Zn  Zn155  1  0.43738143  0.18942473  0.43869846  1
  Zn  Zn156  1  0.44543306  0.19398543  0.93856262  1
  Zn  Zn157  1  0.43293095  0.68965516  0.43346157  1
  Zn  Zn158  1  0.42891521  0.68324717  0.94163217  1
  Zn  Zn159  1  0.93730292  0.18245202  0.43665564  1
  Zn  Zn160  1  0.94009050  0.18643355  0.93971029  1
  Zn  Zn161  1  0.93451379  0.68570171  0.43756976  1
  Zn  Zn162  1  0.93835157  0.68506425  0.93791840  1
  Zn  Zn163  1  0.06396835  0.31299860  0.06263672  1
  Zn  Zn164  1  0.06150501  0.31086950  0.56059360  1
  Zn  Zn165  1  0.05978014  0.80856675  0.06391871  1
  Zn  Zn166  1  0.06082097  0.81064375  0.55706755  1
  Zn  Zn167  1  0.55754263  0.30887359  0.06067266  1
  Zn  Zn168  1  0.56602463  0.31604470  0.55867588  1
  Zn  Zn169  1  0.56070727  0.94729892  0.06094928  1
  Zn  Zn170  1  0.56041711  0.81618218  0.56212042  1
  O  O171  1  0.11736972  0.11678924  0.12061136  1
  O  O172  1  0.11728811  0.12896967  0.61341446  1
  O  O173  1  0.12303318  0.61584400  0.12025754  1
  O  O174  1  0.10853063  0.62757925  0.63330868  1
  O  O175  1  0.62308790  0.13002284  0.11666120  1
  O  O176  1  0.62214602  0.11739108  0.62750832  1
  O  O177  1  0.61477497  0.62737112  0.11586543  1
  O  O178  1  0.61813854  0.61973975  0.62543036  1
  O  O179  1  0.38367613  0.36658380  0.39002647  1
  O  O180  1  0.37430640  0.39067063  0.87708347  1
  O  O181  1  0.37544336  0.88086444  0.38478482  1
  O  O182  1  0.36276799  0.87702834  0.87823246  1
  O  O183  1  0.88250042  0.38116407  0.37366156  1
  O  O184  1  0.87967668  0.38094506  0.87514497  1
  O  O185  1  0.86751401  0.88145013  0.38602766  1
  O  O186  1  0.88080922  0.88052552  0.88308736  1
  O  O187  1  0.25566970  0.00345832  0.36420092  1
  O  O188  1  0.25703155  0.00866586  0.86961385  1
  O  O189  1  0.25089195  0.51212435  0.38228428  1
  O  O190  1  0.26209335  0.50334186  0.86761127  1
  O  O191  1  0.75447271  0.00220695  0.36339782  1
  O  O192  1  0.76433552  0.00094048  0.86504625  1
  O  O193  1  0.75715522  0.50513228  0.37211762  1
  O  O194  1  0.75706543  0.51007266  0.86219508  1
  O  O195  1  0.23701499  0.49083525  0.12005047  1
  O  O196  1  0.24327687  0.50763271  0.63118355  1
  O  O197  1  0.24235775  1.00597785  0.13724834  1
  O  O198  1  0.25571136  0.99021156  0.63264935  1
  O  O199  1  0.74563411  0.48927812  0.12966113  1
  O  O200  1  0.74879920  0.49618795  0.62464312  1
  O  O201  1  0.75418446  0.99347941  0.14001817  1
  O  O202  1  0.76034776  0.98611884  0.63073423  1
  O  O203  1  0.01185817  0.36622559  0.25402833  1
  O  O204  1  0.00624974  0.36924504  0.75500322  1
  O  O205  1  0.01313087  0.86578380  0.25008942  1
  O  O206  1  0.00001759  0.87962340  0.76219475  1
  O  O207  1  0.50444912  0.36850572  0.25600228  1
  O  O208  1  0.50824751  0.39517606  0.76529788  1
  O  O209  1  0.49093369  0.85610504  0.25352241  1
  O  O210  1  0.51085780  0.86671962  0.74160994  1
  O  O211  1  0.48971209  0.13142572  0.24824803  1
  O  O212  1  0.50754375  0.10698312  0.74701175  1
  O  O213  1  0.48761780  0.63182567  0.24719345  1
  O  O214  1  0.49628220  0.63137305  0.74031940  1
  O  O215  1  1.00917963  0.13248625  0.24168487  1
  O  O216  1  1.00263941  0.12871540  0.74147227  1
  O  O217  1  1.00049598  0.64036231  0.24943688  1
  O  O218  1  0.98538843  0.61930064  0.74295938  1
  O  O219  1  0.36943227  0.24761034  0.01194030  1
  O  O220  1  0.37050441  0.25396242  0.51090041  1
  O  O221  1  0.36211630  0.74089292  0.01698677  1
  O  O222  1  0.37088750  0.76092020  0.50311787  1
  O  O223  1  0.88496910  0.25444100  0.01428857  1
  O  O224  1  0.86991208  0.24931631  0.50571103  1
  O  O225  1  0.86930321  0.75744773  -0.00002391  1
  O  O226  1  0.87192822  0.75880034  0.50550783  1
  O  O227  1  0.13266814  0.24396272  0.49708397  1
  O  O228  1  0.13318070  0.24498534  0.99530239  1
  O  O229  1  0.13994200  0.75127973  0.49814412  1
  O  O230  1  0.12831440  0.74200088  0.99549210  1
  O  O231  1  0.63395049  0.24614684  0.49359745  1
  O  O232  1  0.63561379  0.24010367  1.00158244  1
  O  O233  1  0.62257400  0.75057616  0.48700909  1
  O  O234  1  0.63310351  0.74184643  0.98509052  1
  O  O235  1  0.48898371  0.24945657  0.13118353  1
  O  O236  1  0.49438616  0.24977927  0.62160544  1
  O  O237  1  0.48549864  0.73825607  0.13819595  1
  O  O238  1  0.49596425  0.74489503  0.63140799  1
  O  O239  1  0.99964588  0.24226853  0.13188320  1
  O  O240  1  0.99595028  0.23917990  0.62744063  1
  O  O241  1  0.99645412  0.74964569  0.13643385  1
  O  O242  1  0.98817971  0.74457737  0.61947491  1
  O  O243  1  0.00523864  0.25193136  0.36887645  1
  O  O244  1  0.00689874  0.25334453  0.86921405  1
  O  O245  1  -0.00302752  0.74893570  0.36319422  1
  O  O246  1  0.00825240  0.75846663  0.88121832  1
  O  O247  1  0.50566607  0.25754045  0.36996894  1
  O  O248  1  0.52310106  0.25321821  0.87829963  1
  O  O249  1  0.50792713  0.74848257  0.36563872  1
  O  O250  1  0.50066452  0.74923353  0.87088570  1
  O  O251  1  0.24332394  0.12921014  0.50072855  1
  O  O252  1  0.24791127  0.13571835  0.99413116  1
  O  O253  1  0.25928251  0.63802719  0.48632837  1
  O  O254  1  0.23489192  0.62974429  0.99939253  1
  O  O255  1  0.74722796  0.12828592  0.49238163  1
  O  O256  1  0.74095032  0.11908657  1.00353091  1
  O  O257  1  0.75561422  0.62751359  0.48349884  1
  O  O258  1  0.74562565  0.63361360  0.99229525  1
  O  O259  1  0.24292137  0.36351050  0.00835927  1
  O  O260  1  0.26440644  0.36638028  0.49726298  1
  O  O261  1  0.23915463  0.86274848  0.00342066  1
  O  O262  1  0.25572529  0.86766555  0.50264956  1
  O  O263  1  0.74564274  0.37651987  0.01578925  1
  O  O264  1  0.75376613  0.36805800  0.50776878  1
  O  O265  1  0.75886566  0.86937650  0.00231583  1
  O  O266  1  0.75667535  0.87349036  0.50690754  1
  O  O267  1  0.11844038  0.48922073  0.24023340  1
  O  O268  1  0.12263428  0.48512438  0.75116203  1
  O  O269  1  0.12961293  0.99021904  0.24561192  1
  O  O270  1  0.13987680  0.99468008  0.75632400  1
  O  O271  1  0.62395783  0.48608234  0.24944728  1
  O  O272  1  0.64093178  0.50426299  0.73721675  1
  O  O273  1  0.63276509  0.99703533  0.25353079  1
  O  O274  1  0.63032874  0.99219355  0.74329485  1
  O  O275  1  0.36566332  0.00516177  0.25439905  1
  O  O276  1  0.36096293  0.00157868  0.76136540  1
  O  O277  1  0.37568553  0.51369565  0.24863963  1
  O  O278  1  0.37724096  0.51326726  0.74691508  1
  O  O279  1  0.87660498  -0.00799483  0.26147452  1
  O  O280  1  0.86961874  -0.00223549  0.75723250  1
  O  O281  1  0.87757563  0.49931236  0.26147532  1
  O  O282  1  0.86532452  0.50848642  0.74956467  1
  O  O283  1  0.12169715  0.36943339  0.36831678  1
  O  O284  1  0.11972813  0.36894589  0.86712414  1
  O  O285  1  0.12373510  0.87801538  0.36518525  1
  O  O286  1  0.11565060  0.86687164  0.87431665  1
  O  O287  1  0.62024761  0.36686508  0.36957902  1
  O  O288  1  0.64676120  0.35415326  0.85964462  1
  O  O289  1  0.62379051  0.85682149  0.37280228  1
  O  O290  1  0.62697774  0.86929596  0.86814084  1
  O  O291  1  0.37336509  0.13383759  0.13382848  1
  O  O292  1  0.37690382  0.14066371  0.62849962  1
  O  O293  1  0.37693528  0.62869985  0.13699473  1
  O  O294  1  0.38335269  0.63251693  0.63088315  1
  O  O295  1  0.89151732  0.13083622  0.12107429  1
  O  O296  1  0.88442523  0.13077696  0.62531345  1
  O  O297  1  0.87757508  0.62658187  0.12897042  1
  O  O298  1  0.87972719  0.63363398  0.63086923  1
  O  O299  1  0.25464754  0.25596762  0.11822020  1
  O  O300  1  0.25217926  0.24838000  0.61443263  1
  O  O301  1  0.25779261  0.74193156  0.12133947  1
  O  O302  1  0.25605774  0.75508941  0.61255400  1
  O  O303  1  0.76568390  0.25547579  0.13639713  1
  O  O304  1  0.75745253  0.25757424  0.62005376  1
  O  O305  1  0.75126177  0.75715038  0.11278768  1
  O  O306  1  0.75952265  0.75969619  0.62314589  1
  O  O307  1  0.24381135  0.24704170  0.38702595  1
  O  O308  1  0.24970510  0.24697792  0.88145583  1
  O  O309  1  0.25373772  0.74684607  0.38555953  1
  O  O310  1  0.24004868  0.74665649  0.88578845  1
  O  O311  1  0.74944272  0.24023456  0.37585384  1
  O  O312  1  0.74052831  0.23833448  0.86438780  1
  O  O313  1  0.73603007  0.74398341  0.37414480  1
  O  O314  1  0.75732781  0.74191403  0.88506120  1
  O  O315  1  0.00973815  0.11730697  0.00616976  1
  O  O316  1  0.00690364  0.11683392  0.50625951  1
  O  O317  1  0.00890507  0.61333960  0.00101228  1
  O  O318  1  -0.00644557  0.61696766  0.50923169  1
  O  O319  1  0.51902837  0.12756705  -0.00191881  1
  O  O320  1  0.50091377  0.11072604  0.49611361  1
  O  O321  1  0.50769748  0.63461232  0.01009314  1
  O  O322  1  0.49192408  0.62556063  0.51035043  1
  O  O323  1  0.49078272  0.37652282  0.49248448  1
  O  O324  1  0.53742570  0.38743899  0.98573029  1
  O  O325  1  0.49061452  0.88496532  0.49963297  1
  O  O326  1  0.51740937  0.85983345  0.99056526  1
  O  O327  1  0.99908249  0.38055124  0.49096045  1
  O  O328  1  1.00321852  0.38565616  0.99321736  1
  O  O329  1  0.99172811  0.88622966  0.50458019  1
  O  O330  1  0.99413983  0.88037945  0.99212959  1
  O  O331  1  0.50542233  0.48557984  0.37506826  1
  O  O332  1  0.48092871  0.50919366  0.87948832  1
  O  O333  1  0.49277445  0.99694154  0.38143636  1
  O  O334  1  0.47629389  0.98675309  0.86326475  1
  O  O335  1  0.99483691  0.49712121  0.37921390  1
  O  O336  1  0.99319559  0.49536281  0.88119868  1
  O  O337  1  0.99095878  1.00657836  0.38445068  1
  O  O338  1  0.99456221  0.99437220  0.87940128  1
  O  O339  1  0.00682898  0.00489314  0.12095501  1
  O  O340  1  -0.00498928  0.01094616  0.61561267  1
  O  O341  1  0.01064032  0.49679932  0.11670227  1
  O  O342  1  -0.00026772  0.50937658  0.61522818  1
  O  O343  1  0.48898669  0.00071039  0.12422681  1
  O  O344  1  0.50020126  -0.00115460  0.62373429  1
  O  O345  1  0.50177800  0.51358929  0.12904313  1
  O  O346  1  0.51164105  0.51012694  0.62114535  1
  O  O347  1  0.23854363  0.36820071  0.24387960  1
  O  O348  1  0.23477532  0.37335345  0.75255357  1
  O  O349  1  0.23610437  0.88139417  0.25310355  1
  O  O350  1  0.24897231  0.87941866  0.73830307  1
  O  O351  1  0.74153316  0.37566977  0.24348385  1
  O  O352  1  0.75385093  0.38511206  0.73436123  1
  O  O353  1  0.75117640  0.88612143  0.24069428  1
  O  O354  1  0.74069330  0.88271379  0.74575861  1
  O  O355  1  0.25690366  0.11840834  0.25217615  1
  O  O356  1  0.25102655  0.11841724  0.75840008  1
  O  O357  1  0.26001025  0.62749222  0.26254406  1
  O  O358  1  0.26296718  0.63054676  0.75287927  1
  O  O359  1  0.74852753  0.10837506  0.25641164  1
  O  O360  1  0.75495346  0.10802496  0.74558767  1
  O  O361  1  0.75070915  0.62396853  0.25990426  1
  O  O362  1  0.75798981  0.62244763  0.75433352  1
  O  O363  1  0.37426080  0.12147501  0.36408779  1
  O  O364  1  0.36783040  0.13288890  0.87089574  1
  O  O365  1  0.36793108  0.62700571  0.36276127  1
  O  O366  1  0.37133625  0.61768402  0.86710741  1
  O  O367  1  0.86209461  0.11417302  0.37896584  1
  O  O368  1  0.87704970  0.11430798  0.87374732  1
  O  O369  1  0.86748081  0.61716472  0.36967923  1
  O  O370  1  0.86901403  0.62093630  0.86714802  1
  O  O371  1  0.13389732  0.37860725  0.13193666  1
  O  O372  1  0.11678123  0.37585873  0.63869746  1
  O  O373  1  0.12035134  0.88599882  0.13050348  1
  O  O374  1  0.13620700  0.86953104  0.62407415  1
  O  O375  1  0.63170201  0.37114949  0.13553343  1
  O  O376  1  0.63577641  0.38375596  0.62460613  1
  O  O377  1  0.63821377  0.87688188  0.11430038  1
  O  O378  1  0.63578263  0.86890946  0.63313094  1
  O  O379  1  0.11793806  0.25509303  0.25490664  1
  O  O380  1  0.12062116  0.25897923  0.75362620  1
  O  O381  1  0.11728760  0.76225465  0.24934390  1
  O  O382  1  0.13044584  0.75207645  0.76316748  1
  O  O383  1  0.62040136  0.25799742  0.25628519  1
  O  O384  1  0.62316430  0.24701066  0.75185231  1
  O  O385  1  0.60766177  0.74424545  0.25322854  1
  O  O386  1  0.61378565  0.75527006  0.74879739  1
  O  O387  1  0.37506685  0.24278751  0.24251127  1
  O  O388  1  0.37614924  0.25048424  0.73410038  1
  O  O389  1  0.37764798  0.74074722  0.24298752  1
  O  O390  1  0.38636611  0.74305743  0.74589818  1
  O  O391  1  0.89200842  0.25358997  0.24126529  1
  O  O392  1  0.88283240  0.24820115  0.74149115  1
  O  O393  1  0.88682307  0.75488384  0.24977968  1
  O  O394  1  0.87052083  0.74327563  0.74043408  1
  O  O395  1  0.37762889  0.48522101  0.50671686  1
  O  O396  1  0.36806833  0.50598326  0.99225893  1
  O  O397  1  0.37925915  0.99373307  0.49637592  1
  O  O398  1  0.36844143  1.00120830  0.98158269  1
  O  O399  1  0.88507606  0.49722668  0.48656061  1
  O  O400  1  0.88317406  0.49672889  0.99424592  1
  O  O401  1  0.88240469  0.99252886  0.49045613  1
  O  O402  1  0.88054062  0.99324066  0.99313514  1
  O  O403  1  0.12390091  0.00395266  0.00709360  1
  O  O404  1  0.11640224  0.00734945  0.49519178  1
  O  O405  1  0.11928314  0.50567246  0.00381369  1
  O  O406  1  0.11133299  0.49488203  0.49994321  1
  O  O407  1  0.62320789  0.01187887  -0.01221434  1
  O  O408  1  0.61405201  -0.00152919  0.49607483  1
  O  O409  1  0.63507920  0.51909663  0.00154556  1
  O  O410  1  0.62440383  0.49723564  0.50847897  1
  O  O411  1  0.36169373  0.36844973  0.13239238  1
  O  O412  1  0.38227177  0.36326632  0.61288547  1
  O  O413  1  0.36864389  0.85538551  0.13078869  1
  O  O414  1  0.36527852  0.86967364  0.61550983  1
  O  O415  1  0.86826979  0.36702426  0.12329724  1
  O  O416  1  0.87055830  0.36870586  0.62096292  1
  O  O417  1  0.87004651  0.87584873  0.11155864  1
  O  O418  1  0.87030131  0.86833285  0.61672312  1
  O  O419  1  0.12557317  0.13071395  0.38818725  1
  O  O420  1  0.13750523  0.13188661  0.88056150  1
  O  O421  1  0.14240438  0.62343738  0.36941619  1
  O  O422  1  0.12299028  0.63122104  0.88195955  1
  O  O423  1  0.63618996  0.13068775  0.37540899  1
  O  O424  1  0.63238760  0.13616450  0.88473190  1
  O  O425  1  0.62964911  0.63646395  0.37082195  1
  O  O426  1  0.63517626  0.61905518  0.87438071  1
