# generated using pymatgen
data_V85Zn86O256
_symmetry_space_group_name_H-M   'P 1'
_cell_length_a   16.96826063
_cell_length_b   16.95243440
_cell_length_c   16.94605253
_cell_angle_alpha   90.04050211
_cell_angle_beta   89.98625401
_cell_angle_gamma   89.98805731
_symmetry_Int_Tables_number   1
_chemical_formula_structural   V85Zn86O256
_chemical_formula_sum   'V85 Zn86 O256'
_cell_volume   4874.58689193
_cell_formula_units_Z   1
loop_
 _symmetry_equiv_pos_site_id
 _symmetry_equiv_pos_as_xyz
  1  'x, y, z'
loop_
 _atom_site_type_symbol
 _atom_site_label
 _atom_site_symmetry_multiplicity
 _atom_site_fract_x
 _atom_site_fract_y
 _atom_site_fract_z
 _atom_site_occupancy
  V  V0  1  0.00210794  0.87566664  0.87395998  1
  V  V1  1  0.61820231  0.13103478  0.50072629  1
  V  V2  1  0.13624307  0.00288221  0.12331567  1
  V  V3  1  0.74800809  0.49594226  0.24505253  1
  V  V4  1  0.13098474  0.87786291  0.74089353  1
  V  V5  1  0.49602168  0.87656825  0.37712279  1
  V  V6  1  0.49309122  0.12720358  0.12668288  1
  V  V7  1  0.62366897  0.49721284  0.12601362  1
  V  V8  1  0.12689522  0.75155345  0.87563362  1
  V  V9  1  0.50502352  0.24564366  0.74626244  1
  V  V10  1  0.37768210  0.01132093  0.36279872  1
  V  V11  1  0.25395112  0.49255717  0.24960995  1
  V  V12  1  0.36994321  0.87731792  0.50581457  1
  V  V13  1  0.11775315  0.62343106  0.50229266  1
  V  V14  1  0.26164542  0.74908026  0.00482847  1
  V  V15  1  0.36424665  0.74899514  0.63143193  1
  V  V16  1  0.74846082  0.87643151  0.63322821  1
  V  V17  1  0.24509941  0.23983653  0.50197146  1
  V  V18  1  0.75094883  0.12524424  0.87644978  1
  V  V19  1  0.37776670  0.12191706  0.74843024  1
  V  V20  1  0.19900988  0.31797436  0.06694016  1
  V  V21  1  0.24843959  0.37300662  0.62408374  1
  V  V22  1  0.00461033  0.24705155  0.75256566  1
  V  V23  1  0.62702441  0.73767954  0.87039804  1
  V  V24  1  0.87615784  0.00093607  0.87406296  1
  V  V25  1  -0.00155837  0.12219754  0.12327253  1
  V  V26  1  0.24992262  0.62433209  0.37582937  1
  V  V27  1  0.74743311  0.74915382  0.50185402  1
  V  V28  1  0.75299899  0.26058226  0.00183942  1
  V  V29  1  0.61302018  0.61354701  0.51004882  1
  V  V30  1  0.74897755  0.74484186  -0.00363079  1
  V  V31  1  0.12541298  0.37203893  0.25700009  1
  V  V32  1  0.49902352  0.50163376  0.00051464  1
  V  V33  1  0.37488264  0.50252947  0.87222913  1
  V  V34  1  -0.00606581  0.49796526  0.50599112  1
  V  V35  1  0.74859680  0.87660468  0.12514366  1
  V  V36  1  0.12432143  0.62625998  0.00148610  1
  V  V37  1  0.87529752  0.74202348  0.62302583  1
  V  V38  1  0.12455646  0.88033785  0.24672017  1
  V  V39  1  0.37944997  0.38242108  0.50225290  1
  V  V40  1  0.12107019  0.50171566  0.62523591  1
  V  V41  1  -0.00085623  0.75272125  0.25283900  1
  V  V42  1  0.87019659  0.88580159  0.49149166  1
  V  V43  1  0.12050482  0.74901341  0.37491141  1
  V  V44  1  0.12582668  0.37091395  0.75810514  1
  V  V45  1  -0.01625090  0.37848605  0.87414737  1
  V  V46  1  -0.00223742  0.37277815  0.37771336  1
  V  V47  1  0.24707993  0.14025389  0.87787639  1
  V  V48  1  0.74972391  0.13377239  0.37890171  1
  V  V49  1  -0.00030897  0.74424875  0.74662883  1
  V  V50  1  0.00654263  0.11819222  0.61240368  1
  V  V51  1  0.87398886  0.62303578  0.76421366  1
  V  V52  1  0.87343170  0.25207959  0.61695041  1
  V  V53  1  0.87539710  0.87633059  0.00089407  1
  V  V54  1  0.87592679  0.12216483  0.74717279  1
  V  V55  1  0.62854336  0.36570823  0.25140718  1
  V  V56  1  0.00373707  0.00137155  -0.00093938  1
  V  V57  1  0.25830274  0.87304451  0.12861441  1
  V  V58  1  0.25131037  0.50528076  0.74768673  1
  V  V59  1  0.50080810  0.37316359  0.87386415  1
  V  V60  1  0.87380014  0.62616742  0.25001646  1
  V  V61  1  0.75057718  -0.00169825  0.26161239  1
  V  V62  1  0.75438877  0.38587244  0.61878636  1
  V  V63  1  0.62739559  0.37990153  0.74489750  1
  V  V64  1  0.61724350  0.00023565  0.62886860  1
  V  V65  1  0.87377314  0.49362602  0.37681349  1
  V  V66  1  0.12582036  0.50053235  0.12353472  1
  V  V67  1  0.49303743  0.24732485  0.25589752  1
  V  V68  1  0.50646538  0.37892110  0.38057917  1
  V  V69  1  0.62540243  0.12491844  0.00146830  1
  V  V70  1  0.75527076  0.50296049  0.77128045  1
  V  V71  1  0.37105695  -0.00419370  0.87725810  1
  V  V72  1  0.87585988  0.11749348  0.25587571  1
  V  V73  1  0.37610663  0.36791867  0.00560218  1
  V  V74  1  0.61873603  0.74771871  0.37658616  1
  V  V75  1  0.37945072  0.24332974  0.62368798  1
  V  V76  1  0.04453518  0.93125986  0.43030496  1
  V  V77  1  0.37548528  0.63016706  0.24279639  1
  V  V78  1  0.50805132  0.75223750  0.74129603  1
  V  V79  1  0.86807091  0.25249725  0.12576383  1
  V  V80  1  0.74528335  0.62357407  0.37664751  1
  V  V81  1  0.25217605  0.62580955  0.87275592  1
  V  V82  1  0.62476687  0.87446629  0.25252216  1
  V  V83  1  0.51129986  0.87694503  0.87401872  1
  V  V84  1  0.24902057  0.12709671  0.36081908  1
  Zn  Zn85  1  0.38028730  0.50331237  0.38087559  1
  Zn  Zn86  1  0.74808360  0.25648305  0.49758254  1
  Zn  Zn87  1  -0.00299376  0.25038202  0.25302835  1
  Zn  Zn88  1  0.12873588  0.13724648  -0.00398947  1
  Zn  Zn89  1  0.25200491  -0.00204778  0.73998525  1
  Zn  Zn90  1  0.48739899  0.60790777  0.62672067  1
  Zn  Zn91  1  0.50002571  -0.00045688  0.00224029  1
  Zn  Zn92  1  0.49472037  0.00743751  0.50406979  1
  Zn  Zn93  1  0.49122885  0.75532706  0.24267925  1
  Zn  Zn94  1  -0.00209733  0.62486896  0.12390841  1
  Zn  Zn95  1  0.49822019  0.63347409  0.11911682  1
  Zn  Zn96  1  0.11849162  0.24397970  0.38412683  1
  Zn  Zn97  1  0.38181629  0.87185675  0.00427132  1
  Zn  Zn98  1  0.37149639  0.25191794  0.12709350  1
  Zn  Zn99  1  0.62839924  0.62052688  -0.00432643  1
  Zn  Zn100  1  0.74443181  -0.00143542  0.75160024  1
  Zn  Zn101  1  0.87498056  0.75223762  0.12650326  1
  Zn  Zn102  1  0.62726773  0.24909708  0.87400464  1
  Zn  Zn103  1  0.24601483  0.75196605  0.50340728  1
  Zn  Zn104  1  -0.01758512  0.50676339  -0.01684498  1
  Zn  Zn105  1  0.62369222  0.00264049  0.12789740  1
  Zn  Zn106  1  0.12614772  -0.00075717  0.60942481  1
  Zn  Zn107  1  0.18217958  0.18370349  0.19331066  1
  Zn  Zn108  1  0.18886485  0.18269293  0.68833690  1
  Zn  Zn109  1  0.18991751  0.68869962  0.18851773  1
  Zn  Zn110  1  0.18511840  0.68642428  0.68612200  1
  Zn  Zn111  1  0.68612152  0.18440590  0.18810111  1
  Zn  Zn112  1  0.68918342  0.18588337  0.68307297  1
  Zn  Zn113  1  0.68255255  0.68698120  0.18516003  1
  Zn  Zn114  1  0.68893313  0.68282362  0.68903564  1
  Zn  Zn115  1  0.31559947  0.31317336  0.31819394  1
  Zn  Zn116  1  0.31590170  0.31546024  0.81063369  1
  Zn  Zn117  1  0.30919231  0.81303472  0.31499762  1
  Zn  Zn118  1  0.31478877  0.81402766  0.81384186  1
  Zn  Zn119  1  0.81341620  0.31134517  0.30855748  1
  Zn  Zn120  1  0.81085165  0.30692859  0.80624910  1
  Zn  Zn121  1  0.80977090  0.81049831  0.31541371  1
  Zn  Zn122  1  0.81315900  0.81131737  0.81348661  1
  Zn  Zn123  1  0.18910178  0.43631012  0.43883864  1
  Zn  Zn124  1  0.18143068  0.44256469  0.93239496  1
  Zn  Zn125  1  0.20706777  0.94292749  0.43382166  1
  Zn  Zn126  1  0.19096015  0.93731382  0.93747356  1
  Zn  Zn127  1  0.68518653  0.43812600  0.43620909  1
  Zn  Zn128  1  0.68497292  0.43546216  0.93549580  1
  Zn  Zn129  1  0.68490175  0.94050407  0.44301135  1
  Zn  Zn130  1  0.68735806  0.93838424  0.93802165  1
  Zn  Zn131  1  0.31417706  0.06506771  0.05782817  1
  Zn  Zn132  1  0.30982315  0.05973585  0.56254583  1
  Zn  Zn133  1  0.30993636  0.55665646  0.06356485  1
  Zn  Zn134  1  0.30853904  0.56678614  0.56327249  1
  Zn  Zn135  1  0.81057827  0.06210095  0.06478849  1
  Zn  Zn136  1  0.80966520  0.06288903  0.56365731  1
  Zn  Zn137  1  0.80985099  0.56452457  0.06145555  1
  Zn  Zn138  1  0.81044094  0.56447323  0.56264824  1
  Zn  Zn139  1  0.43865862  0.43632912  0.18836957  1
  Zn  Zn140  1  0.43646331  0.43299177  0.68712903  1
  Zn  Zn141  1  0.44078650  0.93996847  0.18781166  1
  Zn  Zn142  1  0.43810425  0.93295227  0.68969729  1
  Zn  Zn143  1  0.91571000  0.45761096  0.15205358  1
  Zn  Zn144  1  0.93394639  0.43743710  0.69016347  1
  Zn  Zn145  1  0.93879091  0.93803049  0.18993789  1
  Zn  Zn146  1  0.93882438  0.93467086  0.68243234  1
  Zn  Zn147  1  0.06738103  0.06588673  0.30722603  1
  Zn  Zn148  1  0.06521782  0.06393886  0.81167304  1
  Zn  Zn149  1  0.06036630  0.55938579  0.31159098  1
  Zn  Zn150  1  0.06231732  0.56241229  0.81144309  1
  Zn  Zn151  1  0.56490549  0.06516981  0.31583029  1
  Zn  Zn152  1  0.56137920  0.06220473  0.81343027  1
  Zn  Zn153  1  0.55991528  0.56040437  0.31335973  1
  Zn  Zn154  1  0.55040527  0.55392434  0.78493512  1
  Zn  Zn155  1  0.43822893  0.19274131  0.43733354  1
  Zn  Zn156  1  0.43769081  0.18579435  0.93522316  1
  Zn  Zn157  1  0.43557040  0.68874755  0.44151272  1
  Zn  Zn158  1  0.44152306  0.68561183  0.92962760  1
  Zn  Zn159  1  0.93320572  0.18477494  0.43687024  1
  Zn  Zn160  1  0.93821483  0.19106740  0.93709681  1
  Zn  Zn161  1  0.93603029  0.68665014  0.43583131  1
  Zn  Zn162  1  0.93928113  0.69178338  0.93946918  1
  Zn  Zn163  1  0.03493304  0.31623764  0.06365752  1
  Zn  Zn164  1  0.06105499  0.31312913  0.56524305  1
  Zn  Zn165  1  0.06434375  0.81151932  0.06561595  1
  Zn  Zn166  1  0.05956234  0.80532593  0.56630079  1
  Zn  Zn167  1  0.56442185  0.31173965  0.06612123  1
  Zn  Zn168  1  0.56542662  0.31416289  0.56555301  1
  Zn  Zn169  1  0.56349853  0.81030153  0.06103780  1
  Zn  Zn170  1  0.56146258  0.81610225  0.56121963  1
  O  O171  1  0.11850702  0.11886852  0.12232841  1
  O  O172  1  0.10956386  0.12522182  0.62694084  1
  O  O173  1  0.12762574  0.61978113  0.11562971  1
  O  O174  1  0.12696545  0.61708947  0.61373274  1
  O  O175  1  0.61544214  0.12538189  0.11796483  1
  O  O176  1  0.63231085  0.11174628  0.61265306  1
  O  O177  1  0.62120686  0.61064299  0.12356152  1
  O  O178  1  0.62224701  0.63098005  0.61106476  1
  O  O179  1  0.38336933  0.37697360  0.38750625  1
  O  O180  1  0.37857507  0.38464987  0.88167671  1
  O  O181  1  0.37952255  0.88482875  0.37835327  1
  O  O182  1  0.38333333  0.88180522  0.87743934  1
  O  O183  1  0.88060830  0.38643077  0.36899649  1
  O  O184  1  0.88555115  0.37260036  0.86600026  1
  O  O185  1  0.86895646  0.87141877  0.39204915  1
  O  O186  1  0.88219732  0.88139403  0.87955290  1
  O  O187  1  0.26359026  0.01740674  0.37336175  1
  O  O188  1  0.26225920  0.00122231  0.86935192  1
  O  O189  1  0.25047066  0.50999485  0.36899471  1
  O  O190  1  0.25472216  0.50482878  0.86797845  1
  O  O191  1  0.74650938  0.00509362  0.36563920  1
  O  O192  1  0.75774387  0.00569360  0.87237502  1
  O  O193  1  0.75609951  0.50407143  0.36745573  1
  O  O194  1  0.75883181  0.49616005  0.86996940  1
  O  O195  1  0.23781076  0.50078501  0.13638718  1
  O  O196  1  0.24484007  0.49569462  0.63221159  1
  O  O197  1  0.24113974  0.99510526  0.11844437  1
  O  O198  1  0.23741910  1.00708307  0.62706676  1
  O  O199  1  0.74055173  0.50424879  0.13871719  1
  O  O200  1  0.75663436  0.48723795  0.63085488  1
  O  O201  1  0.74745185  0.99292183  0.13634391  1
  O  O202  1  0.74217741  0.99222560  0.62710450  1
  O  O203  1  0.00997814  0.37491020  0.26586667  1
  O  O204  1  0.00559129  0.36823450  0.75490946  1
  O  O205  1  0.01231521  0.86737388  0.24464668  1
  O  O206  1  0.00497766  0.86454940  0.75483266  1
  O  O207  1  0.50731827  0.36613847  0.25661965  1
  O  O208  1  0.51003419  0.36487451  0.75476129  1
  O  O209  1  0.50563440  0.87544519  0.26127274  1
  O  O210  1  0.49724694  0.86271247  0.76049745  1
  O  O211  1  0.50918013  0.14058370  0.24529556  1
  O  O212  1  0.48671710  0.13212361  0.75636125  1
  O  O213  1  0.48198588  0.62288720  0.25321344  1
  O  O214  1  0.49322963  0.65186181  0.75450505  1
  O  O215  1  0.99233579  0.12557765  0.24240312  1
  O  O216  1  0.99474756  0.13151228  0.74564891  1
  O  O217  1  0.99032752  0.63132641  0.25118110  1
  O  O218  1  0.99409797  0.63679703  0.75396435  1
  O  O219  1  0.37956009  0.26459448  -0.00104569  1
  O  O220  1  0.36949169  0.25734727  0.50841233  1
  O  O221  1  0.36426785  0.74833614  -0.00604247  1
  O  O222  1  0.37315854  0.75852000  0.51060838  1
  O  O223  1  0.86879061  0.24403909  0.01528183  1
  O  O224  1  0.87111256  0.24699335  0.51361691  1
  O  O225  1  0.86798157  0.75904568  0.00179207  1
  O  O226  1  0.86869725  0.75188744  0.50663527  1
  O  O227  1  0.14111047  0.25697730  0.50126963  1
  O  O228  1  0.13227478  0.26141916  1.01505677  1
  O  O229  1  0.12275878  0.74184282  0.49431069  1
  O  O230  1  0.13212132  0.74237872  0.99617816  1
  O  O231  1  0.62995182  0.23479451  0.51064917  1
  O  O232  1  0.63274154  0.24082172  1.00032531  1
  O  O233  1  0.62571241  0.74496785  0.49025844  1
  O  O234  1  0.63279699  0.74659607  0.98920408  1
  O  O235  1  0.49881039  0.24592468  0.13706872  1
  O  O236  1  0.49321966  0.25398949  0.63729693  1
  O  O237  1  0.50667493  0.74573757  0.13119433  1
  O  O238  1  0.49534317  0.75434956  0.63463127  1
  O  O239  1  0.98947965  0.23662980  0.12898362  1
  O  O240  1  0.99278131  0.24419549  0.63312159  1
  O  O241  1  0.99894189  0.74675006  0.13817116  1
  O  O242  1  0.98828745  0.75084901  0.63520752  1
  O  O243  1  -0.00036464  0.25663269  0.37519901  1
  O  O244  1  -0.00400366  0.25899745  0.86092466  1
  O  O245  1  0.00485895  0.74649483  0.36290552  1
  O  O246  1  0.00779271  0.75640171  0.86878561  1
  O  O247  1  0.49850955  0.25877882  0.36262770  1
  O  O248  1  0.50019987  0.25529033  0.86326886  1
  O  O249  1  0.50342867  0.75840736  0.37207080  1
  O  O250  1  0.50848082  0.75836168  0.86804661  1
  O  O251  1  0.25750407  0.13745306  0.49067523  1
  O  O252  1  0.24831802  0.12509276  0.98335810  1
  O  O253  1  0.23726825  0.62561328  0.49156321  1
  O  O254  1  0.24399576  0.62990038  0.99577054  1
  O  O255  1  0.74363986  0.12623736  0.49304854  1
  O  O256  1  0.74409881  0.12972110  0.99517668  1
  O  O257  1  0.73958207  0.63058076  0.49502211  1
  O  O258  1  0.74923147  0.64019237  1.00328491  1
  O  O259  1  0.25341372  0.37673777  0.00094254  1
  O  O260  1  0.25872808  0.36661452  0.50561654  1
  O  O261  1  0.25205763  0.86508745  0.00887710  1
  O  O262  1  0.26459010  0.86878384  0.49333893  1
  O  O263  1  0.74390720  0.35963722  -0.00154283  1
  O  O264  1  0.74354025  0.37560244  0.51466797  1
  O  O265  1  0.75445307  0.87048214  0.00836797  1
  O  O266  1  0.75697120  0.86954060  0.50734255  1
  O  O267  1  0.13354802  0.48868202  0.24791464  1
  O  O268  1  0.13221327  0.49380974  0.74449640  1
  O  O269  1  0.12207767  0.99222544  0.23693491  1
  O  O270  1  0.12269536  0.98265991  0.75253230  1
  O  O271  1  0.62972252  0.49305841  0.24563037  1
  O  O272  1  0.64628401  0.49097301  0.76044190  1
  O  O273  1  0.63277368  0.99243919  0.25150780  1
  O  O274  1  0.62620059  1.00842745  0.73385880  1
  O  O275  1  0.37842264  0.00031629  0.26475966  1
  O  O276  1  0.37480238  0.00703886  0.75415095  1
  O  O277  1  0.36674152  0.50608437  0.25359128  1
  O  O278  1  0.35770340  0.48908253  0.75899871  1
  O  O279  1  0.86690842  0.00959591  0.24537475  1
  O  O280  1  0.87732151  0.01027136  0.75225822  1
  O  O281  1  0.86641578  0.50689248  0.25165633  1
  O  O282  1  0.86499129  0.50934611  0.74779690  1
  O  O283  1  0.11904160  0.37260135  0.37038502  1
  O  O284  1  0.12057442  0.37663202  0.86061706  1
  O  O285  1  0.11882832  0.87650938  0.37157441  1
  O  O286  1  0.12005270  0.86919257  0.86826729  1
  O  O287  1  0.61846867  0.37650048  0.36652392  1
  O  O288  1  0.62000476  0.37029401  0.86322084  1
  O  O289  1  0.61603476  0.86895000  0.37560897  1
  O  O290  1  0.61477570  0.87157886  0.87695552  1
  O  O291  1  0.38867087  0.13067567  0.11792453  1
  O  O292  1  0.37288355  0.13569347  0.63222196  1
  O  O293  1  0.37313004  0.61900302  0.14000010  1
  O  O294  1  0.37533984  0.64330120  0.61849114  1
  O  O295  1  0.88247776  0.12719893  0.13147094  1
  O  O296  1  0.88274339  0.12953798  0.63095389  1
  O  O297  1  0.87322474  0.63198367  0.14096736  1
  O  O298  1  0.86665621  0.63835339  0.63353756  1
  O  O299  1  0.25112473  0.25231016  0.12599787  1
  O  O300  1  0.25732819  0.25125606  0.61770331  1
  O  O301  1  0.24512631  0.75977149  0.11631083  1
  O  O302  1  0.26039261  0.75048428  0.62500627  1
  O  O303  1  0.76129559  0.24034697  0.11859674  1
  O  O304  1  0.75911877  0.26053393  0.62744436  1
  O  O305  1  0.74866905  0.75978075  0.11792201  1
  O  O306  1  0.75298479  0.75701234  0.62058848  1
  O  O307  1  0.25277961  0.24003250  0.38409046  1
  O  O308  1  0.25498992  0.23884568  0.87157993  1
  O  O309  1  0.24063577  0.73838424  0.37603102  1
  O  O310  1  0.24555457  0.74517430  0.88133062  1
  O  O311  1  0.75359945  0.23846383  0.37686411  1
  O  O312  1  0.75238441  0.24152556  0.88316136  1
  O  O313  1  0.73987224  0.74312512  0.38195580  1
  O  O314  1  0.73900503  0.75979206  0.88364064  1
  O  O315  1  0.00715722  0.12301999  0.00554269  1
  O  O316  1  -0.00171122  0.12867998  0.51393941  1
  O  O317  1  0.00969396  0.62413402  0.00220682  1
  O  O318  1  0.01018563  0.61484916  0.49214962  1
  O  O319  1  0.50883993  0.12705698  0.00682112  1
  O  O320  1  0.51404102  0.12736673  0.49666932  1
  O  O321  1  0.50001751  0.61113451  -0.00233827  1
  O  O322  1  0.50787195  0.62424504  0.50632239  1
  O  O323  1  0.49392224  0.36734432  0.49350571  1
  O  O324  1  0.49516712  0.38320521  0.99447404  1
  O  O325  1  0.49050180  0.87671996  0.48833458  1
  O  O326  1  0.49976547  0.87765667  0.99070532  1
  O  O327  1  1.00462566  0.38331446  0.48810413  1
  O  O328  1  1.00158389  0.37754535  0.97742194  1
  O  O329  1  0.98889096  0.87166146  0.49660157  1
  O  O330  1  0.99555113  0.87915771  0.99587711  1
  O  O331  1  0.49692983  0.48387249  0.37145016  1
  O  O332  1  0.49163148  0.49382623  0.87702714  1
  O  O333  1  0.49072192  0.99655674  0.37768527  1
  O  O334  1  0.49167130  0.99261943  0.87449716  1
  O  O335  1  0.99177401  0.49389307  0.38233451  1
  O  O336  1  0.99968337  0.48550251  0.86920798  1
  O  O337  1  0.99834716  0.99661017  0.37255311  1
  O  O338  1  0.99592976  0.99636981  0.87995476  1
  O  O339  1  0.00634800  0.00915628  0.11989520  1
  O  O340  1  0.00365866  0.01387162  0.62637411  1
  O  O341  1  0.02181564  0.50504281  0.13955498  1
  O  O342  1  0.00050796  0.49310967  0.61230759  1
  O  O343  1  0.50361824  0.01080585  0.12442621  1
  O  O344  1  0.51342932  -0.00596899  0.62347301  1
  O  O345  1  0.50452850  0.50284504  0.11557965  1
  O  O346  1  0.51101302  0.51247770  0.67975063  1
  O  O347  1  0.24435340  0.38457147  0.26019256  1
  O  O348  1  0.24239806  0.37921123  0.74375588  1
  O  O349  1  0.23535684  0.86797960  0.24352821  1
  O  O350  1  0.23323152  0.87261104  0.75366643  1
  O  O351  1  0.74091365  0.38368209  0.25559794  1
  O  O352  1  0.74704180  0.38437561  0.74549852  1
  O  O353  1  0.74648317  0.88031690  0.24598523  1
  O  O354  1  0.75650242  0.87725455  0.73672900  1
  O  O355  1  0.25873330  0.13439378  0.26229188  1
  O  O356  1  0.26165824  0.12476356  0.75982851  1
  O  O357  1  0.25746385  0.61709084  0.25602999  1
  O  O358  1  0.24316886  0.61502676  0.75690744  1
  O  O359  1  0.75325858  0.11686551  0.25806851  1
  O  O360  1  0.76028271  0.12468908  0.75629909  1
  O  O361  1  0.75356170  0.61955327  0.25768421  1
  O  O362  1  0.75630147  0.61027993  0.75043322  1
  O  O363  1  0.37220498  0.11645160  0.37795927  1
  O  O364  1  0.36694649  0.11785791  0.86925361  1
  O  O365  1  0.36556766  0.62236908  0.37179388  1
  O  O366  1  0.36911506  0.61011149  0.87781269  1
  O  O367  1  0.86563116  0.12342189  0.36718013  1
  O  O368  1  0.87246568  0.12044919  0.86768070  1
  O  O369  1  0.86879592  0.61544309  0.36609279  1
  O  O370  1  0.87714865  0.63164804  0.86399682  1
  O  O371  1  0.12814658  0.37598801  0.12673797  1
  O  O372  1  0.13011846  0.38215461  0.63292640  1
  O  O373  1  0.13317970  0.88280504  0.13036802  1
  O  O374  1  0.11654990  0.87564004  0.63807007  1
  O  O375  1  0.61882419  0.38810973  0.13514107  1
  O  O376  1  0.63904135  0.37144937  0.63760112  1
  O  O377  1  0.63631378  0.87767903  0.13072150  1
  O  O378  1  0.63437492  0.88948447  0.61592818  1
  O  O379  1  0.12224642  0.26271289  0.25208345  1
  O  O380  1  0.11614375  0.25858497  0.74164421  1
  O  O381  1  0.11808196  0.75571928  0.25574341  1
  O  O382  1  0.11764744  0.75721331  0.75268608  1
  O  O383  1  0.61900739  0.26185965  0.24420479  1
  O  O384  1  0.61929946  0.25368464  0.74939992  1
  O  O385  1  0.62674745  0.75523257  0.26436138  1
  O  O386  1  0.61642462  0.75066901  0.75242265  1
  O  O387  1  0.39009191  0.25704346  0.24778352  1
  O  O388  1  0.38232764  0.24469505  0.74281263  1
  O  O389  1  0.37084101  0.73369277  0.25505445  1
  O  O390  1  0.38094404  0.75875375  0.73512562  1
  O  O391  1  0.87250027  0.23337412  0.24252439  1
  O  O392  1  0.88204761  0.23815027  0.74082715  1
  O  O393  1  0.88126480  0.74439237  0.25305985  1
  O  O394  1  0.88070957  0.74423997  0.74464941  1
  O  O395  1  0.37052204  0.48652975  0.50532597  1
  O  O396  1  0.38005644  0.49162758  0.99377652  1
  O  O397  1  0.37725973  0.99332699  0.49272304  1
  O  O398  1  0.37865959  0.99672522  0.99017387  1
  O  O399  1  0.88187500  0.50763069  0.48913639  1
  O  O400  1  0.89076341  0.49279423  1.04474370  1
  O  O401  1  0.87185212  0.98443063  0.50498336  1
  O  O402  1  0.88196535  0.99557814  0.99584847  1
  O  O403  1  0.11900301  -0.00037779  0.00736769  1
  O  O404  1  0.11187005  -0.01672441  0.48833997  1
  O  O405  1  0.12350749  0.50899670  0.00768930  1
  O  O406  1  0.11712097  0.50486803  0.50456773  1
  O  O407  1  0.62515533  0.01395823  0.00212275  1
  O  O408  1  0.62073653  0.01022649  0.50949172  1
  O  O409  1  0.61755990  0.49887912  0.00615582  1
  O  O410  1  0.62619156  0.51572293  0.49804520  1
  O  O411  1  0.37603122  0.37457420  0.11394155  1
  O  O412  1  0.36960880  0.36377760  0.62258280  1
  O  O413  1  0.36171692  0.88148661  0.12705718  1
  O  O414  1  0.37956381  0.86463024  0.61595254  1
  O  O415  1  0.88093659  0.34948209  0.14245581  1
  O  O416  1  0.86246778  0.36666627  0.63128065  1
  O  O417  1  0.86426311  0.87490934  0.12208198  1
  O  O418  1  0.86812354  0.86467798  0.61688864  1
  O  O419  1  0.14254014  0.12742211  0.36897803  1
  O  O420  1  0.14195972  0.12347805  0.87375241  1
  O  O421  1  0.13060627  0.62686313  0.37952683  1
  O  O422  1  0.13024784  0.62936388  0.88404971  1
  O  O423  1  0.63387396  0.12050493  0.39141779  1
  O  O424  1  0.63191141  0.12695827  0.88218155  1
  O  O425  1  0.62332526  0.63148240  0.38294289  1
  O  O426  1  0.61874436  0.63628912  0.87161983  1
