# generated using pymatgen
data_V85Zn86O256
_symmetry_space_group_name_H-M   'P 1'
_cell_length_a   16.92608240
_cell_length_b   16.93303688
_cell_length_c   16.93740078
_cell_angle_alpha   90.03582804
_cell_angle_beta   90.00973376
_cell_angle_gamma   89.96708079
_symmetry_Int_Tables_number   1
_chemical_formula_structural   V85Zn86O256
_chemical_formula_sum   'V85 Zn86 O256'
_cell_volume   4854.42623470
_cell_formula_units_Z   1
loop_
 _symmetry_equiv_pos_site_id
 _symmetry_equiv_pos_as_xyz
  1  'x, y, z'
loop_
 _atom_site_type_symbol
 _atom_site_label
 _atom_site_symmetry_multiplicity
 _atom_site_fract_x
 _atom_site_fract_y
 _atom_site_fract_z
 _atom_site_occupancy
  V  V0  1  0.50121154  0.62738020  0.63269739  1
  V  V1  1  0.49987943  0.24725359  0.75311341  1
  V  V2  1  0.00823299  0.61435680  0.11035358  1
  V  V3  1  0.62353437  0.62837363  0.49344698  1
  V  V4  1  0.14129134  0.48971471  0.11932349  1
  V  V5  1  0.25654457  -0.00166775  0.25884387  1
  V  V6  1  0.75218072  0.37701765  0.62566853  1
  V  V7  1  0.12621607  0.74753102  0.37669446  1
  V  V8  1  0.75181387  0.12194747  0.87563133  1
  V  V9  1  0.25180622  0.87503594  0.12494449  1
  V  V10  1  0.87377809  0.24926187  0.13230534  1
  V  V11  1  0.37074668  0.50080719  0.86838093  1
  V  V12  1  0.62655967  0.88204443  0.25311629  1
  V  V13  1  0.75094805  0.25015061  0.49826043  1
  V  V14  1  0.88406824  0.87243238  -0.00019289  1
  V  V15  1  0.75240428  0.25056922  0.00263694  1
  V  V16  1  0.86818573  0.75536129  0.62824750  1
  V  V17  1  0.01339922  0.25160338  0.25468549  1
  V  V18  1  0.37466641  0.87768177  0.49224015  1
  V  V19  1  0.12566625  0.00243724  0.12566691  1
  V  V20  1  0.87757249  0.38764327  -0.00444302  1
  V  V21  1  0.62874714  0.38791910  0.24125996  1
  V  V22  1  0.87634333  0.38141449  0.49093202  1
  V  V23  1  0.38292905  0.37458896  0.50205938  1
  V  V24  1  0.12560342  0.87346018  0.25012518  1
  V  V25  1  0.37269987  0.48891787  0.36830731  1
  V  V26  1  -0.00296643  0.87476311  0.37405458  1
  V  V27  1  0.87421381  0.60696538  0.25266755  1
  V  V28  1  0.50415719  0.49901679  0.00081266  1
  V  V29  1  -0.00027946  0.50258278  0.49282719  1
  V  V30  1  -0.00549286  0.12467330  0.12685047  1
  V  V31  1  0.87333481  0.00334113  0.36420733  1
  V  V32  1  0.24955952  0.87461039  0.62898204  1
  V  V33  1  0.75564485  0.61071363  0.37436286  1
  V  V34  1  0.88302343  -0.01139965  0.87282404  1
  V  V35  1  0.12049517  0.24855465  0.87605969  1
  V  V36  1  0.37325101  0.62843080  0.75057211  1
  V  V37  1  0.37365956  0.12521950  0.75186777  1
  V  V38  1  0.50000920  0.87533728  0.87325554  1
  V  V39  1  0.62052965  0.86790762  0.74553184  1
  V  V40  1  0.12531538  0.12818492  0.49057745  1
  V  V41  1  0.87475471  0.12365419  0.74987520  1
  V  V42  1  0.74841114  0.75624200  0.49067958  1
  V  V43  1  0.75131574  -0.01451089  0.74648384  1
  V  V44  1  0.36559142  0.62472697  0.25254884  1
  V  V45  1  0.38344103  0.87821990  0.00284168  1
  V  V46  1  0.25078615  0.38190259  0.62994713  1
  V  V47  1  0.12572975  0.62429988  0.50246438  1
  V  V48  1  0.24673881  0.25184151  0.49826075  1
  V  V49  1  0.38112063  0.12123174  0.25675595  1
  V  V50  1  0.62457478  0.24755096  0.87960590  1
  V  V51  1  0.75203660  0.12811783  0.36381491  1
  V  V52  1  0.12625388  0.76911601  0.87097111  1
  V  V53  1  0.50182662  0.26241529  0.24963681  1
  V  V54  1  0.49913498  0.37884928  0.87513149  1
  V  V55  1  0.00941678  0.76716414  0.74799406  1
  V  V56  1  -0.00169175  0.74303796  0.24948844  1
  V  V57  1  0.38177522  0.75302588  0.62755893  1
  V  V58  1  0.87020908  0.74786412  0.12874582  1
  V  V59  1  0.62640169  0.62572158  0.00715444  1
  V  V60  1  0.87668714  0.24957237  0.62346696  1
  V  V61  1  0.23731028  0.62377267  0.87117272  1
  V  V62  1  0.74655678  0.88041966  0.12433304  1
  V  V63  1  0.62324697  0.74970348  0.87758012  1
  V  V64  1  -0.00343199  0.39412554  0.87358963  1
  V  V65  1  0.62528477  0.12595193  0.49764490  1
  V  V66  1  0.12757833  0.38555322  0.75273292  1
  V  V67  1  0.50110814  0.12358491  0.62587381  1
  V  V68  1  -0.00251005  0.62567826  0.63441039  1
  V  V69  1  0.37680261  0.74801449  0.12526046  1
  V  V70  1  0.12490467  -0.00025011  0.62602600  1
  V  V71  1  0.51288721  0.74595630  0.25428168  1
  V  V72  1  0.62480752  0.10869973  0.00391220  1
  V  V73  1  0.37247382  0.25660861  0.12425918  1
  V  V74  1  0.49944424  0.61283334  0.12764143  1
  V  V75  1  0.24431758  0.00073570  0.75255049  1
  V  V76  1  0.62149287  0.26068960  0.37339012  1
  V  V77  1  0.49714342  0.00100310  0.48986256  1
  V  V78  1  0.62773946  0.37201842  0.74961519  1
  V  V79  1  0.50369937  0.11270179  0.12295719  1
  V  V80  1  0.37905704  0.00287111  0.88170871  1
  V  V81  1  0.62591698  0.50103241  0.62358403  1
  V  V82  1  0.62961671  -0.00442342  0.62276585  1
  V  V83  1  0.24668669  0.74716819  -0.00306955  1
  V  V84  1  -0.00222879  0.00078054  0.49823306  1
  Zn  Zn85  1  0.77030519  0.50693313  0.75228074  1
  Zn  Zn86  1  0.12599935  0.12824455  0.00243038  1
  Zn  Zn87  1  0.25115074  0.74948751  0.50161591  1
  Zn  Zn88  1  0.14332363  0.38455255  0.25809693  1
  Zn  Zn89  1  0.00429006  0.37721037  0.37181622  1
  Zn  Zn90  1  0.86664124  0.87996320  0.49960823  1
  Zn  Zn91  1  0.12812089  0.50372588  0.62965187  1
  Zn  Zn92  1  0.37327236  0.25051512  0.62741852  1
  Zn  Zn93  1  0.76740549  0.61510237  0.87745279  1
  Zn  Zn94  1  0.74887504  0.00758414  0.24192404  1
  Zn  Zn95  1  0.24323399  0.25551809  0.00565825  1
  Zn  Zn96  1  0.24809888  0.61933798  0.37500546  1
  Zn  Zn97  1  0.49844254  0.49928446  0.49774721  1
  Zn  Zn98  1  0.00193826  0.12647661  0.62467343  1
  Zn  Zn99  1  0.00453562  -0.00175444  -0.00415776  1
  Zn  Zn100  1  0.75222858  0.39137987  0.12544765  1
  Zn  Zn101  1  0.24771862  0.12773750  0.88105617  1
  Zn  Zn102  1  0.37043603  0.37971144  0.00447035  1
  Zn  Zn103  1  0.50211649  0.86965805  0.37585555  1
  Zn  Zn104  1  0.25474629  0.12214125  0.37778522  1
  Zn  Zn105  1  -0.00118811  0.25152692  0.75191803  1
  Zn  Zn106  1  0.74950815  0.74972517  0.00084897  1
  Zn  Zn107  1  0.19105984  0.18493538  0.18995094  1
  Zn  Zn108  1  0.18581948  0.19181767  0.68758905  1
  Zn  Zn109  1  0.18510474  0.68518858  0.18351729  1
  Zn  Zn110  1  0.18816582  0.68795540  0.68946774  1
  Zn  Zn111  1  0.68396399  0.19179810  0.18374478  1
  Zn  Zn112  1  0.69048759  0.18461471  0.68788259  1
  Zn  Zn113  1  0.68720515  0.56515346  0.19056666  1
  Zn  Zn114  1  0.68961120  0.68965494  0.68618179  1
  Zn  Zn115  1  0.31320259  0.30514009  0.31807075  1
  Zn  Zn116  1  0.30785049  0.31310238  0.81791971  1
  Zn  Zn117  1  0.31351972  0.80814756  0.31254115  1
  Zn  Zn118  1  0.31483417  0.81343853  0.81043624  1
  Zn  Zn119  1  0.81004133  0.31752331  0.31098660  1
  Zn  Zn120  1  0.81299294  0.31381107  0.81359668  1
  Zn  Zn121  1  0.80975052  0.80981632  0.31284857  1
  Zn  Zn122  1  0.83275386  0.77646522  0.83057219  1
  Zn  Zn123  1  0.18853906  0.43547204  0.43646750  1
  Zn  Zn124  1  0.18771359  0.43815039  0.94439525  1
  Zn  Zn125  1  0.18601389  0.93607111  0.43994635  1
  Zn  Zn126  1  0.19419001  0.93970426  0.94169472  1
  Zn  Zn127  1  0.68538801  0.43674067  0.43871725  1
  Zn  Zn128  1  0.68819985  0.43686147  0.94207855  1
  Zn  Zn129  1  0.68508814  0.93825397  0.43080792  1
  Zn  Zn130  1  0.69618378  0.93146228  0.93401630  1
  Zn  Zn131  1  0.31144945  0.06843861  0.06547061  1
  Zn  Zn132  1  0.31315066  0.06308370  0.56366212  1
  Zn  Zn133  1  0.31486455  0.56550083  0.05380905  1
  Zn  Zn134  1  0.31227571  0.56118892  0.56037168  1
  Zn  Zn135  1  0.81568865  0.06158863  0.06019856  1
  Zn  Zn136  1  0.81103914  0.06349469  0.55892958  1
  Zn  Zn137  1  0.81620201  0.56765625  0.06027803  1
  Zn  Zn138  1  0.81442141  0.56602423  0.56554118  1
  Zn  Zn139  1  0.31663246  0.43532647  0.18803241  1
  Zn  Zn140  1  0.44035241  0.44048411  0.68798863  1
  Zn  Zn141  1  0.43945885  0.93578521  0.19027543  1
  Zn  Zn142  1  0.43835028  0.94002589  0.68628124  1
  Zn  Zn143  1  0.94132603  0.43381881  0.18186733  1
  Zn  Zn144  1  0.94251298  0.43730323  0.68166204  1
  Zn  Zn145  1  0.93838080  0.93526030  0.18631966  1
  Zn  Zn146  1  0.93550650  0.93553096  0.68176196  1
  Zn  Zn147  1  0.06076738  0.06586581  0.30809805  1
  Zn  Zn148  1  0.06113475  0.06342105  0.81186667  1
  Zn  Zn149  1  0.06667555  0.55767803  0.30866956  1
  Zn  Zn150  1  -0.06341753  0.57700866  0.81049736  1
  Zn  Zn151  1  0.56521463  0.06613851  0.31110205  1
  Zn  Zn152  1  0.56313756  0.05806313  0.81506374  1
  Zn  Zn153  1  0.55360116  0.56300731  0.32047674  1
  Zn  Zn154  1  0.62249771  0.56105417  0.81434051  1
  Zn  Zn155  1  0.43800621  0.19185159  0.43689208  1
  Zn  Zn156  1  0.43949266  0.18532627  0.94251645  1
  Zn  Zn157  1  0.43632219  0.68646057  0.43757379  1
  Zn  Zn158  1  0.44021181  0.68869599  0.93554171  1
  Zn  Zn159  1  0.93650302  0.18627139  0.43521628  1
  Zn  Zn160  1  0.93988781  0.18783315  0.94040692  1
  Zn  Zn161  1  0.93504845  0.68581064  0.43980711  1
  Zn  Zn162  1  0.94868735  0.69758919  0.93945399  1
  Zn  Zn163  1  0.05973069  0.31768937  0.06121455  1
  Zn  Zn164  1  0.06310768  0.31450448  0.56265319  1
  Zn  Zn165  1  0.06385706  0.80870485  0.06361692  1
  Zn  Zn166  1  0.06237593  0.81561581  0.56288544  1
  Zn  Zn167  1  0.55969150  0.31077622  0.06472094  1
  Zn  Zn168  1  0.56213026  0.30960603  0.56513806  1
  Zn  Zn169  1  0.56221624  0.81157422  0.06831872  1
  Zn  Zn170  1  0.56319839  0.81219050  0.56063723  1
  O  O171  1  0.11875296  0.11618985  0.12702934  1
  O  O172  1  0.12438209  0.11373036  0.61823764  1
  O  O173  1  0.11236293  0.61968984  0.12633029  1
  O  O174  1  0.11810924  0.62721623  0.61864265  1
  O  O175  1  0.61397213  0.12631129  0.11855859  1
  O  O176  1  0.62125148  0.11906461  0.61804774  1
  O  O177  1  0.61573490  0.62511953  0.11541410  1
  O  O178  1  0.61878254  0.61893589  0.61675808  1
  O  O179  1  0.37453028  0.38264623  0.38404995  1
  O  O180  1  0.38331643  0.38370690  0.87120361  1
  O  O181  1  0.37532039  0.87068365  0.38887764  1
  O  O182  1  0.38149286  0.88134280  0.88135833  1
  O  O183  1  0.87885513  0.37022958  0.38781457  1
  O  O184  1  0.88586732  0.37026957  0.88335657  1
  O  O185  1  0.87968917  0.88256831  0.37712486  1
  O  O186  1  0.86905232  0.87604164  0.88597619  1
  O  O187  1  0.24601259  -0.00213696  0.36225649  1
  O  O188  1  0.26071739  0.00155432  0.86715111  1
  O  O189  1  0.26765403  0.50326025  0.38294049  1
  O  O190  1  0.25969362  0.51169409  0.88039635  1
  O  O191  1  0.75619637  0.00989077  0.37247448  1
  O  O192  1  0.76093147  0.00295638  0.86475088  1
  O  O193  1  0.75301878  0.51191330  0.38355727  1
  O  O194  1  0.72440937  0.50628314  0.86312335  1
  O  O195  1  0.24793992  0.50234037  0.12172911  1
  O  O196  1  0.24840646  0.48631790  0.62192535  1
  O  O197  1  0.24415859  0.99496976  0.13481641  1
  O  O198  1  0.24459377  0.99599554  0.63276835  1
  O  O199  1  0.75266652  0.50392755  0.12551576  1
  O  O200  1  0.74116736  0.49704843  0.62675443  1
  O  O201  1  0.75924023  0.98579843  0.12697627  1
  O  O202  1  0.73830416  1.00448577  0.63015874  1
  O  O203  1  -0.00247736  0.35840930  0.24883001  1
  O  O204  1  0.00375141  0.37354402  0.76177747  1
  O  O205  1  0.00463738  0.86242069  0.25413555  1
  O  O206  1  0.00423773  0.86612955  0.74241630  1
  O  O207  1  0.51472848  0.36314833  0.25063953  1
  O  O208  1  0.50476012  0.36621928  0.75654428  1
  O  O209  1  0.50938445  0.86575279  0.24968470  1
  O  O210  1  0.50850095  0.88427270  0.76023202  1
  O  O211  1  0.49939824  0.13064076  0.24046562  1
  O  O212  1  0.49398355  0.12690300  0.74830440  1
  O  O213  1  0.49482467  0.63227067  0.24513878  1
  O  O214  1  0.49116836  0.62437146  0.73466425  1
  O  O215  1  1.00170732  0.13734263  0.23806432  1
  O  O216  1  0.98498870  0.12368050  0.74599242  1
  O  O217  1  0.99305382  0.63287525  0.24915926  1
  O  O218  1  1.00401456  0.63990979  0.73643164  1
  O  O219  1  0.38101264  0.24925638  0.01775310  1
  O  O220  1  0.36986027  0.25728051  0.50426627  1
  O  O221  1  0.37101914  0.75783366  0.00527706  1
  O  O222  1  0.37279108  0.75817326  0.50883864  1
  O  O223  1  0.86707618  0.25509042  0.00577495  1
  O  O224  1  0.87119836  0.25495230  0.50646440  1
  O  O225  1  0.87622529  0.75705839  0.01066974  1
  O  O226  1  0.86378077  0.75361639  0.50515685  1
  O  O227  1  0.13188235  0.23921057  0.50797753  1
  O  O228  1  0.12143943  0.25042695  0.99171740  1
  O  O229  1  0.12402742  0.74474080  0.49225066  1
  O  O230  1  0.13620146  0.75756294  0.98928937  1
  O  O231  1  0.62961854  0.24821778  0.49158847  1
  O  O232  1  0.63337660  0.24474385  0.99670502  1
  O  O233  1  0.63962458  0.74171622  0.50754240  1
  O  O234  1  0.62384969  0.74494393  0.99577422  1
  O  O235  1  0.49427741  0.24156985  0.13382957  1
  O  O236  1  0.49889337  0.24150828  0.63558379  1
  O  O237  1  0.49410996  0.74105893  0.13546208  1
  O  O238  1  0.49047871  0.74373974  0.62025172  1
  O  O239  1  0.99293524  0.24448713  0.13102314  1
  O  O240  1  0.98690294  0.24861451  0.62637350  1
  O  O241  1  0.99525188  0.74139350  0.13363018  1
  O  O242  1  0.99614154  0.74850697  0.63043503  1
  O  O243  1  -0.00564306  0.24580115  0.35628265  1
  O  O244  1  0.00779027  0.25430156  0.87316949  1
  O  O245  1  0.00802906  0.75208091  0.36994825  1
  O  O246  1  0.01148891  0.75375633  0.85779868  1
  O  O247  1  0.51186074  0.24402715  0.36467985  1
  O  O248  1  0.50286211  0.25782890  0.87302729  1
  O  O249  1  0.49515476  0.74946044  0.35857574  1
  O  O250  1  0.50713769  0.76658508  0.87811658  1
  O  O251  1  0.24309498  0.12964493  0.50103309  1
  O  O252  1  0.24581787  0.13343277  0.99924991  1
  O  O253  1  0.23708719  0.62897690  0.50198318  1
  O  O254  1  0.25904944  0.64091057  0.98720275  1
  O  O255  1  0.74321602  0.13245202  0.49135715  1
  O  O256  1  0.74468195  0.13080976  0.99601241  1
  O  O257  1  0.74601736  0.63194571  0.49182538  1
  O  O258  1  0.74025752  0.62987587  0.99551923  1
  O  O259  1  0.25930290  0.36753933  -0.00734034  1
  O  O260  1  0.25779198  0.36777082  0.50870544  1
  O  O261  1  0.26269385  0.86734353  0.00575214  1
  O  O262  1  0.25810013  0.87764263  0.51144298  1
  O  O263  1  0.75961126  0.36709667  -0.00036575  1
  O  O264  1  0.75731536  0.36986723  0.50496590  1
  O  O265  1  0.75938041  0.87072523  0.00930841  1
  O  O266  1  0.74601555  0.86053474  0.49336503  1
  O  O267  1  0.12174263  0.50100396  0.22874314  1
  O  O268  1  0.12352608  0.48476641  0.74893303  1
  O  O269  1  0.13087699  0.99444175  0.24204845  1
  O  O270  1  0.13655123  1.00553342  0.74338950  1
  O  O271  1  0.61717588  0.49095880  0.25436889  1
  O  O272  1  0.61016493  0.48524545  0.73123620  1
  O  O273  1  0.62615482  0.98613526  0.25075172  1
  O  O274  1  0.63164963  0.99405538  0.74262764  1
  O  O275  1  0.36810616  0.00647823  0.24641126  1
  O  O276  1  0.36913501  0.00979392  0.75632737  1
  O  O277  1  0.37605025  0.50726479  0.26099326  1
  O  O278  1  0.38145869  0.50975789  0.76136688  1
  O  O279  1  0.87320222  -0.00314651  0.26105328  1
  O  O280  1  0.86864712  0.00153438  0.75156804  1
  O  O281  1  0.88270144  0.50798556  0.24962774  1
  O  O282  1  0.88133341  0.50713022  0.74280657  1
  O  O283  1  0.11775685  0.38254493  0.37019145  1
  O  O284  1  0.11170882  0.37249769  0.87150628  1
  O  O285  1  0.11841228  0.86816860  0.36969710  1
  O  O286  1  0.13530967  0.86897151  0.87327407  1
  O  O287  1  0.62926216  0.36641924  0.36613467  1
  O  O288  1  0.61657593  0.36620934  0.87185748  1
  O  O289  1  0.62371073  0.87181633  0.35858740  1
  O  O290  1  0.61721382  0.87339583  0.86898950  1
  O  O291  1  0.38815662  0.13054102  0.13344311  1
  O  O292  1  0.38245413  0.12481802  0.63557293  1
  O  O293  1  0.38083281  0.62885702  0.13204286  1
  O  O294  1  0.37915588  0.63241396  0.62824866  1
  O  O295  1  0.88226344  0.13457464  0.12037252  1
  O  O296  1  0.87364293  0.13178988  0.63096258  1
  O  O297  1  0.88517030  0.63201679  0.13283092  1
  O  O298  1  0.88643120  0.64279950  0.61574936  1
  O  O299  1  0.27007619  0.24093029  0.12804357  1
  O  O300  1  0.25293879  0.25771325  0.61660772  1
  O  O301  1  0.25413657  0.75445945  0.11630801  1
  O  O302  1  0.25723338  0.76044947  0.62476476  1
  O  O303  1  0.75572499  0.25171072  0.11417967  1
  O  O304  1  0.75908772  0.25324843  0.61925580  1
  O  O305  1  0.76635741  0.76016168  0.12624071  1
  O  O306  1  0.76312202  0.74472578  0.61584672  1
  O  O307  1  0.25513416  0.24191899  0.39367892  1
  O  O308  1  0.23225296  0.24785575  0.87314356  1
  O  O309  1  0.23612972  0.75015565  0.37761064  1
  O  O310  1  0.24731801  0.74914434  0.87913530  1
  O  O311  1  0.74399623  0.24535784  0.37866081  1
  O  O312  1  0.74716840  0.24304033  0.88468236  1
  O  O313  1  0.75327546  0.73973339  0.38820651  1
  O  O314  1  0.73090764  0.75290479  0.87877292  1
  O  O315  1  0.00253579  0.11966634  0.01316018  1
  O  O316  1  0.00604694  0.11620143  0.50049429  1
  O  O317  1  0.00021745  0.62857429  0.01273692  1
  O  O318  1  0.00891083  0.62325565  0.50663018  1
  O  O319  1  0.50956646  0.12613466  0.01381724  1
  O  O320  1  0.50475826  0.11940313  0.50448646  1
  O  O321  1  0.50226625  0.62032760  0.00923845  1
  O  O322  1  0.50977813  0.62800581  0.50715600  1
  O  O323  1  0.48652685  0.37317259  0.50684501  1
  O  O324  1  0.49776569  0.38227719  0.99348202  1
  O  O325  1  0.49418777  0.88219629  0.49735976  1
  O  O326  1  0.48945079  0.87380075  0.99665252  1
  O  O327  1  0.99294943  0.38444071  0.50114450  1
  O  O328  1  0.98646429  0.37416800  0.98745302  1
  O  O329  1  1.00156163  0.88843450  0.49198398  1
  O  O330  1  0.98855421  0.87822806  1.00846605  1
  O  O331  1  0.47920309  0.50486616  0.38249480  1
  O  O332  1  0.49768776  0.48736269  0.87878494  1
  O  O333  1  0.50680026  0.99859270  0.38711805  1
  O  O334  1  0.48757639  0.99237891  0.87488707  1
  O  O335  1  1.00027351  0.50543590  0.38939254  1
  O  O336  1  0.99815773  0.49226744  0.87344565  1
  O  O337  1  0.99260480  0.99856316  0.37834162  1
  O  O338  1  0.98678523  0.99937824  0.87341544  1
  O  O339  1  0.00781431  0.00754281  0.12871015  1
  O  O340  1  0.00687756  0.00083695  0.61596381  1
  O  O341  1  0.00047041  0.51259740  0.12183878  1
  O  O342  1  0.00512407  0.51179424  0.61460667  1
  O  O343  1  0.49800062  0.01371717  0.12786269  1
  O  O344  1  0.51162260  0.00565617  0.61846930  1
  O  O345  1  0.49270620  0.51160466  0.11533514  1
  O  O346  1  0.50522867  0.50936563  0.61800349  1
  O  O347  1  0.25486845  0.36678548  0.24899389  1
  O  O348  1  0.24131818  0.36893029  0.74159828  1
  O  O349  1  0.24734519  0.87893695  0.24426612  1
  O  O350  1  0.25970808  0.88678522  0.73721671  1
  O  O351  1  0.73328518  0.37473032  0.24709723  1
  O  O352  1  0.74404085  0.37522257  0.74286755  1
  O  O353  1  0.73935088  0.87412464  0.24512132  1
  O  O354  1  0.74088351  0.88484401  0.75249033  1
  O  O355  1  0.26118615  0.11593764  0.25318595  1
  O  O356  1  0.25807485  0.11815287  0.75129213  1
  O  O357  1  0.26224274  0.63208112  0.25060282  1
  O  O358  1  0.26445925  0.62933740  0.75543872  1
  O  O359  1  0.74253075  0.12564953  0.25939946  1
  O  O360  1  0.75922463  0.11544960  0.75444838  1
  O  O361  1  0.75651050  0.62370856  0.26600607  1
  O  O362  1  0.72044346  0.61646781  0.76353931  1
  O  O363  1  0.37917107  0.12612149  0.36119142  1
  O  O364  1  0.37542603  0.11825422  0.87115624  1
  O  O365  1  0.37073330  0.61989693  0.36766682  1
  O  O366  1  0.37376272  0.62195720  0.86529462  1
  O  O367  1  0.86293893  0.11703920  0.37921823  1
  O  O368  1  0.87078464  0.11649520  0.86813293  1
  O  O369  1  0.86415648  0.62720432  0.36812853  1
  O  O370  1  0.87327636  0.65731381  0.86497587  1
  O  O371  1  0.12316863  0.38731392  0.12773553  1
  O  O372  1  0.13218105  0.37463366  0.63469516  1
  O  O373  1  0.13030037  0.87975010  0.13237547  1
  O  O374  1  0.13543266  0.88967984  0.61801480  1
  O  O375  1  0.62602136  0.37361448  0.13831306  1
  O  O376  1  0.63262020  0.38023107  0.62568336  1
  O  O377  1  0.63499924  0.86858164  0.13749396  1
  O  O378  1  0.61926725  0.88378434  0.63292001  1
  O  O379  1  0.11472007  0.25117488  0.24592944  1
  O  O380  1  0.11900940  0.25683175  0.75743831  1
  O  O381  1  0.11796082  0.75213381  0.25625970  1
  O  O382  1  0.11667356  0.75543626  0.75192709  1
  O  O383  1  0.62052472  0.25651972  0.25610306  1
  O  O384  1  0.62183021  0.25214170  0.75750770  1
  O  O385  1  0.61108679  0.75526348  0.24822088  1
  O  O386  1  0.62453339  0.76363882  0.75493305  1
  O  O387  1  0.38595825  0.24174100  0.24360246  1
  O  O388  1  0.37836764  0.23730124  0.75393883  1
  O  O389  1  0.38191311  0.74340371  0.24358671  1
  O  O390  1  0.37522926  0.74423472  0.73860594  1
  O  O391  1  0.87360691  0.25654934  0.23469890  1
  O  O392  1  0.87273548  0.24056145  0.74226521  1
  O  O393  1  0.88263228  0.74459556  0.24580253  1
  O  O394  1  0.88774134  0.75779349  0.73318216  1
  O  O395  1  0.37566867  0.48996282  0.49437918  1
  O  O396  1  0.38805154  0.50310116  0.98574992  1
  O  O397  1  0.38623556  0.99159695  0.50824323  1
  O  O398  1  0.36747707  0.99221978  0.99220366  1
  O  O399  1  0.88351614  0.49089027  0.50869626  1
  O  O400  1  0.86945192  0.48637113  0.99478839  1
  O  O401  1  0.88214413  0.99959955  0.49203477  1
  O  O402  1  0.87578473  0.99098992  0.98866331  1
  O  O403  1  0.12558387  -0.00225761  0.01472028  1
  O  O404  1  0.11833079  0.00682884  0.50581217  1
  O  O405  1  0.12608527  0.50142722  0.01914802  1
  O  O406  1  0.11942025  0.50982388  0.50438826  1
  O  O407  1  0.63397087  0.01013503  -0.00692476  1
  O  O408  1  0.62053670  0.00348504  0.50588855  1
  O  O409  1  0.61106551  0.50837348  -0.00348855  1
  O  O410  1  0.62246313  0.50572846  0.50870494  1
  O  O411  1  0.38377166  0.35995455  0.12607107  1
  O  O412  1  0.36894773  0.37422877  0.62154244  1
  O  O413  1  0.37276859  0.86997867  0.11941055  1
  O  O414  1  0.37172995  0.86992778  0.61857309  1
  O  O415  1  0.87512232  0.36820404  0.10978078  1
  O  O416  1  0.87056818  0.36588629  0.61759653  1
  O  O417  1  0.87117534  0.86773719  0.12113894  1
  O  O418  1  0.87755488  0.86069703  0.61568874  1
  O  O419  1  0.12778615  0.11840417  0.38739853  1
  O  O420  1  0.12315056  0.13318141  0.87796459  1
  O  O421  1  0.12636962  0.63138505  0.38159756  1
  O  O422  1  0.13986565  0.64135344  0.86690926  1
  O  O423  1  0.63247694  0.13405312  0.38018405  1
  O  O424  1  0.63024325  0.12861088  0.88179928  1
  O  O425  1  0.63469993  0.61966423  0.38671559  1
  O  O426  1  0.60507260  0.63954165  0.89336506  1
