# generated using pymatgen
data_V85Zn86O256
_symmetry_space_group_name_H-M   'P 1'
_cell_length_a   16.98099775
_cell_length_b   16.95627859
_cell_length_c   16.96490232
_cell_angle_alpha   90.08054090
_cell_angle_beta   89.89624620
_cell_angle_gamma   89.92078807
_symmetry_Int_Tables_number   1
_chemical_formula_structural   V85Zn86O256
_chemical_formula_sum   'V85 Zn86 O256'
_cell_volume   4884.76362953
_cell_formula_units_Z   1
loop_
 _symmetry_equiv_pos_site_id
 _symmetry_equiv_pos_as_xyz
  1  'x, y, z'
loop_
 _atom_site_type_symbol
 _atom_site_label
 _atom_site_symmetry_multiplicity
 _atom_site_fract_x
 _atom_site_fract_y
 _atom_site_fract_z
 _atom_site_occupancy
  V  V0  1  0.86877545  0.11793889  0.75183934  1
  V  V1  1  0.87698515  -0.00038664  0.37036973  1
  V  V2  1  0.62443583  0.24992338  0.37465369  1
  V  V3  1  0.37378300  0.51717299  0.87024776  1
  V  V4  1  -0.00780806  0.49240585  0.00346034  1
  V  V5  1  0.73377390  0.12425668  0.86995553  1
  V  V6  1  0.62137102  0.12491530  0.50313894  1
  V  V7  1  0.12842766  0.62551174  -0.00164348  1
  V  V8  1  0.25344187  0.86947193  0.61696762  1
  V  V9  1  0.37609685  0.62167267  0.25355846  1
  V  V10  1  0.37654760  0.87197448  -0.00071928  1
  V  V11  1  0.87303576  0.48740341  0.87820601  1
  V  V12  1  0.37588563  0.37622826  0.50390272  1
  V  V13  1  0.37265795  0.25109396  0.11740459  1
  V  V14  1  0.63033381  0.62531220  0.48775999  1
  V  V15  1  0.49943567  0.37531881  0.37104279  1
  V  V16  1  0.25153134  0.12755972  0.37629607  1
  V  V17  1  0.50549053  0.62250289  0.12358724  1
  V  V18  1  0.74666361  0.37819729  0.62999200  1
  V  V19  1  0.37610044  0.75008325  0.12967897  1
  V  V20  1  0.75069043  0.12399543  0.37515248  1
  V  V21  1  0.24874254  0.49808898  0.25432838  1
  V  V22  1  0.50190551  0.22811020  0.75185552  1
  V  V23  1  0.62209051  0.51224163  0.62655641  1
  V  V24  1  0.25110950  0.25309688  0.50344262  1
  V  V25  1  0.49867864  0.12328812  0.12316802  1
  V  V26  1  0.13370725  0.87027237  0.25336474  1
  V  V27  1  0.62711780  0.87030783  0.24461464  1
  V  V28  1  0.49781327  0.49599499  -0.00848326  1
  V  V29  1  0.75230897  0.87845512  0.63326877  1
  V  V30  1  0.62243630  0.62564335  -0.00653308  1
  V  V31  1  0.49947665  0.50615700  0.50484433  1
  V  V32  1  0.74905325  0.25042849  0.50145933  1
  V  V33  1  0.00972719  0.25582311  0.75693606  1
  V  V34  1  0.63179554  0.00115000  0.63034755  1
  V  V35  1  0.24812839  0.37167806  0.12549967  1
  V  V36  1  0.37688946  0.37124738  -0.01258855  1
  V  V37  1  0.50092221  0.00129604  0.50898623  1
  V  V38  1  0.87448814  0.62521329  0.75360091  1
  V  V39  1  0.75313126  0.74932855  0.48978789  1
  V  V40  1  0.60565655  0.37859670  0.75005081  1
  V  V41  1  0.87404515  0.25200729  0.62817561  1
  V  V42  1  0.85890133  0.62477329  0.25808891  1
  V  V43  1  0.87442212  0.37856316  0.50200454  1
  V  V44  1  0.50587689  0.87529846  0.37571009  1
  V  V45  1  0.87216993  0.75853005  0.12689718  1
  V  V46  1  0.49993161  -0.00384918  -0.00535712  1
  V  V47  1  0.00179286  0.38024925  0.37566748  1
  V  V48  1  0.13308202  0.61969494  0.50412492  1
  V  V49  1  -0.00012263  0.00182347  0.49764575  1
  V  V50  1  0.12438637  0.49765116  0.13183631  1
  V  V51  1  0.00063375  0.12605790  0.62694519  1
  V  V52  1  0.37283323  0.50096801  0.37581269  1
  V  V53  1  0.87799879  0.75060801  0.62471529  1
  V  V54  1  0.00363812  0.61897761  0.62719329  1
  V  V55  1  -0.00373535  0.62479724  0.13288198  1
  V  V56  1  0.61844223  0.76742280  0.87409014  1
  V  V57  1  0.25005735  0.12516148  0.87822031  1
  V  V58  1  0.38608035  0.63943858  0.73089453  1
  V  V59  1  0.12508083  0.12690276  0.49969629  1
  V  V60  1  0.19162547  0.29576937  -0.05847463  1
  V  V61  1  0.86313633  0.50484269  0.37713750  1
  V  V62  1  0.87629142  0.12578844  0.24941357  1
  V  V63  1  0.23801239  0.37834663  0.63506590  1
  V  V64  1  0.64192281  0.37817834  0.24486507  1
  V  V65  1  0.87151020  -0.00411108  0.88653943  1
  V  V66  1  0.37155349  -0.00981730  0.87134045  1
  V  V67  1  0.37940274  -0.00211617  0.38041772  1
  V  V68  1  0.12874109  -0.00159043  0.12622592  1
  V  V69  1  0.75334369  0.62717948  0.88118005  1
  V  V70  1  0.00288147  0.12760873  0.12469141  1
  V  V71  1  0.12741139  0.25824500  0.37291341  1
  V  V72  1  0.75213633  -0.00338819  0.24505977  1
  V  V73  1  0.12535776  0.12484241  -0.00335927  1
  V  V74  1  0.38092472  0.24490222  0.62519439  1
  V  V75  1  0.23928901  0.51242076  0.74942773  1
  V  V76  1  0.37573664  0.12778049  0.24919568  1
  V  V77  1  0.24292865  -0.00429143  0.74969729  1
  V  V78  1  0.25357298  -0.00027195  0.25370289  1
  V  V79  1  0.00239961  0.87401540  0.37291549  1
  V  V80  1  0.13241856  0.74381949  0.38040922  1
  V  V81  1  0.75597809  0.76657883  0.00302337  1
  V  V82  1  0.63423588  -0.00160108  0.12040537  1
  V  V83  1  0.12120463  0.76395179  0.88025101  1
  V  V84  1  0.00238001  0.25353405  0.25189043  1
  Zn  Zn85  1  -0.00012305  -0.01546992  -0.01165692  1
  Zn  Zn86  1  0.62864376  0.48708083  0.11992752  1
  Zn  Zn87  1  0.87477044  0.87510914  0.49741342  1
  Zn  Zn88  1  0.50108950  0.25228022  0.24666328  1
  Zn  Zn89  1  0.86769991  0.27194318  0.11666606  1
  Zn  Zn90  1  -0.00704625  0.75688997  0.76646436  1
  Zn  Zn91  1  0.63336561  0.74555792  0.36628843  1
  Zn  Zn92  1  0.25350850  0.74392527  0.00055244  1
  Zn  Zn93  1  0.61943456  0.13143556  -0.00148145  1
  Zn  Zn94  1  0.50458989  0.74760480  0.25080524  1
  Zn  Zn95  1  0.25374065  0.87100387  0.12940363  1
  Zn  Zn96  1  0.57852557  0.83537882  0.71843457  1
  Zn  Zn97  1  0.74533519  0.50081646  0.75287501  1
  Zn  Zn98  1  0.26690388  0.74295319  0.50871788  1
  Zn  Zn99  1  0.01346613  0.37349047  0.87471696  1
  Zn  Zn100  1  0.37079679  0.12018597  0.74580982  1
  Zn  Zn101  1  0.11589913  0.87596191  0.74705488  1
  Zn  Zn102  1  0.12314615  -0.00258871  0.62440491  1
  Zn  Zn103  1  0.00310854  0.50024680  0.50517702  1
  Zn  Zn104  1  0.62151543  0.26073701  0.87874179  1
  Zn  Zn105  1  0.00169980  0.74664135  0.25267506  1
  Zn  Zn106  1  0.74859513  0.26522047  0.00304323  1
  Zn  Zn107  1  0.18727615  0.19008908  0.18849920  1
  Zn  Zn108  1  0.18903271  0.18620564  0.68832141  1
  Zn  Zn109  1  0.19002509  0.68359439  0.19024451  1
  Zn  Zn110  1  0.18552310  0.69163148  0.69136144  1
  Zn  Zn111  1  0.68520499  0.18899481  0.18684924  1
  Zn  Zn112  1  0.68477429  0.18741379  0.68771935  1
  Zn  Zn113  1  0.74610246  0.62331109  0.12623407  1
  Zn  Zn114  1  0.69114164  0.68969166  0.68762052  1
  Zn  Zn115  1  0.31423976  0.31530457  0.30958488  1
  Zn  Zn116  1  0.32103123  0.31798896  0.80584077  1
  Zn  Zn117  1  0.33550901  0.79172182  0.34802352  1
  Zn  Zn118  1  0.29777421  0.80822255  0.81637952  1
  Zn  Zn119  1  0.81742471  0.31250518  0.31337754  1
  Zn  Zn120  1  0.80957926  0.30700348  0.81167827  1
  Zn  Zn121  1  0.81523334  0.81517595  0.30536239  1
  Zn  Zn122  1  0.81120107  0.81448796  0.81537220  1
  Zn  Zn123  1  0.18918098  0.43968541  0.44147057  1
  Zn  Zn124  1  0.18977039  0.46062223  0.93598110  1
  Zn  Zn125  1  0.18803137  0.93768882  0.43893422  1
  Zn  Zn126  1  0.19199378  0.93592496  0.94467377  1
  Zn  Zn127  1  0.68467442  0.43573294  0.43877068  1
  Zn  Zn128  1  0.68454676  0.43821637  0.93262113  1
  Zn  Zn129  1  0.68981748  0.93523159  0.43806504  1
  Zn  Zn130  1  0.69413193  0.94679869  0.93369773  1
  Zn  Zn131  1  0.31154883  0.06203826  0.06003593  1
  Zn  Zn132  1  0.31220225  0.05761573  0.56479114  1
  Zn  Zn133  1  0.31431489  0.56092838  0.06577413  1
  Zn  Zn134  1  0.31271977  0.56179612  0.56992146  1
  Zn  Zn135  1  0.81986657  0.11777643  0.05176085  1
  Zn  Zn136  1  0.81436235  0.06247857  0.56119981  1
  Zn  Zn137  1  0.80835929  0.44344172  0.06767629  1
  Zn  Zn138  1  0.81168826  0.56415845  0.56323795  1
  Zn  Zn139  1  0.43796061  0.43741594  0.18172136  1
  Zn  Zn140  1  0.43129685  0.44163377  0.68718560  1
  Zn  Zn141  1  0.44080197  0.93798775  0.18787495  1
  Zn  Zn142  1  0.42758803  0.82945550  0.69217921  1
  Zn  Zn143  1  0.93810981  0.44253141  0.19799442  1
  Zn  Zn144  1  0.93767142  0.43826657  0.69283242  1
  Zn  Zn145  1  0.95131287  0.92727885  0.16272722  1
  Zn  Zn146  1  0.93863940  0.93567912  0.68944248  1
  Zn  Zn147  1  0.06570045  0.06420620  0.31114903  1
  Zn  Zn148  1  0.05750388  0.06314567  0.81490346  1
  Zn  Zn149  1  0.06358257  0.56073103  0.31763439  1
  Zn  Zn150  1  0.05633489  0.56738635  0.81689918  1
  Zn  Zn151  1  0.56415941  0.06165582  0.31070283  1
  Zn  Zn152  1  0.52546684  0.00579544  0.77805945  1
  Zn  Zn153  1  0.56436943  0.55803839  0.31126318  1
  Zn  Zn154  1  0.55914902  0.56847310  0.81267614  1
  Zn  Zn155  1  0.43891594  0.18691369  0.43838923  1
  Zn  Zn156  1  0.43663509  0.18380887  0.93311219  1
  Zn  Zn157  1  0.44503729  0.68702228  0.44123688  1
  Zn  Zn158  1  0.43970422  0.69130740  0.93477917  1
  Zn  Zn159  1  0.93679697  0.19004880  0.43804248  1
  Zn  Zn160  1  0.93975664  0.18560702  0.93418595  1
  Zn  Zn161  1  0.94286171  0.68691711  0.43921287  1
  Zn  Zn162  1  0.93760116  0.68481124  0.94645500  1
  Zn  Zn163  1  0.05603099  0.31765283  0.06978725  1
  Zn  Zn164  1  0.06170700  0.31207584  0.56323784  1
  Zn  Zn165  1  0.05886672  0.81280592  0.06393209  1
  Zn  Zn166  1  0.06510241  0.81127776  0.56397525  1
  Zn  Zn167  1  0.56019608  0.31062082  0.06010543  1
  Zn  Zn168  1  0.56034939  0.31442521  0.56582288  1
  Zn  Zn169  1  0.56325694  0.81264928  0.06132887  1
  Zn  Zn170  1  0.56196982  0.81008281  0.55268465  1
  O  O171  1  0.12488097  0.12172659  0.11663477  1
  O  O172  1  0.11604024  0.12465348  0.61821073  1
  O  O173  1  0.11756401  0.61756886  0.12169995  1
  O  O174  1  0.11523128  0.63477522  0.61555062  1
  O  O175  1  0.60912866  0.11746648  0.12618944  1
  O  O176  1  0.63629288  0.11931101  0.60875463  1
  O  O177  1  0.61276043  0.62880819  0.10735105  1
  O  O178  1  0.63110991  0.61469777  0.61898473  1
  O  O179  1  0.38220655  0.37910060  0.38325848  1
  O  O180  1  0.36993729  0.38694422  0.88438799  1
  O  O181  1  0.38899880  0.89402107  0.36169365  1
  O  O182  1  0.36333430  0.88282388  0.88471165  1
  O  O183  1  0.88259338  0.38169325  0.38248623  1
  O  O184  1  0.87578098  0.38666354  0.86427157  1
  O  O185  1  0.88674979  0.88115637  0.37312664  1
  O  O186  1  0.86420392  0.89608638  0.87501019  1
  O  O187  1  0.26031695  0.00605519  0.37404099  1
  O  O188  1  0.25218171  0.00572757  0.87256684  1
  O  O189  1  0.25871865  0.49240700  0.36580151  1
  O  O190  1  0.25954460  0.50138923  0.85746647  1
  O  O191  1  0.75724816  0.00480425  0.36848395  1
  O  O192  1  0.75920512  0.01409062  0.86556990  1
  O  O193  1  0.76412697  0.49407828  0.38181754  1
  O  O194  1  0.75739713  0.51120228  0.87247687  1
  O  O195  1  0.24412075  0.49037783  0.12952280  1
  O  O196  1  0.25375843  0.48780100  0.63668096  1
  O  O197  1  0.24200924  1.00182145  0.13357135  1
  O  O198  1  0.24395709  0.99593073  0.63422740  1
  O  O199  1  0.73741715  0.51424409  0.11816866  1
  O  O200  1  0.74084631  0.49394611  0.62835811  1
  O  O201  1  0.73623716  1.01128575  0.13110550  1
  O  O202  1  0.74807654  0.98603808  0.61489032  1
  O  O203  1  -0.00114419  0.36837104  0.26730904  1
  O  O204  1  0.00026449  0.36109324  0.75074802  1
  O  O205  1  0.01509593  0.87692348  0.26025658  1
  O  O206  1  0.00291677  0.86733585  0.74558017  1
  O  O207  1  0.49538508  0.37412425  0.26269659  1
  O  O208  1  0.50398320  0.37005038  0.74234708  1
  O  O209  1  0.51078200  0.87891207  0.25829799  1
  O  O210  1  0.49417594  0.90000294  0.75561145  1
  O  O211  1  0.49277114  0.12546715  0.24182625  1
  O  O212  1  0.49488068  0.12684640  0.74687591  1
  O  O213  1  0.49816864  0.62237510  0.23922435  1
  O  O214  1  0.48309846  0.62638503  0.75107433  1
  O  O215  1  0.99916657  0.13630163  0.24847992  1
  O  O216  1  0.99067992  0.13286334  0.74324095  1
  O  O217  1  1.00261273  0.62353036  0.24082816  1
  O  O218  1  0.99139354  0.63216318  0.74563958  1
  O  O219  1  0.38023718  0.25977497  0.00289770  1
  O  O220  1  0.37062919  0.25513078  0.50655843  1
  O  O221  1  0.37522386  0.75534096  0.00853655  1
  O  O222  1  0.36406257  0.75855414  0.45589371  1
  O  O223  1  0.86723778  0.22301670  0.00897718  1
  O  O224  1  0.86929298  0.25782823  0.50723991  1
  O  O225  1  0.86399742  0.74888359  0.00913208  1
  O  O226  1  0.86934063  0.74899004  0.50720430  1
  O  O227  1  0.13159211  0.24600058  0.49366897  1
  O  O228  1  0.12519697  0.24325958  1.00541989  1
  O  O229  1  0.12867622  0.73979917  0.49405613  1
  O  O230  1  0.12357166  0.74061793  1.00094393  1
  O  O231  1  0.62809995  0.24472255  0.49573140  1
  O  O232  1  0.62565731  0.24807343  0.99385684  1
  O  O233  1  0.63531031  0.74097225  0.49409918  1
  O  O234  1  0.63417449  0.74650632  0.99247401  1
  O  O235  1  0.49112570  0.24007406  0.12580985  1
  O  O236  1  0.49132977  0.25089110  0.63405907  1
  O  O237  1  0.49122008  0.74192247  0.12662807  1
  O  O238  1  0.51326528  0.77282302  0.64265159  1
  O  O239  1  1.00083525  0.24314606  0.13620846  1
  O  O240  1  0.99426240  0.24145395  0.62961284  1
  O  O241  1  0.98989434  0.73991807  0.12847925  1
  O  O242  1  0.98567441  0.74267498  0.62192550  1
  O  O243  1  0.00772127  0.25669470  0.37163237  1
  O  O244  1  -0.00143114  0.25231401  0.86167162  1
  O  O245  1  0.00977859  0.75956427  0.37474646  1
  O  O246  1  0.01520346  0.74167255  0.88388295  1
  O  O247  1  0.50583299  0.25884388  0.37433278  1
  O  O248  1  0.50163089  0.24335961  0.85606733  1
  O  O249  1  0.51107951  0.76134928  0.36953910  1
  O  O250  1  0.51973543  0.75226665  0.88136051  1
  O  O251  1  0.24593444  0.13309689  0.49500269  1
  O  O252  1  0.24314485  0.12380507  0.98838692  1
  O  O253  1  0.23702794  0.62484886  0.50923472  1
  O  O254  1  0.23254956  0.62300705  1.01113402  1
  O  O255  1  0.74597927  0.13126699  0.49287271  1
  O  O256  1  0.73420863  0.11618170  0.97642309  1
  O  O257  1  0.74211531  0.63589631  0.50538485  1
  O  O258  1  0.73863617  0.63229287  0.98880016  1
  O  O259  1  0.25139958  0.37074898  0.00116797  1
  O  O260  1  0.25627027  0.37190851  0.51153185  1
  O  O261  1  0.26372948  0.87279305  0.00998760  1
  O  O262  1  0.24510820  0.87543354  0.51344346  1
  O  O263  1  0.75287045  0.37774085  -0.00634411  1
  O  O264  1  0.75128295  0.37051239  0.51196507  1
  O  O265  1  0.74686603  0.86445913  0.00293708  1
  O  O266  1  0.75353001  0.86518450  0.50652643  1
  O  O267  1  0.13511184  0.50509748  0.24344947  1
  O  O268  1  0.14017891  0.51293582  0.75612575  1
  O  O269  1  0.13792093  0.99407983  0.25122577  1
  O  O270  1  0.13277393  1.00249082  0.75213538  1
  O  O271  1  0.62205366  0.48031809  0.25020760  1
  O  O272  1  0.62086144  0.49599296  0.74203871  1
  O  O273  1  0.63244299  0.99525849  0.24176356  1
  O  O274  1  0.62905197  1.01384101  0.72916432  1
  O  O275  1  0.37095953  0.00956169  0.25466694  1
  O  O276  1  0.35592683  0.00291808  0.76185098  1
  O  O277  1  0.37094739  0.50374062  0.25272898  1
  O  O278  1  0.36969914  0.51347106  0.75394177  1
  O  O279  1  0.86793495  0.00413495  0.25423025  1
  O  O280  1  0.87804534  0.01657914  0.74808401  1
  O  O281  1  0.87870676  0.51637880  0.26289135  1
  O  O282  1  0.87327233  0.51212507  0.75829950  1
  O  O283  1  0.11890285  0.36517240  0.38341821  1
  O  O284  1  0.13492711  0.36731157  0.88933196  1
  O  O285  1  0.12111376  0.86856831  0.37115900  1
  O  O286  1  0.12000315  0.86591190  0.88585486  1
  O  O287  1  0.61817798  0.37024480  0.36673116  1
  O  O288  1  0.62687046  0.37659595  0.85356185  1
  O  O289  1  0.62047732  0.87906488  0.36333490  1
  O  O290  1  0.63069825  0.86686068  0.87912638  1
  O  O291  1  0.38135256  0.12800286  0.12790765  1
  O  O292  1  0.36307115  0.14107593  0.62721480  1
  O  O293  1  0.38705394  0.62793184  0.13158948  1
  O  O294  1  0.38019941  0.63088009  0.63121438  1
  O  O295  1  0.89702342  0.10941806  0.13691412  1
  O  O296  1  0.88029931  0.13052367  0.63164985  1
  O  O297  1  0.88114364  0.63257570  0.14419595  1
  O  O298  1  0.87790935  0.63176588  0.63480769  1
  O  O299  1  0.25373036  0.26423467  0.13004694  1
  O  O300  1  0.25559654  0.26158396  0.62548705  1
  O  O301  1  0.26587641  0.74636879  0.12631253  1
  O  O302  1  0.24573718  0.76388609  0.62388253  1
  O  O303  1  0.76291022  0.21815584  0.11453362  1
  O  O304  1  0.75342809  0.25822768  0.62022610  1
  O  O305  1  0.75652183  0.73763558  0.10825747  1
  O  O306  1  0.75976580  0.75862991  0.61800374  1
  O  O307  1  0.24377335  0.25030756  0.37939278  1
  O  O308  1  0.25449771  0.24468471  0.87229265  1
  O  O309  1  0.23189170  0.74631530  0.36774878  1
  O  O310  1  0.22847078  0.74866898  0.88645246  1
  O  O311  1  0.74556375  0.24598899  0.38202893  1
  O  O312  1  0.74447641  0.23606954  0.87238009  1
  O  O313  1  0.75260422  0.75687417  0.38622352  1
  O  O314  1  0.74841522  0.74664020  0.88829747  1
  O  O315  1  0.01037606  0.12012342  0.01110457  1
  O  O316  1  0.00333500  0.12337976  0.50706434  1
  O  O317  1  0.00603558  0.61559742  0.01586362  1
  O  O318  1  0.00834812  0.62347033  0.51129599  1
  O  O319  1  0.49908786  0.11621384  0.00683776  1
  O  O320  1  0.51254028  0.11755101  0.49341473  1
  O  O321  1  0.50335159  0.61896905  0.00341260  1
  O  O322  1  0.51257378  0.61582782  0.49735902  1
  O  O323  1  0.49689940  0.38165742  0.49056163  1
  O  O324  1  0.48944004  0.38558539  1.00325148  1
  O  O325  1  0.51002885  0.88698443  0.48298591  1
  O  O326  1  0.48628029  0.88233958  1.00507356  1
  O  O327  1  0.99440356  0.37543168  0.49284605  1
  O  O328  1  1.00541924  0.38842473  0.99642146  1
  O  O329  1  1.00134945  0.88265857  0.48804091  1
  O  O330  1  0.98702030  0.89600417  1.05359252  1
  O  O331  1  0.49571287  0.49191977  0.38464253  1
  O  O332  1  0.48986443  0.50521666  0.88343677  1
  O  O333  1  0.49605699  0.99806989  0.38082059  1
  O  O334  1  0.48489506  1.00591610  0.88786136  1
  O  O335  1  0.99384769  0.49160022  0.37999476  1
  O  O336  1  0.99270361  0.49663892  0.88368877  1
  O  O337  1  0.99738947  0.99533199  0.37758949  1
  O  O338  1  0.98006083  1.00733557  0.87694988  1
  O  O339  1  0.02422765  0.01700554  0.14889552  1
  O  O340  1  -0.00183011  0.01325013  0.61732029  1
  O  O341  1  0.00809330  0.50456479  0.12270200  1
  O  O342  1  -0.00539086  0.51480870  0.62767418  1
  O  O343  1  0.50285750  0.00677119  0.11433836  1
  O  O344  1  0.51477266  -0.00280297  0.60894433  1
  O  O345  1  0.50351912  0.50644092  0.11286377  1
  O  O346  1  0.50741513  0.49329041  0.61213706  1
  O  O347  1  0.25704788  0.38733917  0.23880282  1
  O  O348  1  0.25357292  0.38622137  0.74000292  1
  O  O349  1  0.24144308  0.88023168  0.25321554  1
  O  O350  1  0.23913487  0.88180377  0.74447059  1
  O  O351  1  0.74047066  0.37002196  0.25129385  1
  O  O352  1  0.74328599  0.37473785  0.73824587  1
  O  O353  1  0.74251458  0.89038855  0.25467942  1
  O  O354  1  0.75602072  0.87273566  0.73223708  1
  O  O355  1  0.25547674  0.12177854  0.25765244  1
  O  O356  1  0.24683912  0.11991707  0.76350912  1
  O  O357  1  0.26313184  0.60920358  0.24246817  1
  O  O358  1  0.26030635  0.61536125  0.73880205  1
  O  O359  1  0.75324148  0.11494313  0.25767508  1
  O  O360  1  0.76269881  0.13197131  0.75210773  1
  O  O361  1  0.76218121  0.62959994  0.25199261  1
  O  O362  1  0.75704962  0.62544409  0.76229460  1
  O  O363  1  0.37112637  0.11979621  0.36866512  1
  O  O364  1  0.36382678  0.11307267  0.87562409  1
  O  O365  1  0.38737462  0.61476791  0.35936977  1
  O  O366  1  0.37305852  0.61951502  0.87407675  1
  O  O367  1  0.87164789  0.12051220  0.36867074  1
  O  O368  1  0.86767335  0.12247339  0.86032090  1
  O  O369  1  0.88106653  0.61923287  0.36684525  1
  O  O370  1  0.86915320  0.62155054  0.87137566  1
  O  O371  1  0.13254532  0.38874256  0.12168363  1
  O  O372  1  0.13982989  0.37223328  0.62241706  1
  O  O373  1  0.13226450  0.88233228  0.13643115  1
  O  O374  1  0.13142506  0.87974904  0.62628004  1
  O  O375  1  0.61795787  0.36960136  0.14254789  1
  O  O376  1  0.62994793  0.38519453  0.63096005  1
  O  O377  1  0.61751339  0.88737112  0.13165585  1
  O  O378  1  0.64107803  0.88320651  0.62240653  1
  O  O379  1  0.11431353  0.24812880  0.26002928  1
  O  O380  1  0.10733404  0.24372340  0.74553489  1
  O  O381  1  0.12314712  0.75599295  0.25398289  1
  O  O382  1  0.12329174  0.74917038  0.77200802  1
  O  O383  1  0.62247283  0.25860730  0.25751481  1
  O  O384  1  0.60907218  0.25616002  0.74325034  1
  O  O385  1  0.62763524  0.76729614  0.24663300  1
  O  O386  1  0.63875442  0.75151284  0.76976187  1
  O  O387  1  0.37563956  0.24257996  0.24098633  1
  O  O388  1  0.38833648  0.24712848  0.74361381  1
  O  O389  1  0.37988092  0.73907598  0.24743780  1
  O  O390  1  0.36801571  0.74194267  0.75323357  1
  O  O391  1  0.88797992  0.24353355  0.25149005  1
  O  O392  1  0.88294826  0.24174748  0.74300755  1
  O  O393  1  0.88051353  0.73655522  0.25218781  1
  O  O394  1  0.87271952  0.74049306  0.74538524  1
  O  O395  1  0.38234013  0.49799449  0.49794674  1
  O  O396  1  0.37793588  0.49663180  0.99083448  1
  O  O397  1  0.38654554  1.00969715  0.49052448  1
  O  O398  1  0.37947379  0.99154918  0.99600423  1
  O  O399  1  0.87817100  0.49521567  0.49629704  1
  O  O400  1  0.88445683  0.50543813  0.99068416  1
  O  O401  1  0.88435797  1.00082443  0.48918236  1
  O  O402  1  0.86964982  1.01562602  0.98604181  1
  O  O403  1  0.12325793  0.00568794  0.01134421  1
  O  O404  1  0.11557424  0.01019202  0.49682918  1
  O  O405  1  0.11797843  0.51116750  0.01033988  1
  O  O406  1  0.12328410  0.51479767  0.49927163  1
  O  O407  1  0.61558643  0.00020497  0.00485545  1
  O  O408  1  0.62228267  0.00919627  0.50117437  1
  O  O409  1  0.61249231  0.50905856  -0.00648721  1
  O  O410  1  0.61946985  0.50625670  0.50566819  1
  O  O411  1  0.36552090  0.37410059  0.11068669  1
  O  O412  1  0.36800031  0.36583012  0.62034527  1
  O  O413  1  0.37622989  0.86530249  0.12329453  1
  O  O414  1  0.35180544  0.88324538  0.62644835  1
  O  O415  1  0.88306746  0.38115124  0.12588482  1
  O  O416  1  0.86664172  0.37370097  0.62225968  1
  O  O417  1  0.86327444  0.85460058  0.15382749  1
  O  O418  1  0.86822609  0.86893294  0.61937652  1
  O  O419  1  0.13141936  0.13748462  0.37955416  1
  O  O420  1  0.12903092  0.12137013  0.88984042  1
  O  O421  1  0.11697527  0.63127217  0.39268420  1
  O  O422  1  0.12001355  0.62392216  0.89692427  1
  O  O423  1  0.63122216  0.13062467  0.38126182  1
  O  O424  1  0.63474212  0.12456908  0.86064286  1
  O  O425  1  0.62618614  0.62338234  0.38376547  1
  O  O426  1  0.63132501  0.63128564  0.88158345  1
