# generated using pymatgen
data_V85Zn86O256
_symmetry_space_group_name_H-M   'P 1'
_cell_length_a   16.94744543
_cell_length_b   16.95596189
_cell_length_c   16.94418759
_cell_angle_alpha   90.00386588
_cell_angle_beta   89.94713499
_cell_angle_gamma   90.01331198
_symmetry_Int_Tables_number   1
_chemical_formula_structural   V85Zn86O256
_chemical_formula_sum   'V85 Zn86 O256'
_cell_volume   4869.08357870
_cell_formula_units_Z   1
loop_
 _symmetry_equiv_pos_site_id
 _symmetry_equiv_pos_as_xyz
  1  'x, y, z'
loop_
 _atom_site_type_symbol
 _atom_site_label
 _atom_site_symmetry_multiplicity
 _atom_site_fract_x
 _atom_site_fract_y
 _atom_site_fract_z
 _atom_site_occupancy
  V  V0  1  0.74769352  0.25311260  -0.00367002  1
  V  V1  1  0.37981327  0.00105724  0.37229704  1
  V  V2  1  0.12767550  0.25578647  0.38056177  1
  V  V3  1  0.55570385  0.45793775  0.55518239  1
  V  V4  1  0.12784981  0.00963339  0.11957898  1
  V  V5  1  0.00062811  0.12560451  0.62594635  1
  V  V6  1  0.87772356  0.25118292  0.12385766  1
  V  V7  1  0.74305090  0.12438735  0.37445983  1
  V  V8  1  0.48819978  0.37093683  0.87713355  1
  V  V9  1  0.62435043  0.75365771  0.37699263  1
  V  V10  1  0.75071119  -0.00138953  0.23965751  1
  V  V11  1  0.12305443  0.37707679  0.25222584  1
  V  V12  1  0.37366909  0.74993704  0.62555506  1
  V  V13  1  0.87098135  -0.00925395  0.88370384  1
  V  V14  1  0.25582502  0.00524441  0.25181041  1
  V  V15  1  0.25788834  0.36731695  0.10968570  1
  V  V16  1  0.87226598  0.11764541  0.75002714  1
  V  V17  1  0.38035947  0.74576258  0.12271477  1
  V  V18  1  0.00089559  0.50870003  -0.00343548  1
  V  V19  1  0.38216788  -0.00047982  0.87358350  1
  V  V20  1  0.74500791  0.25057097  0.50004349  1
  V  V21  1  0.24536384  0.36789266  0.61973119  1
  V  V22  1  -0.00181338  0.25423440  0.25626359  1
  V  V23  1  0.00126135  -0.00045565  0.49973124  1
  V  V24  1  0.51064679  0.12191537  0.13760713  1
  V  V25  1  0.12732067  0.12789127  0.49968284  1
  V  V26  1  0.12103971  -0.00616201  0.63150057  1
  V  V27  1  0.25143915  0.49881593  0.24865069  1
  V  V28  1  0.62713437  0.87581063  0.23814259  1
  V  V29  1  0.50215702  0.74610137  0.24643439  1
  V  V30  1  0.00048046  0.75150708  0.24843729  1
  V  V31  1  0.49813714  0.62528473  0.62541555  1
  V  V32  1  0.49258835  0.49446986  0.00127203  1
  V  V33  1  0.75018093  0.75270564  -0.00276375  1
  V  V34  1  0.62456198  0.62695062  0.50725551  1
  V  V35  1  0.75052554  0.12628872  0.86927020  1
  V  V36  1  -0.00031663  0.37639697  0.87369086  1
  V  V37  1  0.24372275  0.62142036  0.87757755  1
  V  V38  1  0.87635908  0.62811081  0.24826724  1
  V  V39  1  0.12681219  0.50477191  0.11966238  1
  V  V40  1  0.74735757  0.50378823  0.24632220  1
  V  V41  1  0.00224639  0.62825892  0.12022641  1
  V  V42  1  0.61572659  0.50193373  0.12815085  1
  V  V43  1  0.24093001  0.74584218  -0.00010206  1
  V  V44  1  0.88206989  0.49393711  0.37131894  1
  V  V45  1  0.87459138  0.76133268  0.11943243  1
  V  V46  1  0.75204081  0.75903474  0.50523731  1
  V  V47  1  0.12551009  0.24554978  0.88780226  1
  V  V48  1  0.00053537  0.87603289  0.37721127  1
  V  V49  1  0.12702855  0.87657853  0.25096443  1
  V  V50  1  -0.00030774  0.25050778  0.75168787  1
  V  V51  1  0.25425661  0.13112185  0.37561253  1
  V  V52  1  0.87196289  0.75469028  0.63723502  1
  V  V53  1  0.37849419  0.62560765  0.24970613  1
  V  V54  1  0.24796060  0.12645603  0.88861964  1
  V  V55  1  0.87814737  0.37244816  0.49185640  1
  V  V56  1  0.61156011  0.74978362  0.87292215  1
  V  V57  1  0.75210263  0.61904330  0.86858856  1
  V  V58  1  0.61867106  0.62086269  0.00192288  1
  V  V59  1  0.25180599  0.87399041  0.12620381  1
  V  V60  1  0.61999171  0.25330026  0.87075018  1
  V  V61  1  0.24374659  0.87049935  0.62932791  1
  V  V62  1  0.64757180  0.00119458  0.63083240  1
  V  V63  1  0.51191554  0.00032567  0.00041164  1
  V  V64  1  0.38119782  0.87342170  -0.00599315  1
  V  V65  1  0.87172604  0.25734548  0.62621134  1
  V  V66  1  0.87508690  0.00046338  0.37414598  1
  V  V67  1  0.12493146  0.74891216  0.37722879  1
  V  V68  1  0.25084497  0.62438971  0.37768020  1
  V  V69  1  0.49730721  0.00388409  0.51637701  1
  V  V70  1  0.38477140  0.50097192  0.37895369  1
  V  V71  1  0.24748577  0.49932061  0.74383726  1
  V  V72  1  0.50755545  0.36604006  0.37016373  1
  V  V73  1  -0.00557570  0.61793532  0.63395209  1
  V  V74  1  0.24673924  0.00096192  0.75121715  1
  V  V75  1  0.87436760  0.38015335  -0.00391169  1
  V  V76  1  0.74643617  0.37863007  0.12241958  1
  V  V77  1  0.12318369  0.37630470  0.74377274  1
  V  V78  1  0.38039803  0.23598215  0.12411809  1
  V  V79  1  0.75167920  0.62704023  0.37595850  1
  V  V80  1  0.01438537  0.87703867  0.87628522  1
  V  V81  1  0.36954551  0.37135434  0.49787110  1
  V  V82  1  0.12087097  0.61779045  0.50521523  1
  V  V83  1  0.49249471  0.24468256  0.73855101  1
  V  V84  1  0.74694000  0.49206724  0.73067906  1
  Zn  Zn85  1  0.00172106  0.49546572  0.49981433  1
  Zn  Zn86  1  0.62632244  0.12118195  0.00024572  1
  Zn  Zn87  1  0.62039427  0.12435313  0.50078929  1
  Zn  Zn88  1  0.61478700  0.35231896  0.24647450  1
  Zn  Zn89  1  -0.00006982  0.00529981  0.00114291  1
  Zn  Zn90  1  0.36783840  0.23909140  0.61071023  1
  Zn  Zn91  1  0.00630731  0.75624780  0.74982617  1
  Zn  Zn92  1  0.37393174  0.87422064  0.50006047  1
  Zn  Zn93  1  0.24900125  0.74910543  0.50168753  1
  Zn  Zn94  1  0.62087682  0.37764503  0.73425356  1
  Zn  Zn95  1  0.62157525  0.88044524  0.74374456  1
  Zn  Zn96  1  0.36967206  0.49589339  0.87848174  1
  Zn  Zn97  1  0.49452279  0.75569381  0.75364102  1
  Zn  Zn98  1  0.87101802  0.87844681  0.50725407  1
  Zn  Zn99  1  0.12696454  0.74874707  0.86879850  1
  Zn  Zn100  1  0.75007460  0.88573559  0.10858997  1
  Zn  Zn101  1  0.87853104  0.12478596  0.24759237  1
  Zn  Zn102  1  0.37484476  0.62120737  0.75136754  1
  Zn  Zn103  1  0.37509452  0.12177302  0.74162133  1
  Zn  Zn104  1  0.01092149  0.13535579  0.11839584  1
  Zn  Zn105  1  0.49795382  0.87509124  0.37615750  1
  Zn  Zn106  1  0.87615375  0.50569240  0.86644585  1
  Zn  Zn107  1  0.19389235  0.19248418  0.19145603  1
  Zn  Zn108  1  0.18811551  0.18563904  0.69155391  1
  Zn  Zn109  1  0.18955601  0.68657942  0.18801118  1
  Zn  Zn110  1  0.18143741  0.68574764  0.69054321  1
  Zn  Zn111  1  0.68907562  0.18574874  0.18775221  1
  Zn  Zn112  1  0.68249652  0.18451317  0.68430294  1
  Zn  Zn113  1  0.68732272  0.68779995  0.18259807  1
  Zn  Zn114  1  0.68823617  0.68543769  0.69042736  1
  Zn  Zn115  1  0.31461344  0.31289846  0.30668898  1
  Zn  Zn116  1  0.30884290  0.30928507  0.81347773  1
  Zn  Zn117  1  0.31325179  0.81364075  0.31376172  1
  Zn  Zn118  1  0.31047159  0.81215614  0.81053131  1
  Zn  Zn119  1  0.78977009  0.30548982  0.30390822  1
  Zn  Zn120  1  0.80996509  0.31891043  0.80785500  1
  Zn  Zn121  1  0.81201143  0.81579119  0.31226664  1
  Zn  Zn122  1  0.80105731  0.81287161  0.80892330  1
  Zn  Zn123  1  0.19057739  0.43948398  0.43641186  1
  Zn  Zn124  1  0.18207439  0.43796874  0.93399086  1
  Zn  Zn125  1  0.18956400  0.93875736  0.44149617  1
  Zn  Zn126  1  0.19510205  0.93710648  0.94022624  1
  Zn  Zn127  1  0.69630512  0.43449975  0.43356900  1
  Zn  Zn128  1  0.67990672  0.43683432  0.93339943  1
  Zn  Zn129  1  0.68281310  0.93982545  0.43751362  1
  Zn  Zn130  1  0.69259612  0.92454887  0.90491020  1
  Zn  Zn131  1  0.31917715  0.06103916  0.06340368  1
  Zn  Zn132  1  0.31053725  0.06028690  0.55997803  1
  Zn  Zn133  1  0.31176715  0.56427106  0.06338726  1
  Zn  Zn134  1  0.31126805  0.55766441  0.56302285  1
  Zn  Zn135  1  0.81411131  0.06970045  0.05780685  1
  Zn  Zn136  1  0.81496050  0.06650217  0.56108118  1
  Zn  Zn137  1  0.81182055  0.56882445  0.05932361  1
  Zn  Zn138  1  0.81701098  0.56715670  0.55968539  1
  Zn  Zn139  1  0.43551550  0.43238523  0.19013861  1
  Zn  Zn140  1  0.42770852  0.42848585  0.69214172  1
  Zn  Zn141  1  0.44072482  0.93644757  0.18477871  1
  Zn  Zn142  1  0.43670449  0.93039393  0.69339404  1
  Zn  Zn143  1  0.93811018  0.43728343  0.18593954  1
  Zn  Zn144  1  0.93001678  0.43913242  0.68755562  1
  Zn  Zn145  1  0.94045526  0.93944937  0.18718335  1
  Zn  Zn146  1  0.93450286  0.93571920  0.69306953  1
  Zn  Zn147  1  0.06431345  0.06804379  0.30740357  1
  Zn  Zn148  1  0.06122637  0.06319325  0.81591676  1
  Zn  Zn149  1  0.06254560  0.56390580  0.31130080  1
  Zn  Zn150  1  0.06647726  0.56386524  0.81050793  1
  Zn  Zn151  1  0.56655831  0.05723374  0.31247653  1
  Zn  Zn152  1  0.56301650  0.06498317  0.80969741  1
  Zn  Zn153  1  0.56373694  0.56454220  0.31558682  1
  Zn  Zn154  1  0.56429385  0.55846571  0.81092360  1
  Zn  Zn155  1  0.43769593  0.18442121  0.43292103  1
  Zn  Zn156  1  0.43319694  0.18598680  0.94440247  1
  Zn  Zn157  1  0.44038340  0.68702200  0.44243245  1
  Zn  Zn158  1  0.43099813  0.67626784  0.94000415  1
  Zn  Zn159  1  0.93704108  0.18680411  0.43542133  1
  Zn  Zn160  1  0.94058268  0.18446298  0.94021747  1
  Zn  Zn161  1  0.93649888  0.68755347  0.44137160  1
  Zn  Zn162  1  0.93527610  0.69217313  0.93496567  1
  Zn  Zn163  1  0.06228293  0.32122177  0.06452678  1
  Zn  Zn164  1  0.05795625  0.31410786  0.56173868  1
  Zn  Zn165  1  0.06041050  0.82285921  0.05848365  1
  Zn  Zn166  1  0.05932347  0.80824610  0.56420364  1
  Zn  Zn167  1  0.55860331  0.30906880  0.06177766  1
  Zn  Zn168  1  0.55441893  0.29530951  0.55267701  1
  Zn  Zn169  1  0.56262965  0.81051410  0.05777141  1
  Zn  Zn170  1  0.56048028  0.82035622  0.56721813  1
  O  O171  1  0.13165088  0.11245156  0.13227407  1
  O  O172  1  0.11970404  0.11915675  0.61960854  1
  O  O173  1  0.11979011  0.61252513  0.13060598  1
  O  O174  1  0.10759089  0.62959964  0.61547758  1
  O  O175  1  0.61581007  0.12811479  0.12126132  1
  O  O176  1  0.62983520  0.10922960  0.61702331  1
  O  O177  1  0.62769500  0.61435490  0.11516010  1
  O  O178  1  0.61841995  0.63097831  0.61407969  1
  O  O179  1  0.38347893  0.38203201  0.37781102  1
  O  O180  1  0.38438631  0.37343196  0.87444968  1
  O  O181  1  0.37396116  0.88549984  0.37882223  1
  O  O182  1  0.36819120  0.88435474  0.88424462  1
  O  O183  1  0.86486599  0.38406189  0.37819565  1
  O  O184  1  0.88177425  0.37791638  0.88049256  1
  O  O185  1  0.88115031  0.88600097  0.37662366  1
  O  O186  1  0.87179041  0.89082508  0.87342483  1
  O  O187  1  0.25684545  0.00529213  0.36897338  1
  O  O188  1  0.25483030  0.00738916  0.86960851  1
  O  O189  1  0.26023780  0.50567964  0.36696940  1
  O  O190  1  0.24932150  0.50437842  0.86935575  1
  O  O191  1  0.75855716  0.00431996  0.37018071  1
  O  O192  1  0.76172415  0.01708977  0.88306315  1
  O  O193  1  0.75677947  0.50810015  0.36429985  1
  O  O194  1  0.74944543  0.51153149  0.87875287  1
  O  O195  1  0.24282193  0.49578024  0.12864138  1
  O  O196  1  0.25108906  0.48614520  0.63420439  1
  O  O197  1  0.24583504  0.99665976  0.13312636  1
  O  O198  1  0.23966470  0.99248963  0.63185563  1
  O  O199  1  0.74022902  0.50045948  0.12771272  1
  O  O200  1  0.75105909  0.50652617  0.63252481  1
  O  O201  1  0.75890182  1.00099876  0.13449385  1
  O  O202  1  0.74725086  0.99905443  0.62419552  1
  O  O203  1  0.01428360  0.37117177  0.24445538  1
  O  O204  1  0.00460115  0.37256393  0.75302353  1
  O  O205  1  0.00700509  0.87037517  0.25715307  1
  O  O206  1  -0.00836991  0.87534139  0.77145663  1
  O  O207  1  0.50292136  0.37551743  0.26375699  1
  O  O208  1  0.50053286  0.36303184  0.75724732  1
  O  O209  1  0.50893682  0.86447783  0.25067316  1
  O  O210  1  0.50784555  0.86844325  0.75031302  1
  O  O211  1  0.50759688  0.11967785  0.23688294  1
  O  O212  1  0.49555802  0.14230073  0.75597208  1
  O  O213  1  0.49562642  0.63847562  0.25545130  1
  O  O214  1  0.49963369  0.62231425  0.73547164  1
  O  O215  1  0.99844819  0.13857347  0.24163966  1
  O  O216  1  0.99179801  0.13112800  0.74678291  1
  O  O217  1  0.99671564  0.63371918  0.24205604  1
  O  O218  1  1.00048955  0.62493467  0.73688107  1
  O  O219  1  0.37863880  0.25195671  0.02151703  1
  O  O220  1  0.38188683  0.26608452  0.49424483  1
  O  O221  1  0.37239927  0.75454978  0.00671820  1
  O  O222  1  0.37181418  0.75084496  0.51182255  1
  O  O223  1  0.86904868  0.26032633  0.00333497  1
  O  O224  1  0.87248398  0.25400754  0.50691113  1
  O  O225  1  0.86351485  0.74485325  0.00849742  1
  O  O226  1  0.86624346  0.75338823  0.50831299  1
  O  O227  1  0.11729110  0.24754364  0.48628201  1
  O  O228  1  0.11835275  0.25824578  0.98655427  1
  O  O229  1  0.12374295  0.73933043  0.49170286  1
  O  O230  1  0.13896417  0.75814146  0.99907697  1
  O  O231  1  0.64071873  0.24521608  0.49944516  1
  O  O232  1  0.63336054  0.25019781  0.99059160  1
  O  O233  1  0.62897682  0.74635999  0.49498264  1
  O  O234  1  0.62806545  0.73581492  0.99650464  1
  O  O235  1  0.49442780  0.23355858  0.12387452  1
  O  O236  1  0.49206767  0.24956208  0.63512940  1
  O  O237  1  0.49213805  0.75200554  0.13322312  1
  O  O238  1  0.49135049  0.74237020  0.62465138  1
  O  O239  1  0.99354327  0.25646678  0.13350362  1
  O  O240  1  0.99249123  0.24376981  0.63117925  1
  O  O241  1  0.99495648  0.74898771  0.12581849  1
  O  O242  1  0.98688095  0.74305362  0.62798228  1
  O  O243  1  0.00720093  0.24729317  0.36227060  1
  O  O244  1  0.00453540  0.25581011  0.86900444  1
  O  O245  1  0.00444390  0.75577773  0.37006948  1
  O  O246  1  0.00202486  0.76552212  0.87859848  1
  O  O247  1  0.50223241  0.26712812  0.38105326  1
  O  O248  1  0.50440380  0.25377981  0.87252583  1
  O  O249  1  0.50824622  0.75241437  0.36997407  1
  O  O250  1  0.50948231  0.72792269  0.87219274  1
  O  O251  1  0.23940735  0.11821654  0.48513262  1
  O  O252  1  0.25179965  0.11799674  0.98722640  1
  O  O253  1  0.24019242  0.62463497  0.49593133  1
  O  O254  1  0.25423386  0.63494926  0.99302114  1
  O  O255  1  0.75146367  0.13240065  0.49179471  1
  O  O256  1  0.74778457  0.13766365  0.98993837  1
  O  O257  1  0.74332513  0.63544118  0.49525275  1
  O  O258  1  0.73925726  0.63079808  0.99250286  1
  O  O259  1  0.24367353  0.37890257  0.01215635  1
  O  O260  1  0.25557121  0.37713945  0.50741685  1
  O  O261  1  0.26258613  0.86788099  0.00696446  1
  O  O262  1  0.25017641  0.87338071  0.51531628  1
  O  O263  1  0.75337863  0.37193748  0.00214525  1
  O  O264  1  0.75933372  0.35846459  0.49470851  1
  O  O265  1  0.74107510  0.85722829  -0.00515224  1
  O  O266  1  0.74897519  0.86156910  0.49360184  1
  O  O267  1  0.12910026  0.49443570  0.24408384  1
  O  O268  1  0.13459911  0.48772899  0.75421444  1
  O  O269  1  0.13661699  0.99520399  0.24566242  1
  O  O270  1  0.12887979  1.00461470  0.73885355  1
  O  O271  1  0.63301431  0.50462091  0.24279237  1
  O  O272  1  0.63985432  0.49473640  0.75190496  1
  O  O273  1  0.63754714  0.98666423  0.25424109  1
  O  O274  1  0.62298619  1.00680633  0.73284569  1
  O  O275  1  0.36299271  -0.00774780  0.25507564  1
  O  O276  1  0.36629449  0.00002734  0.75885909  1
  O  O277  1  0.37152922  0.50668918  0.25558806  1
  O  O278  1  0.36005496  0.49748800  0.75426932  1
  O  O279  1  0.86958484  -0.00028139  0.25702713  1
  O  O280  1  0.87626102  0.01374869  0.75903777  1
  O  O281  1  0.87172243  0.50948750  0.25230195  1
  O  O282  1  0.85436914  0.49494599  0.75229700  1
  O  O283  1  0.13181068  0.36806376  0.36571245  1
  O  O284  1  0.11866735  0.36700336  0.86427688  1
  O  O285  1  0.12171312  0.86958678  0.37159662  1
  O  O286  1  0.11648217  0.88076943  0.87648775  1
  O  O287  1  0.60958814  0.38609710  0.37409589  1
  O  O288  1  0.61653249  0.36215350  0.87097641  1
  O  O289  1  0.62602522  0.86271952  0.36672481  1
  O  O290  1  0.60378978  0.84644333  0.89599582  1
  O  O291  1  0.38432038  0.12975433  0.12831299  1
  O  O292  1  0.36156788  0.12894733  0.62859278  1
  O  O293  1  0.37021564  0.63852547  0.13283331  1
  O  O294  1  0.38107921  0.63051731  0.62404998  1
  O  O295  1  0.87370073  0.14327995  0.12554727  1
  O  O296  1  0.88125392  0.13263390  0.63281675  1
  O  O297  1  0.88261905  0.63444989  0.13005020  1
  O  O298  1  0.88748179  0.63762390  0.61939297  1
  O  O299  1  0.25719353  0.26047451  0.12367696  1
  O  O300  1  0.24725418  0.26360386  0.63031695  1
  O  O301  1  0.25649581  0.75386485  0.11898309  1
  O  O302  1  0.25379671  0.75575010  0.62540502  1
  O  O303  1  0.75709373  0.25625681  0.10966556  1
  O  O304  1  0.75889143  0.24147902  0.61013856  1
  O  O305  1  0.75890614  0.74993282  0.11556115  1
  O  O306  1  0.76253538  0.74252163  0.61992344  1
  O  O307  1  0.24187454  0.24247776  0.36725890  1
  O  O308  1  0.24208363  0.23451374  0.87135408  1
  O  O309  1  0.24350331  0.74284037  0.37663146  1
  O  O310  1  0.25113334  0.74292590  0.88393834  1
  O  O311  1  0.76812438  0.23460274  0.39316516  1
  O  O312  1  0.74436926  0.24947977  0.88069739  1
  O  O313  1  0.74413013  0.74502842  0.38065480  1
  O  O314  1  0.73825491  0.73482615  0.88047232  1
  O  O315  1  0.00037916  0.11992627  0.00696929  1
  O  O316  1  0.00596934  0.11920813  0.50524481  1
  O  O317  1  -0.00509453  0.61565529  0.00256138  1
  O  O318  1  0.00507010  0.62203241  0.50771818  1
  O  O319  1  0.50413449  0.11531778  0.00729155  1
  O  O320  1  0.50224238  0.10741515  0.49041784  1
  O  O321  1  0.51131899  0.61256945  -0.00276931  1
  O  O322  1  0.50957066  0.62255682  0.51180261  1
  O  O323  1  0.49653554  0.38466092  0.49387077  1
  O  O324  1  0.50645067  0.38234811  0.98967964  1
  O  O325  1  0.49718501  0.88990644  0.49639226  1
  O  O326  1  0.48678886  0.88298742  1.01065670  1
  O  O327  1  0.98435605  0.37724283  0.49964130  1
  O  O328  1  0.99405434  0.38778685  0.99470236  1
  O  O329  1  0.99958542  0.88133705  0.49206914  1
  O  O330  1  0.99971835  0.88563255  0.98430198  1
  O  O331  1  0.48854808  0.49649355  0.37180202  1
  O  O332  1  0.49864553  0.48894415  0.88199544  1
  O  O333  1  0.48836368  0.99680591  0.37141744  1
  O  O334  1  0.48708978  1.00942519  0.88083513  1
  O  O335  1  0.98502719  0.50497085  0.37390706  1
  O  O336  1  0.99815605  0.49771180  0.88051970  1
  O  O337  1  0.99557526  0.99669078  0.37661605  1
  O  O338  1  0.98909127  0.99374758  0.87527653  1
  O  O339  1  0.01854780  0.00021082  0.12849298  1
  O  O340  1  0.00417404  0.00367970  0.62283103  1
  O  O341  1  0.00680409  0.50573245  0.11724390  1
  O  O342  1  -0.01052487  0.51414412  0.62112751  1
  O  O343  1  0.49600764  0.01293578  0.11665472  1
  O  O344  1  0.49106623  0.00211749  0.61539741  1
  O  O345  1  0.50997947  0.49136920  0.12045150  1
  O  O346  1  0.49098106  0.50454415  0.62334790  1
  O  O347  1  0.23979352  0.38188149  0.24166347  1
  O  O348  1  0.24080975  0.37822620  0.74510568  1
  O  O349  1  0.24469688  0.88103154  0.24552863  1
  O  O350  1  0.25181944  0.88692618  0.73936266  1
  O  O351  1  0.76235142  0.39862602  0.23756854  1
  O  O352  1  0.74183176  0.38541395  0.74397140  1
  O  O353  1  0.74431641  0.88211073  0.24632288  1
  O  O354  1  0.72127106  0.88696037  0.79711433  1
  O  O355  1  0.24587425  0.11580789  0.26246068  1
  O  O356  1  0.24864254  0.11110262  0.75811241  1
  O  O357  1  0.25744489  0.61947627  0.25695725  1
  O  O358  1  0.24867075  0.61305677  0.75408336  1
  O  O359  1  0.75597095  0.11359246  0.25733872  1
  O  O360  1  0.75888879  0.13766123  0.76083780  1
  O  O361  1  0.75535418  0.61984205  0.25257755  1
  O  O362  1  0.74313968  0.61259364  0.76321181  1
  O  O363  1  0.36589375  0.11552053  0.37581649  1
  O  O364  1  0.36238617  0.11823040  0.87338587  1
  O  O365  1  0.37213859  0.61926308  0.37261662  1
  O  O366  1  0.36060301  0.61873727  0.87052210  1
  O  O367  1  0.87185496  0.11166610  0.37278210  1
  O  O368  1  0.86889021  0.12314842  0.86715872  1
  O  O369  1  0.86919147  0.62093310  0.36852338  1
  O  O370  1  0.85644047  0.62531762  0.87939318  1
  O  O371  1  0.13414087  0.38532975  0.13154178  1
  O  O372  1  0.12689239  0.37071463  0.63541324  1
  O  O373  1  0.13272951  0.88294891  0.13263453  1
  O  O374  1  0.12861682  0.88394808  0.62074997  1
  O  O375  1  0.62997302  0.38125859  0.12894450  1
  O  O376  1  0.60541013  0.38525218  0.61136351  1
  O  O377  1  0.63062670  0.86670852  0.13482219  1
  O  O378  1  0.62616524  0.89405264  0.62422361  1
  O  O379  1  0.11898541  0.25871485  0.25632211  1
  O  O380  1  0.11653333  0.25577468  0.75731060  1
  O  O381  1  0.12036461  0.75511902  0.25672413  1
  O  O382  1  0.12038397  0.75148309  0.75488395  1
  O  O383  1  0.68400452  0.26740241  0.26135219  1
  O  O384  1  0.61223893  0.25333654  0.75151443  1
  O  O385  1  0.62029604  0.75197302  0.25629251  1
  O  O386  1  0.62385679  0.74552197  0.76586049  1
  O  O387  1  0.37447270  0.26414681  0.22386872  1
  O  O388  1  0.38610732  0.25012585  0.75035331  1
  O  O389  1  0.38327712  0.74767993  0.24412601  1
  O  O390  1  0.37351685  0.74465758  0.73802731  1
  O  O391  1  0.88192470  0.25494344  0.24118101  1
  O  O392  1  0.87973340  0.24661428  0.74306006  1
  O  O393  1  0.88048978  0.74689065  0.24322319  1
  O  O394  1  0.87157754  0.75187839  0.74021781  1
  O  O395  1  0.36956679  0.48824522  0.48873982  1
  O  O396  1  0.38938444  0.50553404  1.00168708  1
  O  O397  1  0.38407866  0.99805291  0.49136822  1
  O  O398  1  0.38141206  0.99094858  0.99319698  1
  O  O399  1  0.86984581  0.49045933  0.48822770  1
  O  O400  1  0.88206710  0.49471810  1.00002627  1
  O  O401  1  0.88260568  0.99817142  0.49304383  1
  O  O402  1  0.87607130  1.00336483  0.98707592  1
  O  O403  1  0.13151694  -0.00512585  0.01842203  1
  O  O404  1  0.11903605  0.00633592  0.50962546  1
  O  O405  1  0.11389724  0.49635788  0.00879903  1
  O  O406  1  0.12030931  0.51339505  0.49013797  1
  O  O407  1  0.61254492  -0.00436081  -0.01532755  1
  O  O408  1  0.61364222  -0.00015406  0.50964537  1
  O  O409  1  0.61673194  0.50311903  0.00800374  1
  O  O410  1  0.62919676  0.50949540  0.49725732  1
  O  O411  1  0.35854956  0.38118560  0.12208039  1
  O  O412  1  0.36433877  0.36921151  0.61411294  1
  O  O413  1  0.36952672  0.86399398  0.12106100  1
  O  O414  1  0.36434415  0.86608638  0.62381280  1
  O  O415  1  0.86941192  0.36896176  0.11674130  1
  O  O416  1  0.87679429  0.36164969  0.61691137  1
  O  O417  1  0.87366436  0.86442993  0.12754214  1
  O  O418  1  0.87806619  0.86035995  0.62475944  1
  O  O419  1  0.13066763  0.13445145  0.37914923  1
  O  O420  1  0.13679669  0.13094991  0.87297204  1
  O  O421  1  0.12925525  0.63156212  0.37915039  1
  O  O422  1  0.13832605  0.62583252  0.87549792  1
  O  O423  1  0.63974514  0.11781273  0.37788906  1
  O  O424  1  0.63326678  0.13735303  0.87360442  1
  O  O425  1  0.62904205  0.63565416  0.38495061  1
  O  O426  1  0.63230585  0.62520625  0.88412251  1
