# generated using pymatgen
data_V85Zn86O256
_symmetry_space_group_name_H-M   'P 1'
_cell_length_a   17.03581695
_cell_length_b   17.00266009
_cell_length_c   17.03194979
_cell_angle_alpha   90.05537871
_cell_angle_beta   89.99080661
_cell_angle_gamma   89.85243128
_symmetry_Int_Tables_number   1
_chemical_formula_structural   V85Zn86O256
_chemical_formula_sum   'V85 Zn86 O256'
_cell_volume   4933.35714129
_cell_formula_units_Z   1
loop_
 _symmetry_equiv_pos_site_id
 _symmetry_equiv_pos_as_xyz
  1  'x, y, z'
loop_
 _atom_site_type_symbol
 _atom_site_label
 _atom_site_symmetry_multiplicity
 _atom_site_fract_x
 _atom_site_fract_y
 _atom_site_fract_z
 _atom_site_occupancy
  V  V0  1  0.49775948  -0.00025943  -0.00198913  1
  V  V1  1  0.12304758  0.62125473  0.50320633  1
  V  V2  1  0.12466136  0.61605848  -0.00234088  1
  V  V3  1  0.50056545  0.86123049  0.37639986  1
  V  V4  1  0.30261956  0.16494564  0.82377424  1
  V  V5  1  0.74608236  0.00183378  0.75150995  1
  V  V6  1  0.74954765  0.51807109  0.23875140  1
  V  V7  1  0.38092585  0.75116000  0.12600996  1
  V  V8  1  0.75038278  0.00022459  0.25638914  1
  V  V9  1  0.24864101  0.50296163  0.74652511  1
  V  V10  1  0.75102805  0.74563234  0.49949608  1
  V  V11  1  0.11506911  0.37684701  0.75327342  1
  V  V12  1  0.25872378  -0.00709985  0.76381985  1
  V  V13  1  0.25093312  0.62527386  0.87378630  1
  V  V14  1  0.75397759  0.12656714  0.88255526  1
  V  V15  1  0.24779984  0.74785910  -0.00129719  1
  V  V16  1  0.50192868  0.12491693  0.13068436  1
  V  V17  1  0.87776816  0.74891487  0.12720605  1
  V  V18  1  0.49910522  0.27386859  0.25006242  1
  V  V19  1  0.87160253  -0.00013592  0.38180961  1
  V  V20  1  0.12630070  0.12293836  -0.00409524  1
  V  V21  1  0.62634411  0.86278122  0.75096714  1
  V  V22  1  0.24561993  0.50039988  0.24497598  1
  V  V23  1  0.86533204  0.25169082  0.12110111  1
  V  V24  1  0.10912291  0.25013324  0.87543974  1
  V  V25  1  0.24458279  0.12029795  0.37376845  1
  V  V26  1  0.12152788  0.87490622  0.25044846  1
  V  V27  1  0.62328830  0.24310396  0.86573646  1
  V  V28  1  0.87002159  0.51474473  0.36710320  1
  V  V29  1  0.87272030  0.74719097  0.62000675  1
  V  V30  1  0.87614983  0.12129734  0.73592366  1
  V  V31  1  0.24847343  0.24758616  -0.00096250  1
  V  V32  1  0.50021141  0.00422440  0.50709044  1
  V  V33  1  0.89486805  0.50300342  0.88171748  1
  V  V34  1  0.11650896  0.12065384  0.51144782  1
  V  V35  1  0.62706376  0.13593775  0.49493759  1
  V  V36  1  0.87244385  0.87226613  -0.00011388  1
  V  V37  1  -0.00043702  0.13068290  0.13064378  1
  V  V38  1  -0.00358669  0.74286232  0.25219971  1
  V  V39  1  0.63132832  0.73806125  0.37387258  1
  V  V40  1  0.12067080  0.24541429  0.37500015  1
  V  V41  1  0.75117288  0.87413221  0.12641843  1
  V  V42  1  0.11949803  0.88452165  0.74515507  1
  V  V43  1  0.37604463  0.75151886  0.62540395  1
  V  V44  1  0.25036214  0.75045818  0.50306869  1
  V  V45  1  -0.00117005  0.37373348  0.37327268  1
  V  V46  1  0.62414047  0.62022460  0.51056738  1
  V  V47  1  0.24866931  0.87500622  0.12433024  1
  V  V48  1  0.62546428  0.00064729  0.12855176  1
  V  V49  1  0.37332289  0.87822763  -0.00972963  1
  V  V50  1  0.25495688  0.36348286  0.62447595  1
  V  V51  1  0.74878007  0.63124969  0.87972457  1
  V  V52  1  0.12199999  0.75073144  0.37698977  1
  V  V53  1  -0.00043577  0.74828765  0.74155713  1
  V  V54  1  0.89268548  0.37397097  -0.00091347  1
  V  V55  1  0.50237199  0.36425416  0.86152222  1
  V  V56  1  0.38243131  0.37791716  -0.00014734  1
  V  V57  1  0.63167207  0.13286426  0.00782565  1
  V  V58  1  -0.00503045  0.50314199  0.50179691  1
  V  V59  1  0.62113691  0.86672216  0.25200052  1
  V  V60  1  0.86428090  0.36383703  0.49558979  1
  V  V61  1  0.00234288  0.62066190  0.12267795  1
  V  V62  1  -0.00787211  0.87536431  0.38001602  1
  V  V63  1  0.24792144  0.37684055  0.12298023  1
  V  V64  1  0.87750236  0.62145131  0.74619346  1
  V  V65  1  0.37775877  -0.00642202  0.37391692  1
  V  V66  1  0.24446706  0.88114850  0.62323219  1
  V  V67  1  0.81598373  0.30309912  0.67460009  1
  V  V68  1  -0.00118577  0.87325991  0.87567742  1
  V  V69  1  0.87599676  0.13552666  0.25333276  1
  V  V70  1  0.38222450  0.62478025  0.74881379  1
  V  V71  1  0.24977572  0.62445078  0.37482885  1
  V  V72  1  0.12194014  0.36921014  0.25065728  1
  V  V73  1  0.38252735  0.50060811  0.87556214  1
  V  V74  1  0.75177242  0.87606910  0.61709154  1
  V  V75  1  0.12194671  0.00126337  0.12649594  1
  V  V76  1  -0.00331984  -0.00034459  0.51021629  1
  V  V77  1  0.24844347  -0.00179585  0.25017467  1
  V  V78  1  0.37371933  0.25103324  0.12432170  1
  V  V79  1  0.37656754  0.12193408  0.24775807  1
  V  V80  1  0.37068388  0.62949071  0.24417044  1
  V  V81  1  0.87384168  0.00054851  0.87713971  1
  V  V82  1  0.12235261  0.50199907  0.62033859  1
  V  V83  1  0.00065026  0.24599651  0.73286448  1
  V  V84  1  0.50991906  0.87044467  0.87364583  1
  Zn  Zn85  1  0.53362570  0.63298242  0.17144912  1
  Zn  Zn86  1  0.62273945  0.45300941  0.65580483  1
  Zn  Zn87  1  0.49964535  0.61206612  0.62604665  1
  Zn  Zn88  1  0.37754308  0.87318262  0.50214150  1
  Zn  Zn89  1  0.11627495  0.49371305  0.11994493  1
  Zn  Zn90  1  0.43051503  0.19027890  0.58244009  1
  Zn  Zn91  1  0.58584104  0.55142651  0.04688734  1
  Zn  Zn92  1  0.62315954  0.28354039  0.37824592  1
  Zn  Zn93  1  0.74787063  0.14532523  0.37719087  1
  Zn  Zn94  1  0.62105213  0.00865977  0.62641584  1
  Zn  Zn95  1  0.12594781  0.75072475  0.87191711  1
  Zn  Zn96  1  0.49209614  0.49187721  0.50358796  1
  Zn  Zn97  1  -0.00089266  -0.00097354  0.00303767  1
  Zn  Zn98  1  0.38041680  0.36244942  0.49324824  1
  Zn  Zn99  1  0.50220658  0.75076784  0.74823797  1
  Zn  Zn100  1  0.72968515  0.73892056  0.00593894  1
  Zn  Zn101  1  0.48034721  0.22644657  0.74524135  1
  Zn  Zn102  1  0.74634739  0.38408494  0.11814429  1
  Zn  Zn103  1  0.38217507  0.48159851  0.37308238  1
  Zn  Zn104  1  0.75686842  0.47535618  0.75419828  1
  Zn  Zn105  1  0.25721878  0.23662407  0.50767091  1
  Zn  Zn106  1  0.63531418  0.38610209  0.23716888  1
  Zn  Zn107  1  0.18690990  0.18814174  0.18769711  1
  Zn  Zn108  1  0.18126219  0.18290622  0.68776478  1
  Zn  Zn109  1  0.18457657  0.68859701  0.18443040  1
  Zn  Zn110  1  0.18464458  0.68896653  0.68726064  1
  Zn  Zn111  1  0.68978154  0.19522253  0.20403406  1
  Zn  Zn112  1  0.63315609  0.23225878  0.65253717  1
  Zn  Zn113  1  0.69722170  0.68289778  0.18617869  1
  Zn  Zn114  1  0.68421731  0.60263920  0.69667516  1
  Zn  Zn115  1  0.30678147  0.30486177  0.31057062  1
  Zn  Zn116  1  0.30377701  0.32750786  0.81385401  1
  Zn  Zn117  1  0.30929066  0.81131500  0.31371046  1
  Zn  Zn118  1  0.31431606  0.81389905  0.81220920  1
  Zn  Zn119  1  0.80727014  0.32314328  0.30841648  1
  Zn  Zn120  1  0.81931712  0.30633804  0.84391447  1
  Zn  Zn121  1  0.81188056  0.81137375  0.31358206  1
  Zn  Zn122  1  0.81078932  0.80872496  0.80922851  1
  Zn  Zn123  1  0.21761785  0.42097280  0.42483565  1
  Zn  Zn124  1  0.18968689  0.43593018  0.93467791  1
  Zn  Zn125  1  0.18162495  0.93796050  0.43833336  1
  Zn  Zn126  1  0.18169230  0.93478681  0.93800869  1
  Zn  Zn127  1  0.69498028  0.44207737  0.43353296  1
  Zn  Zn128  1  0.71643517  0.44494750  0.94783626  1
  Zn  Zn129  1  0.68167824  0.93802738  0.43832258  1
  Zn  Zn130  1  0.68597038  0.93512150  0.94160277  1
  Zn  Zn131  1  0.31139698  0.06206492  0.06009758  1
  Zn  Zn132  1  0.30222927  0.05308642  0.55805446  1
  Zn  Zn133  1  0.41805765  0.57969790  0.04265820  1
  Zn  Zn134  1  0.31441153  0.56013202  0.56131030  1
  Zn  Zn135  1  0.81386383  0.05941076  0.06696024  1
  Zn  Zn136  1  0.80206535  0.06771523  0.56117877  1
  Zn  Zn137  1  0.82346066  0.56497445  0.05803663  1
  Zn  Zn138  1  0.80810998  0.55708990  0.56588757  1
  Zn  Zn139  1  0.43553460  0.45189592  0.17815441  1
  Zn  Zn140  1  0.43740758  0.43444709  0.68499884  1
  Zn  Zn141  1  0.43993534  0.93388108  0.18720190  1
  Zn  Zn142  1  0.43352876  1.04716670  0.69082432  1
  Zn  Zn143  1  0.93561207  0.43587342  0.19028672  1
  Zn  Zn144  1  0.94020212  0.43983923  0.68549564  1
  Zn  Zn145  1  0.93700203  0.93959049  0.19172207  1
  Zn  Zn146  1  0.93042433  0.93411802  0.68844205  1
  Zn  Zn147  1  0.05656297  0.06086579  0.31428323  1
  Zn  Zn148  1  0.05895391  0.06272553  0.81239444  1
  Zn  Zn149  1  0.06263321  0.55937980  0.31484305  1
  Zn  Zn150  1  0.06403420  0.56886787  0.80784500  1
  Zn  Zn151  1  0.56114260  0.05810859  0.31633811  1
  Zn  Zn152  1  0.56657304  0.06099460  0.81883456  1
  Zn  Zn153  1  0.57758510  0.50702648  0.33656670  1
  Zn  Zn154  1  0.59103771  0.52832040  0.85793923  1
  Zn  Zn155  1  0.44047449  0.18562874  0.42113299  1
  Zn  Zn156  1  0.44224844  0.18695855  0.94404753  1
  Zn  Zn157  1  0.46718883  0.64700359  0.40069296  1
  Zn  Zn158  1  0.56019687  0.69430838  0.93657593  1
  Zn  Zn159  1  0.93965443  0.18650822  0.43639254  1
  Zn  Zn160  1  0.94059235  0.18601619  0.94090211  1
  Zn  Zn161  1  0.93850390  0.68716328  0.44361096  1
  Zn  Zn162  1  0.93926899  0.68987313  0.93766524  1
  Zn  Zn163  1  0.05970025  0.30727409  0.06622404  1
  Zn  Zn164  1  0.06661375  0.31701510  0.55711364  1
  Zn  Zn165  1  0.06257114  0.81026640  0.06171650  1
  Zn  Zn166  1  0.06068398  0.81396867  0.56217399  1
  Zn  Zn167  1  0.56693798  0.31811617  0.06183575  1
  Zn  Zn168  1  0.55462072  0.32672769  0.55699721  1
  Zn  Zn169  1  0.56054938  0.81236109  0.06795503  1
  Zn  Zn170  1  0.56419369  0.81293999  0.56372273  1
  O  O171  1  0.11662835  0.12170394  0.12239752  1
  O  O172  1  0.12484681  0.12232310  0.60969658  1
  O  O173  1  0.11839214  0.62413715  0.11514442  1
  O  O174  1  0.13077297  0.60949792  0.62168309  1
  O  O175  1  0.62242946  0.12185552  0.12444010  1
  O  O176  1  0.62770892  0.12411070  0.60081844  1
  O  O177  1  0.62541803  0.63952183  0.11234425  1
  O  O178  1  0.61720020  0.63904399  0.61393824  1
  O  O179  1  0.32873058  0.38167272  0.38710849  1
  O  O180  1  0.37639548  0.37934835  0.88229400  1
  O  O181  1  0.38264530  0.87637234  0.37451983  1
  O  O182  1  0.38208352  0.87255532  0.88770443  1
  O  O183  1  0.88348665  0.38085692  0.38175347  1
  O  O184  1  0.88384046  0.38634912  0.88837805  1
  O  O185  1  0.88306581  0.88508858  0.37030879  1
  O  O186  1  0.87874821  0.87883062  0.88240524  1
  O  O187  1  0.25562166  -0.00005842  0.36888606  1
  O  O188  1  0.24506377  -0.00799111  0.86271200  1
  O  O189  1  0.24024344  0.51409027  0.36112201  1
  O  O190  1  0.25626989  0.49987845  0.85999790  1
  O  O191  1  0.75628833  -0.00762434  0.36563076  1
  O  O192  1  0.75570687  0.00430878  0.87126587  1
  O  O193  1  0.76647277  0.50451468  0.36481500  1
  O  O194  1  0.77240815  0.51349100  0.86954011  1
  O  O195  1  0.23995156  0.49252705  0.13914196  1
  O  O196  1  0.24313455  0.49166589  0.63419719  1
  O  O197  1  0.24272543  0.99407344  0.13134740  1
  O  O198  1  0.24489354  0.98364871  0.63426453  1
  O  O199  1  0.76674344  0.50728289  0.13622990  1
  O  O200  1  0.74028797  0.51148398  0.64232713  1
  O  O201  1  0.74684911  0.99338696  0.13806087  1
  O  O202  1  0.74983326  0.99240554  0.63462176  1
  O  O203  1  0.00736261  0.37916725  0.26504600  1
  O  O204  1  0.01037550  0.36681745  0.74584497  1
  O  O205  1  0.00426677  0.86881375  0.25993186  1
  O  O206  1  0.00331393  0.87026545  0.75568425  1
  O  O207  1  0.48959769  0.37414047  0.24539494  1
  O  O208  1  0.48000239  0.35606244  0.76183058  1
  O  O209  1  0.51389626  0.87793842  0.25803305  1
  O  O210  1  0.51885312  0.87873752  0.75885036  1
  O  O211  1  0.49239385  0.11923919  0.24327716  1
  O  O212  1  0.49049944  0.11328253  0.76010254  1
  O  O213  1  0.47072372  0.63650705  0.26268130  1
  O  O214  1  0.48447579  0.62997697  0.74691875  1
  O  O215  1  0.98707361  0.11758408  0.24250178  1
  O  O216  1  0.98726963  0.13391367  0.75598806  1
  O  O217  1  1.00983274  0.63886491  0.24457670  1
  O  O218  1  0.99231098  0.63902553  0.75077679  1
  O  O219  1  0.36663208  0.25477732  0.00636438  1
  O  O220  1  0.37282191  0.24211157  0.49498959  1
  O  O221  1  0.35999370  0.76197476  0.01469215  1
  O  O222  1  0.35570690  0.75028793  0.50754818  1
  O  O223  1  0.88463171  0.26233082  0.00660375  1
  O  O224  1  0.87975600  0.26493642  0.49352638  1
  O  O225  1  0.88207724  0.76451855  0.00892642  1
  O  O226  1  0.86855071  0.74564339  0.51085090  1
  O  O227  1  0.12409858  0.23504908  0.49294259  1
  O  O228  1  0.12841823  0.24485820  0.99195400  1
  O  O229  1  0.13041746  0.74247275  0.49819504  1
  O  O230  1  0.13625886  0.74788197  0.99710090  1
  O  O231  1  0.61357456  0.23775020  0.48561863  1
  O  O232  1  0.61539478  0.23418270  0.99323312  1
  O  O233  1  0.63389025  0.74618594  0.49417300  1
  O  O234  1  0.62404710  0.77090723  0.98833720  1
  O  O235  1  0.49057710  0.24506237  0.13355088  1
  O  O236  1  0.50970458  0.24666477  0.63491753  1
  O  O237  1  0.48241895  0.75032356  0.12710507  1
  O  O238  1  0.48252110  0.75626238  0.62665445  1
  O  O239  1  0.99185511  0.23493595  0.12586940  1
  O  O240  1  1.00915488  0.25184539  0.63433239  1
  O  O241  1  0.99714426  0.74640292  0.13502138  1
  O  O242  1  0.98846229  0.75948583  0.63308624  1
  O  O243  1  0.01270858  0.25799485  0.37837635  1
  O  O244  1  0.00763106  0.24929396  0.86755026  1
  O  O245  1  0.00075099  0.75631546  0.37041471  1
  O  O246  1  -0.00254587  0.76220573  0.86457798  1
  O  O247  1  0.50137307  0.25133615  0.35054355  1
  O  O248  1  0.50343271  0.24970205  0.87158999  1
  O  O249  1  0.50920661  0.75740909  0.37872064  1
  O  O250  1  0.49781466  0.76776169  0.86782199  1
  O  O251  1  0.23248758  0.11797224  0.49087678  1
  O  O252  1  0.23400686  0.13153636  1.01003949  1
  O  O253  1  0.24261663  0.63095958  0.49187181  1
  O  O254  1  0.24046138  0.63697005  0.99023056  1
  O  O255  1  0.73459283  0.12334635  0.49024023  1
  O  O256  1  0.74161573  0.11434694  0.99605024  1
  O  O257  1  0.73939959  0.63764422  0.50587339  1
  O  O258  1  0.75990666  0.62577671  0.98545849  1
  O  O259  1  0.25602055  0.36696640  0.00390245  1
  O  O260  1  0.23988980  0.36223162  0.52038386  1
  O  O261  1  0.25519052  0.87253804  0.00437179  1
  O  O262  1  0.24321796  0.86779198  0.50730775  1
  O  O263  1  0.77985021  0.37873222  0.00696677  1
  O  O264  1  0.76586812  0.37594191  0.49255575  1
  O  O265  1  0.75973047  0.87716084  0.00969173  1
  O  O266  1  0.74141182  0.87066582  0.51271467  1
  O  O267  1  0.12772179  0.48620746  0.25023356  1
  O  O268  1  0.12892190  0.49404649  0.74475152  1
  O  O269  1  0.12779822  0.99458324  0.24596064  1
  O  O270  1  0.12548833  0.98756798  0.75315656  1
  O  O271  1  0.64492834  0.51735912  0.24670035  1
  O  O272  1  0.63928303  0.50880518  0.75597004  1
  O  O273  1  0.63346661  0.99153674  0.24754404  1
  O  O274  1  0.63895654  0.99937997  0.74747254  1
  O  O275  1  0.37018797  -0.00141329  0.25831804  1
  O  O276  1  0.35633455  -0.01327011  0.75422740  1
  O  O277  1  0.36099240  0.51093849  0.25187364  1
  O  O278  1  0.36549925  0.50633004  0.75025072  1
  O  O279  1  0.86722029  0.00675527  0.25931947  1
  O  O280  1  0.86807005  0.00434004  0.75782731  1
  O  O281  1  0.87696799  0.50110097  0.26425204  1
  O  O282  1  0.87996029  0.50676058  0.75720374  1
  O  O283  1  0.12304188  0.36527691  0.37027097  1
  O  O284  1  0.13347631  0.36297301  0.86388929  1
  O  O285  1  0.11584239  0.86904224  0.36944283  1
  O  O286  1  0.11313719  0.87181214  0.86799060  1
  O  O287  1  0.62331998  0.39834328  0.35619035  1
  O  O288  1  0.60519714  0.35743412  0.87111153  1
  O  O289  1  0.61794667  0.86635024  0.36914740  1
  O  O290  1  0.62268609  0.88376881  0.86136777  1
  O  O291  1  0.37976467  0.12997332  0.13004486  1
  O  O292  1  0.36671117  0.11146024  0.62540440  1
  O  O293  1  0.36320107  0.64291954  0.12754251  1
  O  O294  1  0.37240475  0.63260009  0.63225601  1
  O  O295  1  0.88114644  0.12967609  0.13038462  1
  O  O296  1  0.87287254  0.11632297  0.63731873  1
  O  O297  1  0.88817291  0.64231022  0.11562954  1
  O  O298  1  0.87184862  0.63491486  0.63410658  1
  O  O299  1  0.25506742  0.25705190  0.12090685  1
  O  O300  1  0.24264619  0.26018537  0.63040396  1
  O  O301  1  0.24819115  0.75997022  0.11667548  1
  O  O302  1  0.25169583  0.75475794  0.61930469  1
  O  O303  1  0.76419755  0.24852373  0.12944936  1
  O  O304  1  0.75720308  0.23901357  0.63186345  1
  O  O305  1  0.76327897  0.75707802  0.12139090  1
  O  O306  1  0.75881227  0.75957426  0.61370530  1
  O  O307  1  0.23582399  0.23538627  0.37596402  1
  O  O308  1  0.24222848  0.23817602  0.87465573  1
  O  O309  1  0.23925319  0.74844816  0.38412441  1
  O  O310  1  0.25032452  0.74695545  0.88266780  1
  O  O311  1  0.72932121  0.25127633  0.34217565  1
  O  O312  1  0.74165635  0.23385511  0.88129573  1
  O  O313  1  0.74412235  0.75792714  0.38850731  1
  O  O314  1  0.76947481  0.73435196  0.88433940  1
  O  O315  1  0.01064646  0.12177694  0.00975024  1
  O  O316  1  0.00894726  0.11555503  0.49559306  1
  O  O317  1  0.01440291  0.63743732  0.00982302  1
  O  O318  1  0.00821105  0.61149833  0.49592392  1
  O  O319  1  0.50684752  0.11641363  0.01110397  1
  O  O320  1  0.50418004  0.11603230  0.49213841  1
  O  O321  1  0.50380116  0.61070079  -0.02150675  1
  O  O322  1  0.51636871  0.63055355  0.50717466  1
  O  O323  1  0.49280224  0.37826342  0.48537084  1
  O  O324  1  0.48419176  0.36236193  0.98769112  1
  O  O325  1  0.49874450  0.87969811  0.49062483  1
  O  O326  1  0.49085043  0.88192887  0.99786589  1
  O  O327  1  0.99570706  0.38370869  0.48970195  1
  O  O328  1  0.99323560  0.37928938  1.00847233  1
  O  O329  1  1.00567442  0.88174476  0.48582483  1
  O  O330  1  0.99513781  0.87599259  0.99108491  1
  O  O331  1  0.48423228  0.53016055  0.38636601  1
  O  O332  1  0.48438192  0.47902155  0.85959323  1
  O  O333  1  0.49082501  0.98600258  0.37954633  1
  O  O334  1  0.50678168  0.98960275  0.89402813  1
  O  O335  1  0.99370313  0.49266231  0.38224597  1
  O  O336  1  0.99302676  0.50270008  0.86831517  1
  O  O337  1  0.98921433  0.99183977  0.38015122  1
  O  O338  1  0.99196459  0.98828392  0.87599356  1
  O  O339  1  0.00519034  0.00878287  0.12544396  1
  O  O340  1  -0.00894496  -0.01289709  0.60842957  1
  O  O341  1  -0.00087150  0.51769547  0.13375623  1
  O  O342  1  0.00901408  0.49394833  0.61302859  1
  O  O343  1  0.50669751  0.00379449  0.11968836  1
  O  O344  1  0.49818170  -0.00724818  0.60912144  1
  O  O345  1  0.49148182  0.52976884  0.12237690  1
  O  O346  1  0.51141225  0.49412499  0.62419423  1
  O  O347  1  0.24091636  0.38073051  0.24269585  1
  O  O348  1  0.23744403  0.38225949  0.74003508  1
  O  O349  1  0.24102973  0.88022805  0.24509187  1
  O  O350  1  0.23937689  0.88006751  0.74636073  1
  O  O351  1  0.75657056  0.39785019  0.23826183  1
  O  O352  1  0.76943399  0.35733254  0.74950205  1
  O  O353  1  0.74281042  0.88090696  0.24541686  1
  O  O354  1  0.74235280  0.88089584  0.74708649  1
  O  O355  1  0.25547433  0.11700534  0.25307867  1
  O  O356  1  0.24236362  0.10906551  0.75650275  1
  O  O357  1  0.24771371  0.61928576  0.25375439  1
  O  O358  1  0.25259055  0.61791791  0.75359600  1
  O  O359  1  0.75860839  0.11335594  0.25143930  1
  O  O360  1  0.76310199  0.11289456  0.76658191  1
  O  O361  1  0.76600355  0.61708252  0.24823302  1
  O  O362  1  0.77130525  0.63436164  0.76479327  1
  O  O363  1  0.36787207  0.11149525  0.36497039  1
  O  O364  1  0.36103601  0.12088395  0.89033399  1
  O  O365  1  0.35343136  0.63971560  0.36298610  1
  O  O366  1  0.36469782  0.61169336  0.86333064  1
  O  O367  1  0.87128151  0.12020493  0.36753039  1
  O  O368  1  0.86944514  0.11882186  0.87790203  1
  O  O369  1  0.88357107  0.61186152  0.37816132  1
  O  O370  1  0.88188808  0.61550747  0.87035499  1
  O  O371  1  0.12688517  0.37322166  0.13341085  1
  O  O372  1  0.13055641  0.38518727  0.63256715  1
  O  O373  1  0.12798655  0.88155820  0.12958368  1
  O  O374  1  0.13148708  0.86712016  0.63514007  1
  O  O375  1  0.63049843  0.38208037  0.12235836  1
  O  O376  1  0.63756488  0.34687127  0.62687757  1
  O  O377  1  0.62924364  0.87950315  0.13613912  1
  O  O378  1  0.63330063  0.87837700  0.63774037  1
  O  O379  1  0.12933068  0.26150064  0.25750099  1
  O  O380  1  0.11662870  0.25298742  0.75673117  1
  O  O381  1  0.11678266  0.75701948  0.25555111  1
  O  O382  1  0.11446848  0.75781659  0.75046674  1
  O  O383  1  0.60329292  0.26131618  0.23949943  1
  O  O384  1  0.62493150  0.22806083  0.76754287  1
  O  O385  1  0.63625725  0.75758014  0.25942399  1
  O  O386  1  0.62585280  0.76475986  0.74838254  1
  O  O387  1  0.38207030  0.24534577  0.24393835  1
  O  O388  1  0.35703506  0.23149921  0.76935768  1
  O  O389  1  0.35627934  0.74642244  0.23172034  1
  O  O390  1  0.37019346  0.74200713  0.74110821  1
  O  O391  1  0.87378467  0.23841527  0.24349993  1
  O  O392  1  0.87923573  0.24565887  0.74354788  1
  O  O393  1  0.88592423  0.75837046  0.24031270  1
  O  O394  1  0.88316785  0.74507678  0.74131008  1
  O  O395  1  0.37084429  0.49345222  0.49461002  1
  O  O396  1  0.36718017  0.49011160  0.98529948  1
  O  O397  1  0.37772960  0.99455420  0.48499888  1
  O  O398  1  0.38469858  0.98889420  1.01116976  1
  O  O399  1  0.88039587  0.49351296  0.49321355  1
  O  O400  1  0.88661522  0.49590462  0.98784342  1
  O  O401  1  0.87862452  1.00979224  0.48668976  1
  O  O402  1  0.87813326  0.98841768  0.99749787  1
  O  O403  1  0.12288896  0.00736198  0.00710367  1
  O  O404  1  0.11163269  0.01218981  0.49248444  1
  O  O405  1  0.13244746  0.51249396  -0.00027812  1
  O  O406  1  0.11864163  0.50248118  0.50674680  1
  O  O407  1  0.61847000  0.00625042  0.01155899  1
  O  O408  1  0.61317637  0.00417778  0.50236306  1
  O  O409  1  0.61980032  0.49003914  -0.03801107  1
  O  O410  1  0.63149662  0.51911297  0.49576881  1
  O  O411  1  0.36881712  0.37390729  0.11571295  1
  O  O412  1  0.35601864  0.37387347  0.62688202  1
  O  O413  1  0.36816713  0.86756739  0.12171804  1
  O  O414  1  0.35642423  0.86211611  0.61986696  1
  O  O415  1  0.88263934  0.36458108  0.11889110  1
  O  O416  1  0.87280988  0.37000061  0.61506528  1
  O  O417  1  0.87394184  0.86988644  0.11936538  1
  O  O418  1  0.85975883  0.86374416  0.63309724  1
  O  O419  1  0.12465773  0.13007962  0.37601080  1
  O  O420  1  0.11770356  0.13234273  0.88650089  1
  O  O421  1  0.13148764  0.63260599  0.37960546  1
  O  O422  1  0.13077296  0.62932170  0.88010933  1
  O  O423  1  0.62771326  0.11339622  0.38668811  1
  O  O424  1  0.63534284  0.12358718  0.88963862  1
  O  O425  1  0.62116357  0.63751140  0.38549004  1
  O  O426  1  0.64726366  0.63444146  0.86844650  1
