# generated using pymatgen
data_V85Zn86O256
_symmetry_space_group_name_H-M   'P 1'
_cell_length_a   16.95193897
_cell_length_b   16.96486357
_cell_length_c   16.95820431
_cell_angle_alpha   89.99712659
_cell_angle_beta   90.07376315
_cell_angle_gamma   90.00445918
_symmetry_Int_Tables_number   1
_chemical_formula_structural   V85Zn86O256
_chemical_formula_sum   'V85 Zn86 O256'
_cell_volume   4876.96066752
_cell_formula_units_Z   1
loop_
 _symmetry_equiv_pos_site_id
 _symmetry_equiv_pos_as_xyz
  1  'x, y, z'
loop_
 _atom_site_type_symbol
 _atom_site_label
 _atom_site_symmetry_multiplicity
 _atom_site_fract_x
 _atom_site_fract_y
 _atom_site_fract_z
 _atom_site_occupancy
  V  V0  1  0.50226107  0.74905218  0.75967107  1
  V  V1  1  0.37547204  0.49782927  0.87255174  1
  V  V2  1  0.25614897  0.13394493  0.37362054  1
  V  V3  1  0.00151916  0.62822270  0.12143641  1
  V  V4  1  0.24978963  -0.00957826  0.74890700  1
  V  V5  1  0.75939788  0.62275859  0.37404507  1
  V  V6  1  0.49684208  0.11935870  0.13348188  1
  V  V7  1  0.50352967  0.62356865  0.12546881  1
  V  V8  1  0.50114595  0.35873382  0.87092762  1
  V  V9  1  0.00164463  0.88657493  0.38107741  1
  V  V10  1  0.12726929  0.50502059  0.12539927  1
  V  V11  1  0.12115604  0.37160094  0.74987323  1
  V  V12  1  0.13205637  0.88017930  0.25211593  1
  V  V13  1  0.37160558  0.62942611  0.74686446  1
  V  V14  1  0.37310630  0.24636829  0.13249422  1
  V  V15  1  0.62748066  0.87566779  0.25231516  1
  V  V16  1  0.12650947  0.37563684  0.25166168  1
  V  V17  1  0.49398159  0.87721945  0.37727553  1
  V  V18  1  0.63470853  0.87000266  0.76326721  1
  V  V19  1  0.75571601  0.87782201  0.12723601  1
  V  V20  1  0.87319220  0.25019178  0.12113607  1
  V  V21  1  0.00311257  0.50487009  0.00069026  1
  V  V22  1  0.87290538  0.12806749  0.26391386  1
  V  V23  1  0.13037294  0.62862748  0.50174326  1
  V  V24  1  0.48569619  0.00156350  0.50039726  1
  V  V25  1  0.87215032  0.50349221  0.87814748  1
  V  V26  1  0.14093493  -0.01017251  0.61045645  1
  V  V27  1  0.61736061  0.49676173  0.62218562  1
  V  V28  1  0.75145622  0.00499239  0.26253547  1
  V  V29  1  0.37429550  -0.00233136  0.88206524  1
  V  V30  1  0.74789270  0.75121000  -0.00187464  1
  V  V31  1  0.24282862  0.74395958  0.00055596  1
  V  V32  1  0.00023451  0.12328491  0.12767231  1
  V  V33  1  0.62470007  0.74850715  0.37597305  1
  V  V34  1  0.87545781  0.75525504  0.12362722  1
  V  V35  1  0.12524189  0.25354441  0.38903773  1
  V  V36  1  0.73808382  0.24433587  -0.01014620  1
  V  V37  1  0.12399654  0.25073602  0.87495110  1
  V  V38  1  0.87404647  0.87997718  0.50057494  1
  V  V39  1  0.24876010  0.12356527  0.87325753  1
  V  V40  1  0.50274524  0.13277724  0.62504899  1
  V  V41  1  0.24713059  0.36444765  0.61953976  1
  V  V42  1  0.63242618  0.24445782  0.37369036  1
  V  V43  1  0.73919795  0.62809510  0.87589470  1
  V  V44  1  0.24858110  0.49744746  0.74907822  1
  V  V45  1  0.49544552  0.62466562  0.62412347  1
  V  V46  1  0.37332519  0.37297939  0.00238369  1
  V  V47  1  0.50721596  0.37724690  0.37829679  1
  V  V48  1  0.87442039  0.75214647  0.62370687  1
  V  V49  1  0.37541353  0.74911638  0.12556479  1
  V  V50  1  0.74540063  0.75403173  0.50541143  1
  V  V51  1  -0.01866256  0.21709562  0.76825023  1
  V  V52  1  0.62600847  0.49121294  0.12738548  1
  V  V53  1  0.88293069  0.25657436  0.62577342  1
  V  V54  1  0.50518178  0.25406047  0.25053216  1
  V  V55  1  0.13413584  0.00366962  0.13090106  1
  V  V56  1  -0.02732565  0.08475820  0.62373449  1
  V  V57  1  0.55606624  0.04844973  -0.04515881  1
  V  V58  1  0.62017263  0.61858410  0.49802887  1
  V  V59  1  0.87463765  0.62683254  0.74985242  1
  V  V60  1  0.63546705  0.12101522  0.50052593  1
  V  V61  1  0.12020659  0.50068276  0.62251120  1
  V  V62  1  0.74491434  0.49945567  0.75214806  1
  V  V63  1  0.38025562  0.87424887  0.00207531  1
  V  V64  1  0.81937335  0.93402081  -0.05521990  1
  V  V65  1  0.36719370  0.00240184  0.35602267  1
  V  V66  1  -0.00164097  0.38167198  0.87301442  1
  V  V67  1  0.37506114  0.62011947  0.25232470  1
  V  V68  1  0.37700588  0.49773727  0.38597751  1
  V  V69  1  0.37414384  0.36159370  0.49844263  1
  V  V70  1  0.62462449  0.00537209  0.12710799  1
  V  V71  1  0.50117430  0.74938584  0.25085323  1
  V  V72  1  0.50152659  0.49916248  -0.00009021  1
  V  V73  1  0.00799097  0.87851480  0.88053793  1
  V  V74  1  0.38234060  0.12785137  0.75110810  1
  V  V75  1  0.75206083  0.49108700  0.25358831  1
  V  V76  1  0.87313943  0.38628071  0.49128490  1
  V  V77  1  0.12336977  0.12247673  -0.00204165  1
  V  V78  1  0.61870532  0.36173742  0.75200205  1
  V  V79  1  0.32454849  0.80944792  0.56636158  1
  V  V80  1  0.00082306  0.25081740  0.25357404  1
  V  V81  1  0.00036079  0.75184835  0.25337690  1
  V  V82  1  0.13220525  0.75120407  0.38068560  1
  V  V83  1  0.74726121  0.37525537  0.62489235  1
  V  V84  1  0.62437704  -0.02519491  0.61961152  1
  Zn  Zn85  1  0.50647509  0.86965433  0.88172858  1
  Zn  Zn86  1  0.12047398  0.73852474  0.87382761  1
  Zn  Zn87  1  0.24774864  0.24929619  0.00335983  1
  Zn  Zn88  1  0.12321037  0.12260738  0.50350196  1
  Zn  Zn89  1  0.25246788  0.87856919  0.12759284  1
  Zn  Zn90  1  0.62203999  0.62892318  -0.00186378  1
  Zn  Zn91  1  0.12876108  0.86977109  0.74710898  1
  Zn  Zn92  1  0.00323095  0.75134123  0.75081228  1
  Zn  Zn93  1  0.24920935  0.37428435  0.12523478  1
  Zn  Zn94  1  0.88024083  0.61799264  0.25530658  1
  Zn  Zn95  1  -0.00577382  0.50873796  0.48527176  1
  Zn  Zn96  1  0.87211086  0.37403309  0.00006939  1
  Zn  Zn97  1  0.37069322  0.24546481  0.62630599  1
  Zn  Zn98  1  -0.00664622  -0.00326023  0.00074658  1
  Zn  Zn99  1  0.25215594  0.49913205  0.25096175  1
  Zn  Zn100  1  0.24405099  0.62053020  0.88025871  1
  Zn  Zn101  1  0.87613490  0.00929961  0.38646145  1
  Zn  Zn102  1  -0.00037787  0.62631716  0.62332822  1
  Zn  Zn103  1  0.74470135  0.36935133  0.12401744  1
  Zn  Zn104  1  -0.00332156  0.38387500  0.37184324  1
  Zn  Zn105  1  0.75563452  0.24493816  0.49782326  1
  Zn  Zn106  1  0.25305371  0.62593003  0.37957887  1
  Zn  Zn107  1  0.19022170  0.18808671  0.19472123  1
  Zn  Zn108  1  0.18107272  0.17943623  0.68997887  1
  Zn  Zn109  1  0.18830328  0.68894550  0.18829507  1
  Zn  Zn110  1  0.19101571  0.69208450  0.68593000  1
  Zn  Zn111  1  0.68783162  0.18631057  0.18728797  1
  Zn  Zn112  1  0.69684971  0.18685185  0.68511483  1
  Zn  Zn113  1  0.68898516  0.68365441  0.18805253  1
  Zn  Zn114  1  0.68395067  0.69004400  0.68707736  1
  Zn  Zn115  1  0.31194002  0.31198751  0.31185599  1
  Zn  Zn116  1  0.31098242  0.30992358  0.81144404  1
  Zn  Zn117  1  0.31335788  0.81248308  0.31432144  1
  Zn  Zn118  1  0.31522635  0.80943924  0.81673675  1
  Zn  Zn119  1  0.80954529  0.31191961  0.31123537  1
  Zn  Zn120  1  0.80934034  0.31390709  0.81394738  1
  Zn  Zn121  1  0.81479822  0.81245727  0.31586662  1
  Zn  Zn122  1  0.81048899  0.81006673  0.81106929  1
  Zn  Zn123  1  0.18971601  0.44086310  0.43820002  1
  Zn  Zn124  1  0.18702688  0.43958968  0.93959601  1
  Zn  Zn125  1  0.20363370  0.92843550  0.43820675  1
  Zn  Zn126  1  0.18900306  0.93463334  0.94141049  1
  Zn  Zn127  1  0.68815163  0.43568683  0.43678789  1
  Zn  Zn128  1  0.68529954  0.43267863  0.93959819  1
  Zn  Zn129  1  0.68448957  0.93662739  0.44069784  1
  Zn  Zn130  1  0.74010536  1.11482915  0.87437773  1
  Zn  Zn131  1  0.31279247  0.06527513  0.06251798  1
  Zn  Zn132  1  0.30817356  0.06460164  0.56032269  1
  Zn  Zn133  1  0.31404034  0.56147335  0.06489678  1
  Zn  Zn134  1  0.30880119  0.55857655  0.56366453  1
  Zn  Zn135  1  0.80653969  0.07118448  0.06926360  1
  Zn  Zn136  1  0.80844985  0.05379823  0.58184900  1
  Zn  Zn137  1  0.81375499  0.56571758  0.06587413  1
  Zn  Zn138  1  0.80533468  0.56502394  0.56492861  1
  Zn  Zn139  1  0.43983433  0.43486933  0.19110092  1
  Zn  Zn140  1  0.43647252  0.43429854  0.68552743  1
  Zn  Zn141  1  0.43898771  0.93548624  0.18782792  1
  Zn  Zn142  1  0.44113287  0.93899506  0.69218475  1
  Zn  Zn143  1  0.93666655  0.43708052  0.18905937  1
  Zn  Zn144  1  0.93547197  0.44060697  0.68768608  1
  Zn  Zn145  1  0.94033550  0.94061646  0.19322200  1
  Zn  Zn146  1  0.94160912  0.92617760  0.68572158  1
  Zn  Zn147  1  0.06846170  0.06650012  0.31554001  1
  Zn  Zn148  1  0.05502235  0.05856603  0.80834378  1
  Zn  Zn149  1  0.06293349  0.56343093  0.31354803  1
  Zn  Zn150  1  0.06510768  0.56712358  0.81094189  1
  Zn  Zn151  1  0.56083098  0.06541649  0.31310971  1
  Zn  Zn152  1  0.60159332  0.08142715  0.77643500  1
  Zn  Zn153  1  0.56522542  0.55732044  0.31172042  1
  Zn  Zn154  1  0.55913414  0.55545863  0.80999029  1
  Zn  Zn155  1  0.43976655  0.18422022  0.43533737  1
  Zn  Zn156  1  0.43364678  0.18695493  0.94241583  1
  Zn  Zn157  1  0.43798032  0.68531653  0.43859301  1
  Zn  Zn158  1  0.43269957  0.68471404  0.93742223  1
  Zn  Zn159  1  0.94428297  0.19178550  0.44791056  1
  Zn  Zn160  1  0.93873762  0.18604737  0.93893559  1
  Zn  Zn161  1  0.94261192  0.69157299  0.44072636  1
  Zn  Zn162  1  0.93472498  0.69272034  0.93843195  1
  Zn  Zn163  1  0.06061760  0.31433775  0.06261437  1
  Zn  Zn164  1  0.05442535  0.31885034  0.56379456  1
  Zn  Zn165  1  0.06241211  0.81768138  0.06316959  1
  Zn  Zn166  1  0.06311551  0.81407924  0.56438520  1
  Zn  Zn167  1  0.56001626  0.30962044  0.05996271  1
  Zn  Zn168  1  0.56170761  0.30931983  0.55713459  1
  Zn  Zn169  1  0.56698998  0.81609123  0.06431822  1
  Zn  Zn170  1  0.53452648  0.80311469  0.55734219  1
  O  O171  1  0.11909597  0.12249266  0.12086038  1
  O  O172  1  0.14071495  0.10249015  0.61654186  1
  O  O173  1  0.11763522  0.61354878  0.13126559  1
  O  O174  1  0.12520871  0.61706963  0.61947267  1
  O  O175  1  0.61816327  0.11232405  0.12833974  1
  O  O176  1  0.61618855  0.11826646  0.61657521  1
  O  O177  1  0.61703209  0.61558165  0.12470919  1
  O  O178  1  0.61972143  0.61583810  0.61841213  1
  O  O179  1  0.38051435  0.37866758  0.38136665  1
  O  O180  1  0.37971802  0.37813546  0.88059986  1
  O  O181  1  0.38193045  0.88949469  0.36549566  1
  O  O182  1  0.38043145  0.88171378  0.88349664  1
  O  O183  1  0.87044274  0.37253153  0.38925392  1
  O  O184  1  0.88201438  0.38563730  0.87545527  1
  O  O185  1  0.88507448  0.87629951  0.38252749  1
  O  O186  1  0.87812269  0.87656256  0.88065003  1
  O  O187  1  0.26427126  0.00403015  0.37320556  1
  O  O188  1  0.25647311  0.00484318  0.87197951  1
  O  O189  1  0.26202363  0.50305670  0.37090866  1
  O  O190  1  0.26146073  0.49608032  0.87034898  1
  O  O191  1  0.75129495  -0.00277161  0.36512376  1
  O  O192  1  0.76557228  -0.00486249  0.88994295  1
  O  O193  1  0.74340219  0.50592658  0.36129381  1
  O  O194  1  0.75456003  0.50582521  0.87308923  1
  O  O195  1  0.24068086  0.49753092  0.12642511  1
  O  O196  1  0.23908292  0.48802776  0.63000549  1
  O  O197  1  0.23779432  1.00150289  0.12347555  1
  O  O198  1  0.24890841  0.99512651  0.63364938  1
  O  O199  1  0.74231135  0.49858559  0.13192846  1
  O  O200  1  0.73815734  0.49401090  0.63141164  1
  O  O201  1  0.74354752  0.99677346  0.13519695  1
  O  O202  1  0.72223823  0.98902880  0.61811483  1
  O  O203  1  0.01003135  0.36887469  0.24896493  1
  O  O204  1  0.00511972  0.38506149  0.76404468  1
  O  O205  1  0.00873428  0.86913670  0.25911807  1
  O  O206  1  -0.00056104  0.87271333  0.76535413  1
  O  O207  1  0.49868302  0.36204394  0.26013073  1
  O  O208  1  0.50531667  0.37746214  0.75900536  1
  O  O209  1  0.50726199  0.87073718  0.25900347  1
  O  O210  1  0.50236529  0.86107088  0.75447165  1
  O  O211  1  0.50118539  0.13597245  0.24025540  1
  O  O212  1  0.49575927  0.11579049  0.73714719  1
  O  O213  1  0.49203476  0.62770863  0.24715037  1
  O  O214  1  0.49323029  0.62596679  0.74466120  1
  O  O215  1  0.99488815  0.13117609  0.24515637  1
  O  O216  1  1.01905964  0.12606514  0.70834451  1
  O  O217  1  1.00037500  0.63463996  0.23996596  1
  O  O218  1  0.98324888  0.62357706  0.74900349  1
  O  O219  1  0.37395311  0.25745590  0.01237660  1
  O  O220  1  0.37485744  0.25844343  0.49982347  1
  O  O221  1  0.36921451  0.75498049  0.00758748  1
  O  O222  1  0.39826730  0.75651069  0.51398286  1
  O  O223  1  0.87201922  0.24938369  0.00741703  1
  O  O224  1  0.87576621  0.26662795  0.50952380  1
  O  O225  1  0.86329329  0.74606246  0.01386763  1
  O  O226  1  0.86534733  0.75368992  0.50567057  1
  O  O227  1  0.11707670  0.25441089  0.49157761  1
  O  O228  1  0.12257063  0.23926603  0.99489493  1
  O  O229  1  0.12018776  0.74269494  0.49115030  1
  O  O230  1  0.14119705  0.75496261  1.00532859  1
  O  O231  1  0.62879543  0.23821691  0.49381303  1
  O  O232  1  0.63938594  0.24942142  1.00251586  1
  O  O233  1  0.62752011  0.74202713  0.49473518  1
  O  O234  1  0.64233235  0.74826320  1.01054099  1
  O  O235  1  0.49622976  0.24363674  0.13187703  1
  O  O236  1  0.49518777  0.23583034  0.61878510  1
  O  O237  1  0.49687645  0.74340136  0.13190584  1
  O  O238  1  0.50444101  0.72985694  0.64005262  1
  O  O239  1  0.99527244  0.24015873  0.13002515  1
  O  O240  1  0.98596656  0.26423536  0.64029047  1
  O  O241  1  0.99648088  0.74632708  0.13018758  1
  O  O242  1  0.98893737  0.74625900  0.62827256  1
  O  O243  1  0.00779758  0.25662880  0.37128398  1
  O  O244  1  0.00412058  0.26754927  0.87385386  1
  O  O245  1  0.00955762  0.75699549  0.36743708  1
  O  O246  1  -0.00069907  0.76201448  0.87562776  1
  O  O247  1  0.50685656  0.25407750  0.36773989  1
  O  O248  1  0.49628643  0.25983633  0.88058751  1
  O  O249  1  0.50347397  0.75821034  0.36964138  1
  O  O250  1  0.49956194  0.74432598  0.86440890  1
  O  O251  1  0.24604808  0.11957613  0.48017636  1
  O  O252  1  0.24043001  0.12751284  0.99253300  1
  O  O253  1  0.23632824  0.61960631  0.49854032  1
  O  O254  1  0.25894918  0.64017620  1.00225606  1
  O  O255  1  0.73852782  0.12167036  0.50869167  1
  O  O256  1  0.75651127  0.13752606  0.99092796  1
  O  O257  1  0.73917451  0.63041944  0.49209996  1
  O  O258  1  0.74839828  0.63169065  0.99264710  1
  O  O259  1  0.26193081  0.37234502  0.00104158  1
  O  O260  1  0.25883187  0.37834461  0.50943236  1
  O  O261  1  0.26134958  0.86463103  0.00411510  1
  O  O262  1  0.26556001  0.85823361  0.49872679  1
  O  O263  1  0.75305595  0.36115175  0.00180418  1
  O  O264  1  0.75818290  0.37393921  0.50734433  1
  O  O265  1  0.75898236  0.87003081  0.00726225  1
  O  O266  1  0.75596399  0.85990392  0.48897833  1
  O  O267  1  0.12761028  0.49291255  0.24250892  1
  O  O268  1  0.13030297  0.49360238  0.74236255  1
  O  O269  1  0.11837933  0.99226127  0.24284483  1
  O  O270  1  0.13699594  0.99717518  0.74351532  1
  O  O271  1  0.63913191  0.50445015  0.24015082  1
  O  O272  1  0.62919489  0.49300019  0.74102641  1
  O  O273  1  0.63296969  0.99756697  0.24693095  1
  O  O274  1  0.60825071  0.97458277  0.72886892  1
  O  O275  1  0.37718827  0.00419063  0.25779008  1
  O  O276  1  0.37255886  0.00662738  0.76424362  1
  O  O277  1  0.37549187  0.50600752  0.25815569  1
  O  O278  1  0.36976114  0.50221713  0.75715800  1
  O  O279  1  0.86857070  0.01094059  0.25460106  1
  O  O280  1  0.89191468  0.02619200  0.66472389  1
  O  O281  1  0.85735643  0.50237870  0.24183458  1
  O  O282  1  0.86470712  0.50802773  0.75464229  1
  O  O283  1  0.12616577  0.36986665  0.36826677  1
  O  O284  1  0.11897037  0.37175609  0.87056698  1
  O  O285  1  0.12095097  0.87077823  0.37136983  1
  O  O286  1  0.11640213  0.87070739  0.87528937  1
  O  O287  1  0.61379030  0.36391915  0.38426185  1
  O  O288  1  0.61259081  0.38057040  0.86486139  1
  O  O289  1  0.61732563  0.86985925  0.36968823  1
  O  O290  1  0.62355074  0.87871651  0.86157499  1
  O  O291  1  0.38430261  0.13339434  0.12081442  1
  O  O292  1  0.38088498  0.12321418  0.63339873  1
  O  O293  1  0.38477183  0.62677673  0.13374966  1
  O  O294  1  0.38499032  0.60914481  0.63461561  1
  O  O295  1  0.88291601  0.13433533  0.13504877  1
  O  O296  1  0.87467279  0.15356371  0.61226827  1
  O  O297  1  0.88283157  0.63743144  0.13136613  1
  O  O298  1  0.87250646  0.63238050  0.63229521  1
  O  O299  1  0.25825484  0.25063749  0.12513927  1
  O  O300  1  0.24673102  0.26128901  0.63427327  1
  O  O301  1  0.25786147  0.75147698  0.11812612  1
  O  O302  1  0.26801830  0.74711745  0.62412285  1
  O  O303  1  0.75745404  0.24753260  0.11575264  1
  O  O304  1  0.76053479  0.26095275  0.62422491  1
  O  O305  1  0.75835826  0.75620861  0.12463880  1
  O  O306  1  0.75491960  0.74109548  0.61161263  1
  O  O307  1  0.24293580  0.24208155  0.37342997  1
  O  O308  1  0.24022489  0.24264217  0.87590814  1
  O  O309  1  0.23620844  0.74680670  0.36768091  1
  O  O310  1  0.25172496  0.74758676  0.89155239  1
  O  O311  1  0.73679563  0.25234911  0.37711422  1
  O  O312  1  0.75472194  0.24450396  0.88616111  1
  O  O313  1  0.74273703  0.74074897  0.37967167  1
  O  O314  1  0.75566726  0.74019881  0.88627006  1
  O  O315  1  0.00621057  0.12110067  0.01044783  1
  O  O316  1  -0.00199515  0.12218620  0.52640251  1
  O  O317  1  -0.00545836  0.62078508  0.01359225  1
  O  O318  1  0.01162233  0.62394731  0.50323072  1
  O  O319  1  0.50012763  0.11795897  0.01050089  1
  O  O320  1  0.50578060  0.11680318  0.50561936  1
  O  O321  1  0.49981703  0.61803998  0.00705890  1
  O  O322  1  0.51221070  0.62524986  0.50786565  1
  O  O323  1  0.48919236  0.37135070  0.49014113  1
  O  O324  1  0.48974551  0.37875328  0.99364038  1
  O  O325  1  0.50297811  0.88553099  0.48317979  1
  O  O326  1  0.48609697  0.86566101  1.00088900  1
  O  O327  1  0.98319674  0.38335090  0.49935705  1
  O  O328  1  0.99789614  0.38453165  0.98975670  1
  O  O329  1  0.98819837  0.86668476  0.49046534  1
  O  O330  1  1.00085577  0.87728989  0.98785993  1
  O  O331  1  0.49348290  0.48635523  0.36850594  1
  O  O332  1  0.48788800  0.49350140  0.87989796  1
  O  O333  1  0.48989170  0.99616659  0.37693170  1
  O  O334  1  0.49293860  0.99658023  0.88928259  1
  O  O335  1  0.99561778  0.49776431  0.37139925  1
  O  O336  1  0.99406187  0.50015373  0.88408874  1
  O  O337  1  0.99937210  0.98965124  0.37340978  1
  O  O338  1  1.00096297  0.98386861  0.87866738  1
  O  O339  1  0.00665008  0.01217303  0.12621698  1
  O  O340  1  0.02542648  -0.00644919  0.62062794  1
  O  O341  1  0.00393273  0.50843658  0.12053012  1
  O  O342  1  0.01239503  0.50160201  0.62569302  1
  O  O343  1  0.50872678  0.00843601  0.13393903  1
  O  O344  1  0.50327083  0.00564687  0.61387735  1
  O  O345  1  0.50618373  0.50399997  0.12230005  1
  O  O346  1  0.51106843  0.50655378  0.62998824  1
  O  O347  1  0.23763573  0.37535131  0.24736763  1
  O  O348  1  0.24175737  0.37895305  0.74499545  1
  O  O349  1  0.23583102  0.87054835  0.24811658  1
  O  O350  1  0.25347367  0.88765280  0.76070576  1
  O  O351  1  0.75010952  0.38706783  0.24591925  1
  O  O352  1  0.74122014  0.38088732  0.74498155  1
  O  O353  1  0.74674561  0.88236770  0.24706860  1
  O  O354  1  0.73406863  0.86940543  0.74985534  1
  O  O355  1  0.23625212  0.12045234  0.27400115  1
  O  O356  1  0.25822927  0.11368213  0.75707499  1
  O  O357  1  0.26592736  0.62512523  0.25019233  1
  O  O358  1  0.25838163  0.61419324  0.74861379  1
  O  O359  1  0.76180423  0.11734990  0.24678890  1
  O  O360  1  0.71198230  0.11357432  0.76568844  1
  O  O361  1  0.75302168  0.61725332  0.25945971  1
  O  O362  1  0.75527199  0.62202347  0.75686370  1
  O  O363  1  0.36559181  0.11828906  0.37256396  1
  O  O364  1  0.37155141  0.11691743  0.87252484  1
  O  O365  1  0.37754358  0.61607955  0.37023563  1
  O  O366  1  0.37075515  0.61261877  0.86677724  1
  O  O367  1  0.88369378  0.12839060  0.36819784  1
  O  O368  1  0.95067587  0.13829801  0.83500054  1
  O  O369  1  0.86217220  0.63149623  0.37714488  1
  O  O370  1  0.86610755  0.62123215  0.86830446  1
  O  O371  1  0.12375162  0.38497082  0.13190013  1
  O  O372  1  0.12864718  0.38006644  0.63005920  1
  O  O373  1  0.12411720  0.88685973  0.13398647  1
  O  O374  1  0.12858247  0.88433600  0.62807524  1
  O  O375  1  0.62279695  0.38714292  0.12061873  1
  O  O376  1  0.62666702  0.38026899  0.62720362  1
  O  O377  1  0.63168543  0.88527090  0.13428440  1
  O  O378  1  0.61191625  0.87422946  0.61499620  1
  O  O379  1  0.11903542  0.25853477  0.25803034  1
  O  O380  1  0.10760047  0.24869183  0.75919398  1
  O  O381  1  0.11569187  0.75701776  0.25398466  1
  O  O382  1  0.12268886  0.75198758  0.75306152  1
  O  O383  1  0.61786095  0.24414830  0.25901500  1
  O  O384  1  0.62541211  0.26372402  0.74121130  1
  O  O385  1  0.62048062  0.75363778  0.25582953  1
  O  O386  1  0.61707911  0.76107141  0.74686953  1
  O  O387  1  0.38298711  0.25509938  0.23840178  1
  O  O388  1  0.37152649  0.23154980  0.75166309  1
  O  O389  1  0.38191599  0.74249670  0.24628858  1
  O  O390  1  0.38151579  0.73406070  0.75723762  1
  O  O391  1  0.87889236  0.24466101  0.24498589  1
  O  O392  1  0.88150338  0.25642034  0.74243888  1
  O  O393  1  0.88874366  0.74941184  0.24784396  1
  O  O394  1  0.87247715  0.74207168  0.74105156  1
  O  O395  1  0.37353809  0.49221255  0.48908964  1
  O  O396  1  0.37951330  0.49194800  0.99405344  1
  O  O397  1  0.38420323  1.00697653  0.48827529  1
  O  O398  1  0.36702785  0.99135842  0.99043652  1
  O  O399  1  0.87134248  0.48959517  0.50722505  1
  O  O400  1  0.88551139  0.49918910  0.99877259  1
  O  O401  1  0.86348805  0.98380862  0.50131712  1
  O  O402  1  0.87338735  0.99572398  1.00850493  1
  O  O403  1  0.12333967  0.01053834  0.00805425  1
  O  O404  1  0.13731986  -0.00769598  0.50799172  1
  O  O405  1  0.11132417  0.49528453  0.00940626  1
  O  O406  1  0.12187054  0.50595366  0.50772250  1
  O  O407  1  0.61647362  -0.00891021  0.01344334  1
  O  O408  1  0.61311924  0.00316533  0.50434253  1
  O  O409  1  0.61788773  0.50258806  0.00737087  1
  O  O410  1  0.63061670  0.50729801  0.50906279  1
  O  O411  1  0.37546258  0.36884006  0.11741364  1
  O  O412  1  0.36650289  0.37110735  0.61728393  1
  O  O413  1  0.37369315  0.86908683  0.12086976  1
  O  O414  1  0.37844521  0.87511325  0.62289341  1
  O  O415  1  0.87598099  0.35958189  0.12450491  1
  O  O416  1  0.86713318  0.37303849  0.62006549  1
  O  O417  1  0.87255103  0.86394863  0.13567849  1
  O  O418  1  0.87501289  0.85947784  0.61648851  1
  O  O419  1  0.12723341  0.13637412  0.38451375  1
  O  O420  1  0.12525736  0.12768490  0.88215894  1
  O  O421  1  0.12746927  0.63445819  0.38143113  1
  O  O422  1  0.13041612  0.62432550  0.87828285  1
  O  O423  1  0.61858587  0.13244008  0.38687213  1
  O  O424  1  0.61371690  0.10324151  0.89319570  1
  O  O425  1  0.62909001  0.62774898  0.38209956  1
  O  O426  1  0.63615327  0.61783428  0.87424822  1
