# generated using pymatgen
data_V85Zn86O256
_symmetry_space_group_name_H-M   'P 1'
_cell_length_a   16.95639729
_cell_length_b   16.95868267
_cell_length_c   16.96973078
_cell_angle_alpha   89.90029542
_cell_angle_beta   89.98453427
_cell_angle_gamma   89.95223198
_symmetry_Int_Tables_number   1
_chemical_formula_structural   V85Zn86O256
_chemical_formula_sum   'V85 Zn86 O256'
_cell_volume   4879.77531347
_cell_formula_units_Z   1
loop_
 _symmetry_equiv_pos_site_id
 _symmetry_equiv_pos_as_xyz
  1  'x, y, z'
loop_
 _atom_site_type_symbol
 _atom_site_label
 _atom_site_symmetry_multiplicity
 _atom_site_fract_x
 _atom_site_fract_y
 _atom_site_fract_z
 _atom_site_occupancy
  V  V0  1  0.00087779  0.48740736  0.01067517  1
  V  V1  1  0.37281169  0.00187800  0.37693744  1
  V  V2  1  -0.00440525  0.50593261  0.50112865  1
  V  V3  1  0.74930567  0.23656873  -0.00097947  1
  V  V4  1  0.49397626  0.49404777  -0.00008255  1
  V  V5  1  0.49796268  0.36774420  0.86789905  1
  V  V6  1  0.62071050  0.49903905  0.12223031  1
  V  V7  1  0.00011825  0.62814290  0.62441308  1
  V  V8  1  0.37975649  0.12546111  0.25227796  1
  V  V9  1  -0.00438424  -0.00084355  0.50075838  1
  V  V10  1  0.25503219  0.49985417  0.26457089  1
  V  V11  1  0.39194231  0.88738834  0.00418556  1
  V  V12  1  0.75049112  0.25079096  0.49972905  1
  V  V13  1  0.12417653  0.12904148  0.50563224  1
  V  V14  1  0.37228488  0.75720856  0.13158108  1
  V  V15  1  0.12447216  0.37272750  0.25026936  1
  V  V16  1  0.00486324  0.87654082  0.87481530  1
  V  V17  1  0.78536041  0.72001640  0.02039883  1
  V  V18  1  0.38881690  0.00043364  0.87430993  1
  V  V19  1  0.24592058  0.50286139  0.75270620  1
  V  V20  1  0.62891790  0.37669559  0.24889603  1
  V  V21  1  -0.01016789  0.24804432  0.75417340  1
  V  V22  1  0.62452863  0.87530591  0.25159369  1
  V  V23  1  0.11740609  0.25137693  0.87661545  1
  V  V24  1  0.75549085  -0.00477044  0.25252371  1
  V  V25  1  0.49537008  0.38078587  0.37485898  1
  V  V26  1  0.25179996  0.25030774  0.49999201  1
  V  V27  1  0.37630488  0.13482062  0.75008562  1
  V  V28  1  0.75974319  0.11893632  0.37565255  1
  V  V29  1  0.74441791  0.38190818  0.62191317  1
  V  V30  1  0.62572763  0.74312188  0.37789209  1
  V  V31  1  0.49930514  0.00058226  0.50131628  1
  V  V32  1  0.23747513  0.12075523  0.36267046  1
  V  V33  1  0.24586358  0.24733741  0.00129803  1
  V  V34  1  0.74374802  0.49969423  0.74888936  1
  V  V35  1  0.36898506  0.62326009  0.26518466  1
  V  V36  1  0.86974765  0.75833066  0.63013484  1
  V  V37  1  0.37271146  0.38725754  0.49746061  1
  V  V38  1  -0.00693826  0.37789546  0.37460330  1
  V  V39  1  0.62616854  0.24821098  0.37453798  1
  V  V40  1  0.87202709  0.37935372  0.49721821  1
  V  V41  1  0.12726179  0.00119389  0.62861533  1
  V  V42  1  0.49104098  0.62333687  0.12813123  1
  V  V43  1  0.12285091  0.50861793  0.62392183  1
  V  V44  1  0.61939170  0.37030158  0.74520119  1
  V  V45  1  0.24839442  0.37321360  0.12898815  1
  V  V46  1  0.23891654  0.73463767  0.50009991  1
  V  V47  1  0.75477169  0.12041443  0.86114790  1
  V  V48  1  0.75081919  0.37148695  0.11373207  1
  V  V49  1  0.01071432  0.87880629  0.36780123  1
  V  V50  1  0.11588488  0.37431124  0.75057560  1
  V  V51  1  0.87357009  0.62590301  0.75624211  1
  V  V52  1  0.51778688  0.50563784  0.50247770  1
  V  V53  1  0.62491717  0.12323215  0.50004293  1
  V  V54  1  0.36646003  0.49612696  0.87226742  1
  V  V55  1  -0.00571268  0.24646846  0.24708451  1
  V  V56  1  0.87236010  0.87642811  0.49670280  1
  V  V57  1  0.11928494  0.25317689  0.37926173  1
  V  V58  1  0.74159163  0.62817899  0.87301702  1
  V  V59  1  0.24700710  0.37386697  0.62385372  1
  V  V60  1  0.25726771  0.75291731  -0.01168061  1
  V  V61  1  0.62379415  0.00032542  0.11380048  1
  V  V62  1  0.62977132  -0.01365506  0.62648884  1
  V  V63  1  0.37396863  0.37254497  -0.00011346  1
  V  V64  1  0.23677023  0.88414614  0.12539507  1
  V  V65  1  0.87202657  0.87890934  -0.00071036  1
  V  V66  1  0.51253142  0.62536099  0.62897877  1
  V  V67  1  0.36999142  0.87235365  0.50075554  1
  V  V68  1  0.50232426  0.13248197  0.62880857  1
  V  V69  1  0.62002475  0.24039723  0.87500365  1
  V  V70  1  0.49840467  0.87422092  0.37602297  1
  V  V71  1  0.74837863  0.74246678  0.50312776  1
  V  V72  1  0.12652845  0.74112485  0.36507809  1
  V  V73  1  0.12302804  0.11596690  0.00281843  1
  V  V74  1  0.61319050  0.63263946  -0.00200491  1
  V  V75  1  -0.00219798  0.11008049  0.12475972  1
  V  V76  1  0.50478889  0.12158723  0.11135814  1
  V  V77  1  0.37652803  0.24743736  0.12629838  1
  V  V78  1  0.91815965  0.56055936  0.31707263  1
  V  V79  1  0.00732049  0.75008221  0.75664385  1
  V  V80  1  0.88320622  0.48624355  0.87716819  1
  V  V81  1  -0.01189860  0.12506279  0.63125621  1
  V  V82  1  0.61937853  0.86460684  0.76937679  1
  V  V83  1  0.25286888  0.87717637  0.62938339  1
  V  V84  1  0.50491112  0.24995533  0.25000351  1
  Zn  Zn85  1  0.38066859  0.74646615  0.62697536  1
  Zn  Zn86  1  0.75160913  0.62270090  0.36933528  1
  Zn  Zn87  1  0.97911754  0.72290153  0.21811592  1
  Zn  Zn88  1  0.87501629  0.11711252  0.24770345  1
  Zn  Zn89  1  0.38355464  0.63044707  0.75106016  1
  Zn  Zn90  1  0.75041876  0.87114568  0.12240944  1
  Zn  Zn91  1  0.12830880  0.87696605  0.75279693  1
  Zn  Zn92  1  0.24939599  0.12208753  0.87377627  1
  Zn  Zn93  1  0.87749367  0.24825484  0.11549437  1
  Zn  Zn94  1  0.86951493  0.24917667  0.62961493  1
  Zn  Zn95  1  0.75678262  -0.01287552  0.74287835  1
  Zn  Zn96  1  0.12185167  0.50684845  0.12703479  1
  Zn  Zn97  1  0.25444459  0.00208688  0.75363179  1
  Zn  Zn98  1  0.88288857  0.00439394  0.86432819  1
  Zn  Zn99  1  0.24230888  -0.01128905  0.25023860  1
  Zn  Zn100  1  0.12189027  0.62059173  -0.00861128  1
  Zn  Zn101  1  0.00328711  -0.00404137  0.00136592  1
  Zn  Zn102  1  0.49747000  0.74813266  0.25480958  1
  Zn  Zn103  1  0.75224976  0.51058988  0.24905986  1
  Zn  Zn104  1  0.13834184  0.74331172  0.87056197  1
  Zn  Zn105  1  0.38001986  0.25497296  0.62671669  1
  Zn  Zn106  1  0.57169669  0.74534639  0.86812375  1
  Zn  Zn107  1  0.17832931  0.17060711  0.19556968  1
  Zn  Zn108  1  0.18731999  0.18854445  0.69002013  1
  Zn  Zn109  1  0.18428062  0.68772870  0.17798006  1
  Zn  Zn110  1  0.22316488  0.71102736  0.71339611  1
  Zn  Zn111  1  0.68869176  0.18186446  0.18662443  1
  Zn  Zn112  1  0.68403155  0.19084118  0.68565773  1
  Zn  Zn113  1  0.68801210  0.68606014  0.18802721  1
  Zn  Zn114  1  0.68353958  0.69352869  0.68795173  1
  Zn  Zn115  1  0.31306364  0.30721822  0.31459365  1
  Zn  Zn116  1  0.30554188  0.31220939  0.81202356  1
  Zn  Zn117  1  0.30571563  0.81206331  0.31345011  1
  Zn  Zn118  1  0.37144727  0.79527805  0.82755623  1
  Zn  Zn119  1  0.81144295  0.31342362  0.31159747  1
  Zn  Zn120  1  0.80506054  0.30924733  0.81214212  1
  Zn  Zn121  1  0.81642812  0.80619291  0.31546997  1
  Zn  Zn122  1  0.80988742  0.81270347  0.82031778  1
  Zn  Zn123  1  0.18095219  0.43963438  0.44165193  1
  Zn  Zn124  1  0.18195731  0.43140789  0.93736081  1
  Zn  Zn125  1  0.18550177  0.93847200  0.44163146  1
  Zn  Zn126  1  0.19628105  0.93508293  0.93427438  1
  Zn  Zn127  1  0.69198398  0.44377187  0.42814367  1
  Zn  Zn128  1  0.68350262  0.43713693  0.93464628  1
  Zn  Zn129  1  0.68898379  0.93366959  0.43851179  1
  Zn  Zn130  1  0.68776783  0.93254499  0.93342318  1
  Zn  Zn131  1  0.31279186  0.06144254  0.06360165  1
  Zn  Zn132  1  0.31293437  0.06559033  0.56238769  1
  Zn  Zn133  1  0.28695510  0.57771534  0.07862400  1
  Zn  Zn134  1  0.31622634  0.56275659  0.56876096  1
  Zn  Zn135  1  0.81334256  0.05816596  0.06064688  1
  Zn  Zn136  1  0.81112959  0.05964567  0.56253685  1
  Zn  Zn137  1  0.80690106  0.54676251  0.05365372  1
  Zn  Zn138  1  0.81221295  0.56568177  0.56439201  1
  Zn  Zn139  1  0.43289406  0.43775512  0.19033493  1
  Zn  Zn140  1  0.43726543  0.44130875  0.68267491  1
  Zn  Zn141  1  0.43848498  0.94158067  0.19008174  1
  Zn  Zn142  1  0.44177584  0.93990355  0.68868215  1
  Zn  Zn143  1  0.93574051  0.42735636  0.18029927  1
  Zn  Zn144  1  0.93259365  0.43664772  0.68738353  1
  Zn  Zn145  1  0.92236200  0.90091970  0.20377714  1
  Zn  Zn146  1  0.93701719  0.93696142  0.69058663  1
  Zn  Zn147  1  0.06005054  0.05902628  0.31267210  1
  Zn  Zn148  1  0.06333066  0.06481238  0.81351806  1
  Zn  Zn149  1  0.08413318  0.56526413  0.31357257  1
  Zn  Zn150  1  0.06313752  0.56822610  0.82162479  1
  Zn  Zn151  1  0.56610130  0.05977920  0.31161267  1
  Zn  Zn152  1  0.56465107  0.06071018  0.80531653  1
  Zn  Zn153  1  0.55984005  0.56098735  0.31148975  1
  Zn  Zn154  1  0.55993640  0.55533110  0.81294123  1
  Zn  Zn155  1  0.43650984  0.19056958  0.43925396  1
  Zn  Zn156  1  0.43524400  0.18657904  0.93499076  1
  Zn  Zn157  1  0.43817103  0.68785732  0.44477233  1
  Zn  Zn158  1  0.41254719  0.67556200  0.94885242  1
  Zn  Zn159  1  0.93568630  0.18895709  0.44092685  1
  Zn  Zn160  1  0.93372728  0.18711322  0.93895109  1
  Zn  Zn161  1  0.94591732  0.70015404  0.44204012  1
  Zn  Zn162  1  0.95294152  0.67846149  1.04139440  1
  Zn  Zn163  1  0.05949115  0.31290555  0.06270439  1
  Zn  Zn164  1  0.05713493  0.31479255  0.56714147  1
  Zn  Zn165  1  0.06689049  0.81105257  0.05852116  1
  Zn  Zn166  1  0.06451885  0.81312539  0.56498718  1
  Zn  Zn167  1  0.56549110  0.30720041  0.05863994  1
  Zn  Zn168  1  0.56326714  0.31505180  0.55977541  1
  Zn  Zn169  1  0.56152022  0.81120407  0.06821028  1
  Zn  Zn170  1  0.56095170  0.80841286  0.56143219  1
  O  O171  1  0.11128023  0.13275561  0.11246816  1
  O  O172  1  0.11865503  0.12245749  0.61833195  1
  O  O173  1  0.17028375  0.60866519  0.09789381  1
  O  O174  1  0.11372567  0.61080234  0.63244670  1
  O  O175  1  0.61825248  0.10992691  0.12992931  1
  O  O176  1  0.61862080  0.11925637  0.61950607  1
  O  O177  1  0.61157805  0.62068321  0.11602121  1
  O  O178  1  0.61279998  0.62550809  0.62674758  1
  O  O179  1  0.38813711  0.36860672  0.38098125  1
  O  O180  1  0.38112815  0.37215281  0.87875058  1
  O  O181  1  0.37701596  0.88072481  0.38177361  1
  O  O182  1  0.37917837  0.89189537  0.89089415  1
  O  O183  1  0.87756003  0.37117029  0.38855275  1
  O  O184  1  0.86334980  0.38971110  0.86774849  1
  O  O185  1  0.89685509  0.86914894  0.38851297  1
  O  O186  1  0.88895700  0.87506038  0.88094182  1
  O  O187  1  0.25824197  0.00357382  0.37761456  1
  O  O188  1  0.26395450  0.00427621  0.87292812  1
  O  O189  1  0.24420679  0.49278595  0.36388263  1
  O  O190  1  0.25564048  0.48114304  0.86485228  1
  O  O191  1  0.74189116  0.00868880  0.36689058  1
  O  O192  1  0.74129692  0.01640606  0.87298142  1
  O  O193  1  0.75576050  0.50642001  0.36600313  1
  O  O194  1  0.75315982  0.50874139  0.86957356  1
  O  O195  1  0.25913306  0.47898553  0.13465582  1
  O  O196  1  0.23944007  0.49239883  0.62791036  1
  O  O197  1  0.25187363  0.98879284  0.12823423  1
  O  O198  1  0.24268589  0.99642752  0.62332538  1
  O  O199  1  0.73918210  0.48745884  0.12373627  1
  O  O200  1  0.75302482  0.49014887  0.63233743  1
  O  O201  1  0.73797175  0.99853080  0.13266133  1
  O  O202  1  0.73304569  1.00392403  0.62410046  1
  O  O203  1  0.00287378  0.36704652  0.25553823  1
  O  O204  1  0.00964679  0.36580257  0.74045078  1
  O  O205  1  0.01654394  0.90567313  0.27144210  1
  O  O206  1  0.00578391  0.86718584  0.75500161  1
  O  O207  1  0.50875822  0.37227630  0.25688445  1
  O  O208  1  0.50719074  0.37966002  0.75531695  1
  O  O209  1  0.50542305  0.87507732  0.25955826  1
  O  O210  1  0.52111116  0.87816282  0.74214262  1
  O  O211  1  0.49340693  0.13065198  0.24910735  1
  O  O212  1  0.49236938  0.12288678  0.73845659  1
  O  O213  1  0.48903790  0.62468032  0.24381251  1
  O  O214  1  0.49993932  0.60971649  0.73299771  1
  O  O215  1  0.99543249  0.12876293  0.24386904  1
  O  O216  1  1.00531886  0.13483393  0.74090508  1
  O  O217  1  0.99092388  0.61475871  0.26156866  1
  O  O218  1  0.99133722  0.62997980  0.74347992  1
  O  O219  1  0.36486914  0.25182285  0.00596702  1
  O  O220  1  0.36593473  0.25964107  0.50051420  1
  O  O221  1  0.37378318  0.77269474  0.01280124  1
  O  O222  1  0.36150755  0.75817438  0.49991229  1
  O  O223  1  0.85430841  0.24975453  -0.00318483  1
  O  O224  1  0.86692434  0.25928459  0.50354384  1
  O  O225  1  0.88162137  0.76598675  -0.00517071  1
  O  O226  1  0.87062250  0.75725925  0.51087397  1
  O  O227  1  0.12877604  0.24689039  0.50130612  1
  O  O228  1  0.12878390  0.24626437  0.99332884  1
  O  O229  1  0.13579460  0.75225543  0.49673333  1
  O  O230  1  0.15049356  0.74878881  0.99549203  1
  O  O231  1  0.63145816  0.24498119  0.49376257  1
  O  O232  1  0.63538673  0.25078806  0.98632565  1
  O  O233  1  0.63750153  0.76058074  0.49023772  1
  O  O234  1  0.60108359  0.73515870  0.98999623  1
  O  O235  1  0.49937006  0.24165029  0.13115325  1
  O  O236  1  0.49918182  0.23682761  0.61558813  1
  O  O237  1  0.48638771  0.74525665  0.13032858  1
  O  O238  1  0.49786769  0.73096969  0.61541310  1
  O  O239  1  0.99620368  0.24491384  0.13369767  1
  O  O240  1  0.99702969  0.24098919  0.63351681  1
  O  O241  1  1.02472086  0.72466317  0.11540766  1
  O  O242  1  0.99550950  0.74373982  0.63431595  1
  O  O243  1  0.00202391  0.25597882  0.37104376  1
  O  O244  1  0.00546096  0.24321349  0.86719941  1
  O  O245  1  0.01522019  0.76405399  0.37559523  1
  O  O246  1  0.00399083  0.75517387  0.85949310  1
  O  O247  1  0.50726262  0.25818960  0.37093870  1
  O  O248  1  0.50545617  0.25919053  0.87844596  1
  O  O249  1  0.50706368  0.75844806  0.37889506  1
  O  O250  1  0.46100691  0.73563305  0.86640263  1
  O  O251  1  0.24005677  0.12978343  0.49272919  1
  O  O252  1  0.24238345  0.13596934  1.00569939  1
  O  O253  1  0.25046507  0.63686752  0.50598633  1
  O  O254  1  0.28923549  0.65401062  0.98984057  1
  O  O255  1  0.74453566  0.12839486  0.49358749  1
  O  O256  1  0.74695538  0.13352755  0.99199885  1
  O  O257  1  0.75428919  0.63928815  0.49790960  1
  O  O258  1  0.72931991  0.62022693  0.99153998  1
  O  O259  1  0.25182695  0.36336018  0.00883030  1
  O  O260  1  0.25504116  0.37184784  0.50302613  1
  O  O261  1  0.26111852  0.87301129  0.01213105  1
  O  O262  1  0.26080743  0.87841792  0.50788124  1
  O  O263  1  0.73856293  0.36412121  0.00698019  1
  O  O264  1  0.75372845  0.37401335  0.50447891  1
  O  O265  1  0.76496354  0.86775611  -0.00792322  1
  O  O266  1  0.76674102  0.86814484  0.49304975  1
  O  O267  1  0.13514052  0.49172833  0.24465174  1
  O  O268  1  0.12576713  0.49018341  0.74480398  1
  O  O269  1  0.16469400  1.06959761  0.27029143  1
  O  O270  1  0.12774791  1.00218371  0.73777186  1
  O  O271  1  0.62271781  0.49075462  0.24046897  1
  O  O272  1  0.63744788  0.48697521  0.75749203  1
  O  O273  1  0.63184045  0.98892395  0.24648160  1
  O  O274  1  0.62915483  0.99037976  0.73839469  1
  O  O275  1  0.37048850  0.01211770  0.25735422  1
  O  O276  1  0.37788004  0.00693214  0.76093618  1
  O  O277  1  0.36767945  0.50921683  0.25184879  1
  O  O278  1  0.36059827  0.48656524  0.75598840  1
  O  O279  1  0.85854707  -0.00619962  0.24620782  1
  O  O280  1  0.86828813  -0.00296061  0.75158759  1
  O  O281  1  0.87336694  0.49598391  0.24942640  1
  O  O282  1  0.86252097  0.50452423  0.75323146  1
  O  O283  1  0.11340602  0.37166186  0.37076586  1
  O  O284  1  0.12577701  0.35961710  0.86481299  1
  O  O285  1  0.11624002  0.86739496  0.38467845  1
  O  O286  1  0.11662829  0.87104307  0.87561544  1
  O  O287  1  0.61810820  0.36920688  0.36646842  1
  O  O288  1  0.61608525  0.36617053  0.86696251  1
  O  O289  1  0.61856776  0.86969945  0.36875553  1
  O  O290  1  0.61347015  0.86808721  0.87284173  1
  O  O291  1  0.38424103  0.12810689  0.13269596  1
  O  O292  1  0.38382059  0.12608868  0.63194333  1
  O  O293  1  0.37530432  0.63748989  0.13402040  1
  O  O294  1  0.38953098  0.62326944  0.62807237  1
  O  O295  1  0.88179118  0.12784634  0.12519151  1
  O  O296  1  0.88521823  0.12755704  0.62026889  1
  O  O297  1  0.84778373  0.64908195  0.07809538  1
  O  O298  1  0.87979325  0.63336450  0.63743273  1
  O  O299  1  0.25387398  0.25723677  0.12134129  1
  O  O300  1  0.24933984  0.25698859  0.61661267  1
  O  O301  1  0.26037120  0.76287655  0.11891890  1
  O  O302  1  0.24607953  0.76288750  0.60876948  1
  O  O303  1  0.74379660  0.25045790  0.11054123  1
  O  O304  1  0.74944922  0.26099091  0.61806575  1
  O  O305  1  0.72883752  0.75513501  0.10068772  1
  O  O306  1  0.75941830  0.74804962  0.61933429  1
  O  O307  1  0.23848344  0.24534758  0.38256253  1
  O  O308  1  0.24172731  0.24684680  0.88626821  1
  O  O309  1  0.23601493  0.75807168  0.38853428  1
  O  O310  1  0.26255074  0.77124168  0.88820264  1
  O  O311  1  0.74446649  0.24212293  0.37964632  1
  O  O312  1  0.74205147  0.23926715  0.88038874  1
  O  O313  1  0.74287695  0.74977901  0.38318714  1
  O  O314  1  0.76188054  0.72900789  0.89499521  1
  O  O315  1  0.00557187  0.12274887  0.00633254  1
  O  O316  1  0.00455430  0.11996786  0.50955309  1
  O  O317  1  0.00428169  0.59416235  -0.01461848  1
  O  O318  1  -0.00787981  0.62128842  0.51610630  1
  O  O319  1  0.49789042  0.13059161  0.01274525  1
  O  O320  1  0.50560878  0.11897750  0.50344546  1
  O  O321  1  0.49503739  0.61251091  0.00789105  1
  O  O322  1  0.50029757  0.61031463  0.50465111  1
  O  O323  1  0.49365549  0.38358617  0.49388131  1
  O  O324  1  0.49374976  0.37522385  0.99275351  1
  O  O325  1  0.48736309  0.87903700  0.49698139  1
  O  O326  1  0.48998586  0.88144233  1.00960797  1
  O  O327  1  0.99054318  0.38298539  0.49512711  1
  O  O328  1  0.99760214  0.38566276  0.99767485  1
  O  O329  1  0.99639954  0.88401958  0.49902842  1
  O  O330  1  0.99511019  0.87629700  0.99211886  1
  O  O331  1  0.50533092  0.49050473  0.38681869  1
  O  O332  1  0.49171190  0.48348776  0.87919512  1
  O  O333  1  0.49403874  0.99477964  0.38150707  1
  O  O334  1  0.48802455  1.01094752  0.87569919  1
  O  O335  1  0.99366782  0.50246460  0.37906009  1
  O  O336  1  0.98420897  0.49330835  0.86405052  1
  O  O337  1  1.00991197  0.99437593  0.39316274  1
  O  O338  1  1.00234697  0.99100476  0.87625566  1
  O  O339  1  -0.00317082  0.00977373  0.12425422  1
  O  O340  1  0.00781189  0.00716461  0.61952180  1
  O  O341  1  0.00022430  0.49652261  0.11555228  1
  O  O342  1  0.00140897  0.50716497  0.62051672  1
  O  O343  1  0.51400180  0.00866411  0.13204034  1
  O  O344  1  0.51055121  0.00946854  0.61893948  1
  O  O345  1  0.50124647  0.50144090  0.11997598  1
  O  O346  1  0.50008712  0.50537318  0.60910412  1
  O  O347  1  0.24602402  0.37480603  0.24660126  1
  O  O348  1  0.23518434  0.37548153  0.74105154  1
  O  O349  1  0.25199349  0.87514854  0.23286115  1
  O  O350  1  0.24909625  0.88195747  0.73319725  1
  O  O351  1  0.73668268  0.37142629  0.24256441  1
  O  O352  1  0.74311505  0.38052595  0.74063837  1
  O  O353  1  0.74070170  0.87874926  0.24874221  1
  O  O354  1  0.73037280  0.87312769  0.76174223  1
  O  O355  1  0.27798492  0.15757275  0.25475225  1
  O  O356  1  0.26069509  0.12274446  0.74912457  1
  O  O357  1  0.25797321  0.61233055  0.24646119  1
  O  O358  1  0.24890661  0.60313490  0.74461772  1
  O  O359  1  0.75161734  0.11584584  0.25866557  1
  O  O360  1  0.74706985  0.12724474  0.76002482  1
  O  O361  1  0.75448461  0.62653232  0.25130270  1
  O  O362  1  0.75056043  0.61910297  0.75422542  1
  O  O363  1  0.36998733  0.12019724  0.37015402  1
  O  O364  1  0.37331224  0.11896550  0.86722611  1
  O  O365  1  0.37796327  0.63286366  0.36361588  1
  O  O366  1  0.37662228  0.59756195  0.86597680  1
  O  O367  1  0.86280563  0.12576198  0.37580344  1
  O  O368  1  0.85778107  0.12439337  0.87544341  1
  O  O369  1  0.87575533  0.63179388  0.37874839  1
  O  O370  1  0.86449145  0.61123689  0.86002248  1
  O  O371  1  0.13340792  0.37282772  0.13431432  1
  O  O372  1  0.12690485  0.38371978  0.63075239  1
  O  O373  1  0.13841702  0.87861629  0.11908175  1
  O  O374  1  0.13325610  0.88725829  0.62260426  1
  O  O375  1  0.62857790  0.37637341  0.13161815  1
  O  O376  1  0.63198740  0.37155803  0.63225888  1
  O  O377  1  0.62401581  0.88390441  0.13379738  1
  O  O378  1  0.62400177  0.88609652  0.62040670  1
  O  O379  1  0.11144428  0.25217676  0.25795341  1
  O  O380  1  0.11575310  0.25471384  0.75677094  1
  O  O381  1  0.12757356  0.74010222  0.26285070  1
  O  O382  1  0.12277369  0.75431495  0.74961636  1
  O  O383  1  0.62188023  0.25516322  0.25350159  1
  O  O384  1  0.62870835  0.26303324  0.75835681  1
  O  O385  1  0.62128276  0.76252273  0.25539497  1
  O  O386  1  0.62287652  0.75925592  0.76030915  1
  O  O387  1  0.39095650  0.25149192  0.24457716  1
  O  O388  1  0.37125395  0.23902298  0.74841033  1
  O  O389  1  0.37303148  0.74502394  0.24620628  1
  O  O390  1  0.33849860  0.73806903  0.73657060  1
  O  O391  1  0.88625378  0.24723660  0.25169309  1
  O  O392  1  0.88584789  0.25624220  0.74937258  1
  O  O393  1  0.89671978  0.79203771  0.24066930  1
  O  O394  1  0.88022907  0.74405925  0.74695938  1
  O  O395  1  0.37743439  0.48902346  0.49930803  1
  O  O396  1  0.37494287  0.48670169  0.99128056  1
  O  O397  1  0.38068752  0.99487856  0.49626370  1
  O  O398  1  0.37538866  0.99477043  0.99306271  1
  O  O399  1  0.88571648  0.49355413  0.50725180  1
  O  O400  1  0.88406279  0.49489312  0.98510756  1
  O  O401  1  0.88494592  0.99090201  0.50724306  1
  O  O402  1  0.87649238  0.99029626  0.98798541  1
  O  O403  1  0.12806893  0.01415701  -0.00661471  1
  O  O404  1  0.11957031  0.01047799  0.51160644  1
  O  O405  1  0.11205919  0.48978425  0.00324270  1
  O  O406  1  0.10652989  0.49519174  0.50956183  1
  O  O407  1  0.62985909  -0.00783000  0.01582895  1
  O  O408  1  0.62003701  0.00214669  0.50823318  1
  O  O409  1  0.61308703  0.50661713  0.00255636  1
  O  O410  1  0.61544374  0.49357420  0.50004558  1
  O  O411  1  0.37102401  0.36440938  0.12078686  1
  O  O412  1  0.36756342  0.37379779  0.61511432  1
  O  O413  1  0.37377717  0.87548677  0.12004345  1
  O  O414  1  0.37100647  0.87487429  0.61766993  1
  O  O415  1  0.85478980  0.36564364  0.12889410  1
  O  O416  1  0.86577553  0.37317694  0.61378944  1
  O  O417  1  0.86964840  0.88405068  0.10323400  1
  O  O418  1  0.88398557  0.86227779  0.61715374  1
  O  O419  1  0.11742682  0.13556750  0.39544181  1
  O  O420  1  0.12768486  0.13587176  0.88262166  1
  O  O421  1  0.12139608  0.64291952  0.38553580  1
  O  O422  1  0.13576444  0.62852411  0.87805560  1
  O  O423  1  0.63107860  0.12967955  0.38118967  1
  O  O424  1  0.62954986  0.13659130  0.86591324  1
  O  O425  1  0.62101334  0.64105782  0.36862570  1
  O  O426  1  0.62456046  0.62640116  0.87904029  1
