# generated using pymatgen
data_V85Zn86O256
_symmetry_space_group_name_H-M   'P 1'
_cell_length_a   16.93789110
_cell_length_b   16.94673306
_cell_length_c   16.93954632
_cell_angle_alpha   90.02301001
_cell_angle_beta   90.06820408
_cell_angle_gamma   89.89866012
_symmetry_Int_Tables_number   1
_chemical_formula_structural   V85Zn86O256
_chemical_formula_sum   'V85 Zn86 O256'
_cell_volume   4862.34844468
_cell_formula_units_Z   1
loop_
 _symmetry_equiv_pos_site_id
 _symmetry_equiv_pos_as_xyz
  1  'x, y, z'
loop_
 _atom_site_type_symbol
 _atom_site_label
 _atom_site_symmetry_multiplicity
 _atom_site_fract_x
 _atom_site_fract_y
 _atom_site_fract_z
 _atom_site_occupancy
  V  V0  1  0.87893455  0.49928459  0.38341842  1
  V  V1  1  0.24762410  -0.00358960  0.75102184  1
  V  V2  1  0.63199926  0.36821634  0.74424843  1
  V  V3  1  0.37502123  0.49793817  0.86666197  1
  V  V4  1  0.11962548  0.25235017  0.87571136  1
  V  V5  1  0.49933296  0.12496489  0.12503392  1
  V  V6  1  -0.00497491  0.24440288  0.24986101  1
  V  V7  1  0.74957933  -0.00080938  0.74441270  1
  V  V8  1  -0.00379946  0.25241339  0.73978400  1
  V  V9  1  0.75005799  0.12386136  0.87016536  1
  V  V10  1  0.63486911  0.62657686  0.50725966  1
  V  V11  1  0.38966437  0.74260496  0.62612826  1
  V  V12  1  0.50372526  0.87271490  0.38117193  1
  V  V13  1  0.87053663  0.74836320  0.61977525  1
  V  V14  1  0.75302714  0.01305601  0.25358804  1
  V  V15  1  0.50135758  -0.00373033  -0.00364836  1
  V  V16  1  0.12166866  0.61480094  0.49746362  1
  V  V17  1  0.87817246  0.62407605  0.24946437  1
  V  V18  1  0.37725882  0.87510593  0.50208166  1
  V  V19  1  0.37892475  -0.00385429  0.37789466  1
  V  V20  1  0.24917600  0.24942814  0.00073531  1
  V  V21  1  0.62145876  0.51152784  0.12380024  1
  V  V22  1  0.74807824  0.37694289  0.12512896  1
  V  V23  1  0.38171205  0.37227773  -0.00119982  1
  V  V24  1  0.11595086  0.75375593  0.37864926  1
  V  V25  1  0.62038628  0.12633573  0.48163920  1
  V  V26  1  -0.00149705  0.75228498  0.75485510  1
  V  V27  1  0.37638862  0.24860063  0.12653308  1
  V  V28  1  0.11971766  0.12420490  0.00145701  1
  V  V29  1  0.13300974  0.50229629  0.63036930  1
  V  V30  1  0.87984505  -0.00486505  0.86921712  1
  V  V31  1  0.86810396  0.36993202  0.51312039  1
  V  V32  1  0.87321301  0.12909187  0.73865729  1
  V  V33  1  0.38261034  0.74066878  0.12781439  1
  V  V34  1  0.24641489  0.74593682  0.50406206  1
  V  V35  1  0.13019289  0.38089513  0.75334648  1
  V  V36  1  0.25741100  0.25167406  0.51058333  1
  V  V37  1  0.61560725  0.00433679  0.61575732  1
  V  V38  1  0.00079188  0.37884306  0.38402387  1
  V  V39  1  0.75201084  0.49964242  0.25097669  1
  V  V40  1  0.49297335  0.38199704  0.37825182  1
  V  V41  1  0.74828874  0.24950830  -0.00370726  1
  V  V42  1  0.87903794  0.01875210  0.37082993  1
  V  V43  1  0.87114245  0.24363660  0.12824697  1
  V  V44  1  0.61345438  0.87312438  0.75327654  1
  V  V45  1  0.68641883  0.69673104  0.93802646  1
  V  V46  1  0.62666248  -0.00151046  0.12495096  1
  V  V47  1  0.38651204  0.62305108  0.74737875  1
  V  V48  1  0.25130957  0.12495121  0.37378356  1
  V  V49  1  -0.01204373  0.37950159  0.87402551  1
  V  V50  1  0.25012296  0.37626651  0.12502305  1
  V  V51  1  0.74942784  0.87316599  0.61705276  1
  V  V52  1  0.87879126  0.87048943  0.48633122  1
  V  V53  1  0.24904532  0.87070255  0.62845500  1
  V  V54  1  0.24792119  0.61873343  0.87391724  1
  V  V55  1  0.11963254  -0.00295295  0.62442211  1
  V  V56  1  0.63501845  0.74757496  0.38068933  1
  V  V57  1  0.86948328  0.75083851  0.12127137  1
  V  V58  1  -0.00074224  0.61985105  0.62436882  1
  V  V59  1  0.24744677  0.87159474  0.12768012  1
  V  V60  1  0.50216050  0.51329514  0.00310667  1
  V  V61  1  0.24763796  0.12412881  0.87512858  1
  V  V62  1  0.87060345  0.87133364  -0.00638685  1
  V  V63  1  0.50392949  0.24930075  0.25833422  1
  V  V64  1  0.12194105  0.87381383  0.75770194  1
  V  V65  1  -0.00197991  -0.00465715  -0.00230031  1
  V  V66  1  0.11774329  0.87556130  0.25493938  1
  V  V67  1  0.12715705  0.25035232  0.37405338  1
  V  V68  1  0.12571765  0.50484568  0.11894335  1
  V  V69  1  0.37798637  -0.00090134  0.87393395  1
  V  V70  1  0.49676449  0.50736900  0.50509158  1
  V  V71  1  0.12285021  0.12534539  0.50093922  1
  V  V72  1  0.62816909  0.37214814  0.26099786  1
  V  V73  1  0.37442565  0.87446530  0.00163311  1
  V  V74  1  0.63668846  0.49873432  0.62860545  1
  V  V75  1  0.25121180  -0.00274488  0.24876052  1
  V  V76  1  0.62776279  0.87356239  0.25091266  1
  V  V77  1  0.37598319  0.12875956  0.74029970  1
  V  V78  1  -0.00826134  0.50316908  -0.00260958  1
  V  V79  1  0.00414957  0.62790278  0.12051084  1
  V  V80  1  0.12854344  0.74772076  0.88098816  1
  V  V81  1  0.12383889  0.37649409  0.24831453  1
  V  V82  1  0.86924632  0.62155653  0.76344168  1
  V  V83  1  0.62470313  0.12283286  -0.00387695  1
  V  V84  1  0.75132346  0.23683008  0.49888285  1
  Zn  Zn85  1  0.53740688  0.72531687  0.80968355  1
  Zn  Zn86  1  0.26028166  0.37737253  0.63563987  1
  Zn  Zn87  1  0.25386833  0.50081156  0.25933201  1
  Zn  Zn88  1  -0.00213866  0.75550996  0.25261877  1
  Zn  Zn89  1  0.37510240  0.12512026  0.25061936  1
  Zn  Zn90  1  0.50690310  0.73780904  0.24517135  1
  Zn  Zn91  1  -0.00672087  0.12305845  0.12660088  1
  Zn  Zn92  1  0.49321741  0.25580938  0.74043261  1
  Zn  Zn93  1  0.49368836  0.13045255  0.61166998  1
  Zn  Zn94  1  0.24425127  0.73999634  0.00501970  1
  Zn  Zn95  1  0.25744971  0.61707858  0.37659075  1
  Zn  Zn96  1  0.12091941  -0.00110935  0.12534505  1
  Zn  Zn97  1  0.61985696  0.24706824  0.86856867  1
  Zn  Zn98  1  -0.00489286  0.12706274  0.61923760  1
  Zn  Zn99  1  0.38183457  0.37284727  0.50796047  1
  Zn  Zn100  1  0.00461721  -0.00804345  0.48904940  1
  Zn  Zn101  1  0.75745803  0.49850998  0.76512640  1
  Zn  Zn102  1  0.74793619  0.87245060  0.12106930  1
  Zn  Zn103  1  0.50390980  0.37157177  0.87133581  1
  Zn  Zn104  1  0.75656310  0.62859493  0.38043825  1
  Zn  Zn105  1  0.38370612  0.60551202  0.26072639  1
  Zn  Zn106  1  0.86952603  0.37951809  -0.00349204  1
  Zn  Zn107  1  0.18567327  0.18659201  0.18678819  1
  Zn  Zn108  1  0.18375253  0.18632494  0.68962048  1
  Zn  Zn109  1  0.19174214  0.68617555  0.19429676  1
  Zn  Zn110  1  0.19272868  0.68354519  0.69475912  1
  Zn  Zn111  1  0.68435013  0.18817590  0.18634900  1
  Zn  Zn112  1  0.69143673  0.19035652  0.67379132  1
  Zn  Zn113  1  0.69097867  0.68784945  0.18965561  1
  Zn  Zn114  1  0.68742111  0.68821770  0.68664838  1
  Zn  Zn115  1  0.31426659  0.31649929  0.31433674  1
  Zn  Zn116  1  0.31215054  0.31066114  0.81571578  1
  Zn  Zn117  1  0.32797967  0.77699071  0.32960596  1
  Zn  Zn118  1  0.34487895  0.79373441  0.83046617  1
  Zn  Zn119  1  0.81305188  0.30954526  0.31779869  1
  Zn  Zn120  1  0.80904654  0.31100753  0.80690650  1
  Zn  Zn121  1  0.81088634  0.81337138  0.30677326  1
  Zn  Zn122  1  0.80788919  0.81222934  0.80712690  1
  Zn  Zn123  1  0.18838039  0.43602026  0.44125608  1
  Zn  Zn124  1  0.18661260  0.43958244  0.93846021  1
  Zn  Zn125  1  0.19080486  0.93406637  0.43696358  1
  Zn  Zn126  1  0.18870268  0.93562647  0.93846391  1
  Zn  Zn127  1  0.69003480  0.43817756  0.43876089  1
  Zn  Zn128  1  0.68685402  0.43589601  0.93513634  1
  Zn  Zn129  1  0.69358025  0.94083907  0.43607783  1
  Zn  Zn130  1  0.69000033  0.93291482  0.93311568  1
  Zn  Zn131  1  0.31100087  0.06207259  0.06400809  1
  Zn  Zn132  1  0.30627164  0.05827020  0.56019908  1
  Zn  Zn133  1  0.31223454  0.56096707  0.06029399  1
  Zn  Zn134  1  0.31366761  0.56141380  0.56258223  1
  Zn  Zn135  1  0.81098933  0.06006365  0.06162708  1
  Zn  Zn136  1  0.81027772  0.05768103  0.55650717  1
  Zn  Zn137  1  0.80817946  0.56822235  0.05686947  1
  Zn  Zn138  1  0.81381797  0.55962905  0.56452567  1
  Zn  Zn139  1  0.44001262  0.43778854  0.18746870  1
  Zn  Zn140  1  0.44535604  0.43535946  0.68288054  1
  Zn  Zn141  1  0.43948716  0.93221314  0.18943667  1
  Zn  Zn142  1  0.43628889  0.94062946  0.68306163  1
  Zn  Zn143  1  0.93723230  0.43558389  0.18696429  1
  Zn  Zn144  1  0.94159382  0.44394966  0.69009509  1
  Zn  Zn145  1  0.93456715  0.93960588  0.18503465  1
  Zn  Zn146  1  0.93793533  0.93476136  0.68304632  1
  Zn  Zn147  1  0.06232442  0.06238583  0.31228875  1
  Zn  Zn148  1  0.05840577  0.06462026  0.81161084  1
  Zn  Zn149  1  0.06624001  0.56188065  0.31127939  1
  Zn  Zn150  1  0.05959035  0.56505208  0.81358202  1
  Zn  Zn151  1  0.56004477  0.05839059  0.31038809  1
  Zn  Zn152  1  0.56129742  0.05900886  0.80842734  1
  Zn  Zn153  1  0.56356155  0.56354012  0.31502047  1
  Zn  Zn154  1  0.59997844  0.54904209  0.83888694  1
  Zn  Zn155  1  0.43858193  0.18633350  0.43430827  1
  Zn  Zn156  1  0.43955264  0.18682810  0.93064662  1
  Zn  Zn157  1  0.44688768  0.68555398  0.43691319  1
  Zn  Zn158  1  0.43342901  0.68514637  0.94201228  1
  Zn  Zn159  1  0.93890647  0.19375048  0.43967065  1
  Zn  Zn160  1  0.93345126  0.18745952  0.93335015  1
  Zn  Zn161  1  0.93945142  0.68697317  0.43967598  1
  Zn  Zn162  1  0.94099156  0.69044978  0.93769974  1
  Zn  Zn163  1  0.05761210  0.31497916  0.06175408  1
  Zn  Zn164  1  0.06731638  0.31632650  0.56325589  1
  Zn  Zn165  1  0.05788689  0.81482925  0.06332842  1
  Zn  Zn166  1  0.05795237  0.80946757  0.56558510  1
  Zn  Zn167  1  0.56561316  0.31296043  0.06672328  1
  Zn  Zn168  1  0.56479150  0.30876905  0.56470462  1
  Zn  Zn169  1  0.56144945  0.81296550  0.05930296  1
  Zn  Zn170  1  0.56653993  0.81320012  0.56095768  1
  O  O171  1  0.12218277  0.12421760  0.11088195  1
  O  O172  1  0.12414035  0.11537850  0.61735736  1
  O  O173  1  0.11646920  0.61756670  0.13060604  1
  O  O174  1  0.12011858  0.62048881  0.62320133  1
  O  O175  1  0.61934183  0.11832818  0.11585469  1
  O  O176  1  0.62582640  0.11138408  0.61783190  1
  O  O177  1  0.62951986  0.61046393  0.13270565  1
  O  O178  1  0.62838385  0.61367672  0.61979790  1
  O  O179  1  0.38945109  0.37058553  0.38395064  1
  O  O180  1  0.37660912  0.38033457  0.88152438  1
  O  O181  1  0.38380231  0.87350818  0.38092848  1
  O  O182  1  0.35706770  0.89281345  0.89137450  1
  O  O183  1  0.88423054  0.38189492  0.38176246  1
  O  O184  1  0.88442764  0.37344334  0.87327380  1
  O  O185  1  0.87169858  0.87301475  0.38445445  1
  O  O186  1  0.87096485  0.88416058  0.87807896  1
  O  O187  1  0.25862237  0.00216097  0.36742742  1
  O  O188  1  0.25249670  0.00765480  0.87042901  1
  O  O189  1  0.23896933  0.50482294  0.37411486  1
  O  O190  1  0.26297179  0.50367089  0.88026266  1
  O  O191  1  0.76272806  -0.00194059  0.36166515  1
  O  O192  1  0.75943261  0.00532904  0.86507518  1
  O  O193  1  0.76173483  0.50043368  0.36737714  1
  O  O194  1  0.71013268  0.51848829  0.86633446  1
  O  O195  1  0.24075739  0.49137899  0.12066699  1
  O  O196  1  0.23691382  0.50013790  0.62302911  1
  O  O197  1  0.24656630  0.99502330  0.13394061  1
  O  O198  1  0.23739077  0.99239427  0.62983269  1
  O  O199  1  0.74514922  0.49280343  0.12862672  1
  O  O200  1  0.73928088  0.50175934  0.63195578  1
  O  O201  1  0.74585249  0.99841757  0.13604498  1
  O  O202  1  0.74288428  0.99316115  0.62755013  1
  O  O203  1  0.00918208  0.36642507  0.25389447  1
  O  O204  1  0.00586096  0.37000477  0.75650343  1
  O  O205  1  0.01428804  0.87670290  0.24203708  1
  O  O206  1  0.00933317  0.86505553  0.74341262  1
  O  O207  1  0.50896405  0.36923612  0.25810384  1
  O  O208  1  0.51634124  0.37414580  0.75061848  1
  O  O209  1  0.51455113  0.87634918  0.26005989  1
  O  O210  1  0.51400882  0.88322477  0.74412109  1
  O  O211  1  0.49955522  0.13254921  0.24492125  1
  O  O212  1  0.48120533  0.11892693  0.74851555  1
  O  O213  1  0.49599325  0.62558847  0.25336832  1
  O  O214  1  0.48645405  0.62973017  0.75723415  1
  O  O215  1  1.00797916  0.14027969  0.24581526  1
  O  O216  1  0.99165003  0.13529232  0.74784141  1
  O  O217  1  0.99089810  0.62386891  0.23999223  1
  O  O218  1  0.99083628  0.63249401  0.74361686  1
  O  O219  1  0.36958503  0.25340092  0.00302323  1
  O  O220  1  0.35935140  0.24447438  0.49681987  1
  O  O221  1  0.36905450  0.76077122  0.01361802  1
  O  O222  1  0.36733968  0.75277477  0.51215750  1
  O  O223  1  0.86192173  0.25208081  0.00486747  1
  O  O224  1  0.86895516  0.26095925  0.50046769  1
  O  O225  1  0.88379228  0.76108280  0.00678568  1
  O  O226  1  0.87951045  0.75616035  0.51093138  1
  O  O227  1  0.13146280  0.24272856  0.49416762  1
  O  O228  1  0.12611753  0.24375365  0.99560773  1
  O  O229  1  0.12861529  0.74300987  0.49865548  1
  O  O230  1  0.12344346  0.75951568  0.98442328  1
  O  O231  1  0.63431992  0.23248953  0.49929717  1
  O  O232  1  0.63551812  0.24404658  0.99964561  1
  O  O233  1  0.62334814  0.73922439  0.49442951  1
  O  O234  1  0.63994273  0.76611542  0.99656211  1
  O  O235  1  0.49604304  0.24448286  0.13339558  1
  O  O236  1  0.50244923  0.24158743  0.62801211  1
  O  O237  1  0.48673106  0.75375373  0.12263939  1
  O  O238  1  0.48766787  0.75185542  0.62048154  1
  O  O239  1  0.98833876  0.25151426  0.13102395  1
  O  O240  1  1.00671072  0.24874457  0.63677140  1
  O  O241  1  0.99306801  0.74210694  0.12750747  1
  O  O242  1  0.99421631  0.74045163  0.63644182  1
  O  O243  1  0.00580633  0.25741499  0.36710960  1
  O  O244  1  0.00248511  0.25879141  0.86855898  1
  O  O245  1  0.01132843  0.74973784  0.37406269  1
  O  O246  1  0.01052616  0.74535412  0.86191592  1
  O  O247  1  0.49853636  0.25632512  0.36319138  1
  O  O248  1  0.50155680  0.25052440  0.86165532  1
  O  O249  1  0.51583856  0.75987070  0.37233046  1
  O  O250  1  0.45292687  0.76681272  0.86997511  1
  O  O251  1  0.24031471  0.13248449  0.49594341  1
  O  O252  1  0.24055107  0.12875783  0.99571246  1
  O  O253  1  0.24031175  0.63172365  0.50108212  1
  O  O254  1  0.25579696  0.62520625  0.98312630  1
  O  O255  1  0.74347468  0.13010705  0.49663271  1
  O  O256  1  0.74431912  0.12971726  0.99293010  1
  O  O257  1  0.74045191  0.62021370  0.49857076  1
  O  O258  1  0.73767978  0.63135032  0.99742886  1
  O  O259  1  0.25982487  0.36892886  0.00402210  1
  O  O260  1  0.24780851  0.35796574  0.50228117  1
  O  O261  1  0.25457116  0.87766210  0.01446640  1
  O  O262  1  0.25510096  0.86692040  0.50920548  1
  O  O263  1  0.74828624  0.36740730  0.00604240  1
  O  O264  1  0.76661841  0.37835320  0.50209498  1
  O  O265  1  0.76665516  0.88676356  0.00382216  1
  O  O266  1  0.76051303  0.88034499  0.51016621  1
  O  O267  1  0.12317181  0.49047861  0.23687407  1
  O  O268  1  0.11947835  0.49137477  0.74467473  1
  O  O269  1  0.13509848  0.99429317  0.25091435  1
  O  O270  1  0.12545358  0.99362451  0.74474662  1
  O  O271  1  0.63273228  0.49065349  0.24408199  1
  O  O272  1  0.61845245  0.49311706  0.73471960  1
  O  O273  1  0.63555576  0.99458379  0.24741809  1
  O  O274  1  0.62941000  0.99554004  0.73473299  1
  O  O275  1  0.36392629  -0.00361745  0.25597907  1
  O  O276  1  0.36801119  0.00274093  0.75733560  1
  O  O277  1  0.36765095  0.49231661  0.24709886  1
  O  O278  1  0.38484995  0.50361022  0.76159674  1
  O  O279  1  0.86443372  -0.00230526  0.25870257  1
  O  O280  1  0.87189391  0.00386125  0.75342270  1
  O  O281  1  0.87221446  0.50535529  0.25607147  1
  O  O282  1  0.87511886  0.51595676  0.74987309  1
  O  O283  1  0.11750945  0.37001639  0.36848576  1
  O  O284  1  0.11569673  0.37144814  0.87059151  1
  O  O285  1  0.12677433  0.86915839  0.36703129  1
  O  O286  1  0.13057179  0.86922642  0.86257687  1
  O  O287  1  0.62065052  0.37829372  0.36454877  1
  O  O288  1  0.62385140  0.36870240  0.85987040  1
  O  O289  1  0.62201949  0.87205653  0.37251132  1
  O  O290  1  0.62808710  0.88336362  0.85235503  1
  O  O291  1  0.38086076  0.13073486  0.12709442  1
  O  O292  1  0.37236327  0.11265686  0.63718365  1
  O  O293  1  0.36938209  0.64020154  0.12485965  1
  O  O294  1  0.37341951  0.63421259  0.63040780  1
  O  O295  1  0.87261339  0.13953988  0.12037278  1
  O  O296  1  0.87650158  0.11513364  0.63467781  1
  O  O297  1  0.88127114  0.63071191  0.13026760  1
  O  O298  1  0.88279308  0.63177448  0.62629732  1
  O  O299  1  0.25452721  0.25501130  0.11943569  1
  O  O300  1  0.24285325  0.24887746  0.61247968  1
  O  O301  1  0.25607370  0.75786792  0.12370288  1
  O  O302  1  0.24876717  0.75336363  0.61669019  1
  O  O303  1  0.75291071  0.25626461  0.11869118  1
  O  O304  1  0.75040335  0.25439183  0.60099131  1
  O  O305  1  0.76552370  0.75254553  0.13048797  1
  O  O306  1  0.76081841  0.75890364  0.62795790  1
  O  O307  1  0.24471656  0.24396135  0.38075123  1
  O  O308  1  0.24136602  0.24340969  0.88260111  1
  O  O309  1  0.23416275  0.75469909  0.39389724  1
  O  O310  1  0.24511329  0.74260112  0.87803548  1
  O  O311  1  0.75037083  0.26365173  0.39849909  1
  O  O312  1  0.74892365  0.24201666  0.88190148  1
  O  O313  1  0.73930014  0.75017526  0.37163195  1
  O  O314  1  0.75003296  0.74739424  0.87790240  1
  O  O315  1  0.00422085  0.11738107  -0.00170541  1
  O  O316  1  0.01208718  0.12434489  0.49962653  1
  O  O317  1  -0.00254243  0.61883706  0.01167168  1
  O  O318  1  0.01026873  0.63125360  0.51212542  1
  O  O319  1  0.50437100  0.11556934  0.00306029  1
  O  O320  1  0.51512400  0.12475058  0.49405161  1
  O  O321  1  0.49376798  0.61166376  0.00563656  1
  O  O322  1  0.51483186  0.61286084  0.49445994  1
  O  O323  1  0.50598447  0.38352569  0.49270253  1
  O  O324  1  0.48825727  0.36912413  0.99928659  1
  O  O325  1  0.49630175  0.87358636  0.48862195  1
  O  O326  1  0.48932611  0.88905764  1.00502326  1
  O  O327  1  0.99377276  0.36679559  0.48823623  1
  O  O328  1  0.99442946  0.38220080  0.99107961  1
  O  O329  1  0.98559385  0.87795215  0.50838961  1
  O  O330  1  0.99051849  0.88911304  1.00113486  1
  O  O331  1  0.51201603  0.49066449  0.39086079  1
  O  O332  1  0.49756939  0.49530937  0.89110775  1
  O  O333  1  0.48545938  0.99086178  0.36795382  1
  O  O334  1  0.48946223  1.00391943  0.88348373  1
  O  O335  1  0.99335330  0.48865753  0.36754268  1
  O  O336  1  1.00553685  0.49267667  0.88574218  1
  O  O337  1  0.98417248  1.00150331  0.37031625  1
  O  O338  1  0.98716429  1.00446211  0.87983596  1
  O  O339  1  -0.00030641  0.00554875  0.11472122  1
  O  O340  1  0.01166275  0.00250372  0.62287324  1
  O  O341  1  0.00490962  0.50627029  0.11927181  1
  O  O342  1  0.01077590  0.51453518  0.62971671  1
  O  O343  1  0.50576576  0.00572010  0.11981821  1
  O  O344  1  0.51281578  0.00385198  0.62049039  1
  O  O345  1  0.50824302  0.49013206  0.11167705  1
  O  O346  1  0.51361012  0.49860154  0.60876725  1
  O  O347  1  0.23610185  0.37086562  0.24459582  1
  O  O348  1  0.23402596  0.36652753  0.75259699  1
  O  O349  1  0.24125723  0.88144314  0.23934258  1
  O  O350  1  0.24069802  0.88062337  0.74350542  1
  O  O351  1  0.74526498  0.37745297  0.24431050  1
  O  O352  1  0.73819494  0.38144025  0.75170900  1
  O  O353  1  0.73949169  0.88415661  0.24735766  1
  O  O354  1  0.74348910  0.88147698  0.73543876  1
  O  O355  1  0.25025384  0.11612443  0.25504491  1
  O  O356  1  0.25531110  0.11705265  0.75399194  1
  O  O357  1  0.25838714  0.62118025  0.25546288  1
  O  O358  1  0.26356222  0.62559368  0.76453947  1
  O  O359  1  0.74521771  0.11191924  0.24746044  1
  O  O360  1  0.75574168  0.12072606  0.74931350  1
  O  O361  1  0.76515969  0.61938380  0.25207402  1
  O  O362  1  0.76790331  0.62911793  0.74544621  1
  O  O363  1  0.36963767  0.11283630  0.37301786  1
  O  O364  1  0.36711163  0.11393682  0.86828669  1
  O  O365  1  0.36453011  0.66631466  0.36494761  1
  O  O366  1  0.36959048  0.61369981  0.86939129  1
  O  O367  1  0.87689299  0.11716662  0.37597912  1
  O  O368  1  0.86865924  0.11760736  0.86243326  1
  O  O369  1  0.87882706  0.61750691  0.36867834  1
  O  O370  1  0.88023708  0.62935885  0.86168065  1
  O  O371  1  0.12772169  0.37951979  0.13123742  1
  O  O372  1  0.12571587  0.38515547  0.63499404  1
  O  O373  1  0.13195665  0.87623929  0.13079975  1
  O  O374  1  0.12833222  0.87995492  0.63237644  1
  O  O375  1  0.63611055  0.37953872  0.13339945  1
  O  O376  1  0.62608754  0.38609160  0.63291917  1
  O  O377  1  0.62517209  0.88161184  0.13392480  1
  O  O378  1  0.63115677  0.88654123  0.62396343  1
  O  O379  1  0.11897716  0.25692417  0.25414728  1
  O  O380  1  0.11528562  0.25476453  0.75742476  1
  O  O381  1  0.12433585  0.75837747  0.26102753  1
  O  O382  1  0.11939213  0.75671842  0.75590527  1
  O  O383  1  0.61611809  0.25983896  0.24369165  1
  O  O384  1  0.63185791  0.26075915  0.74468586  1
  O  O385  1  0.62649966  0.75852571  0.25613722  1
  O  O386  1  0.62023739  0.76703187  0.73899819  1
  O  O387  1  0.38346266  0.25036427  0.24376217  1
  O  O388  1  0.36787663  0.23085807  0.75290046  1
  O  O389  1  0.38161470  0.76712633  0.22939131  1
  O  O390  1  0.36667529  0.74149680  0.73010251  1
  O  O391  1  0.88292474  0.25669548  0.24195589  1
  O  O392  1  0.88233017  0.24091364  0.75158345  1
  O  O393  1  0.87929295  0.74210256  0.24394739  1
  O  O394  1  0.88222969  0.74517246  0.74128234  1
  O  O395  1  0.39352622  0.50505858  0.50095835  1
  O  O396  1  0.38605207  0.49010323  0.99669669  1
  O  O397  1  0.36620407  0.98889480  0.48964210  1
  O  O398  1  0.38149622  0.99785045  0.99472886  1
  O  O399  1  0.87524749  0.49290508  0.48899807  1
  O  O400  1  0.88656969  0.49834992  1.00623720  1
  O  O401  1  0.87597920  0.99420665  0.48253294  1
  O  O402  1  0.88091584  0.99769345  0.98978944  1
  O  O403  1  0.11544851  0.00656135  -0.00220884  1
  O  O404  1  0.12538475  0.00579745  0.50563204  1
  O  O405  1  0.11275025  0.49290913  0.01325450  1
  O  O406  1  0.12306659  0.51013048  0.50983967  1
  O  O407  1  0.61835077  0.00060930  0.00222997  1
  O  O408  1  0.63338949  0.01135368  0.50749009  1
  O  O409  1  0.60885246  0.49146267  0.00947878  1
  O  O410  1  0.62513823  0.50472955  0.51112387  1
  O  O411  1  0.37015075  0.36649186  0.11618118  1
  O  O412  1  0.37087960  0.38166375  0.62024704  1
  O  O413  1  0.36742996  0.87623107  0.11531979  1
  O  O414  1  0.36985668  0.86586554  0.62189910  1
  O  O415  1  0.86158294  0.36740526  0.12386556  1
  O  O416  1  0.88670326  0.38290369  0.60973587  1
  O  O417  1  0.87543192  0.86696572  0.11614415  1
  O  O418  1  0.86742448  0.86768500  0.61866446  1
  O  O419  1  0.13131533  0.12795026  0.38240206  1
  O  O420  1  0.12632573  0.13013201  0.88400490  1
  O  O421  1  0.12145920  0.63323705  0.38503064  1
  O  O422  1  0.13453858  0.63484482  0.86716679  1
  O  O423  1  0.62629266  0.11674627  0.38363885  1
  O  O424  1  0.63153313  0.12323132  0.87774768  1
  O  O425  1  0.63214078  0.63266982  0.38371794  1
  O  O426  1  0.60633904  0.65706318  0.87776680  1
