# generated using pymatgen
data_V85Zn86O256
_symmetry_space_group_name_H-M   'P 1'
_cell_length_a   16.94394771
_cell_length_b   16.94070096
_cell_length_c   16.94633399
_cell_angle_alpha   90.01573383
_cell_angle_beta   90.03063345
_cell_angle_gamma   89.94906129
_symmetry_Int_Tables_number   1
_chemical_formula_structural   V85Zn86O256
_chemical_formula_sum   'V85 Zn86 O256'
_cell_volume   4864.31275594
_cell_formula_units_Z   1
loop_
 _symmetry_equiv_pos_site_id
 _symmetry_equiv_pos_as_xyz
  1  'x, y, z'
loop_
 _atom_site_type_symbol
 _atom_site_label
 _atom_site_symmetry_multiplicity
 _atom_site_fract_x
 _atom_site_fract_y
 _atom_site_fract_z
 _atom_site_occupancy
  V  V0  1  0.25113003  0.62752782  0.37522400  1
  V  V1  1  0.49486849  0.63886199  0.12171385  1
  V  V2  1  0.00267853  0.49471011  0.49111834  1
  V  V3  1  0.24900385  0.62765588  0.87641000  1
  V  V4  1  0.12346880  0.62571187  0.00306631  1
  V  V5  1  0.25116960  0.24663085  -0.00163463  1
  V  V6  1  0.61693263  0.86773213  0.74988414  1
  V  V7  1  0.62747310  0.50356645  0.12465651  1
  V  V8  1  0.75853690  0.12200785  0.87562655  1
  V  V9  1  0.51771617  0.87494370  0.37521035  1
  V  V10  1  0.75387429  -0.00180589  0.75083858  1
  V  V11  1  0.37873470  0.12206421  0.25807245  1
  V  V12  1  0.87808202  0.61643117  0.25220767  1
  V  V13  1  0.50610151  -0.00331422  -0.00228126  1
  V  V14  1  -0.01825254  0.00252656  -0.00289741  1
  V  V15  1  0.87284781  0.37336934  0.00145716  1
  V  V16  1  0.12460525  0.24798132  0.87326561  1
  V  V17  1  0.11968157  0.12847045  0.50623520  1
  V  V18  1  0.37978895  0.64055732  0.75200247  1
  V  V19  1  0.74688857  0.25526886  0.50395530  1
  V  V20  1  0.37496864  0.24957385  0.62313760  1
  V  V21  1  0.87660944  0.24927763  0.14137676  1
  V  V22  1  0.25043084  0.37142917  0.12949840  1
  V  V23  1  0.25106026  0.75841332  0.01534730  1
  V  V24  1  0.50302541  0.62236414  0.62681502  1
  V  V25  1  0.37561833  0.37229539  -0.00049336  1
  V  V26  1  0.12643844  0.00029858  0.12259546  1
  V  V27  1  0.25266829  0.50214903  0.75034615  1
  V  V28  1  -0.00321859  0.61906267  0.12751517  1
  V  V29  1  0.50104726  0.24851409  0.74965462  1
  V  V30  1  0.11262415  0.37071052  0.25216663  1
  V  V31  1  0.75222176  0.25225146  0.00233862  1
  V  V32  1  0.12736244  0.87658425  0.24827789  1
  V  V33  1  0.74553954  0.49558744  0.73676220  1
  V  V34  1  0.25200370  0.12645939  0.37728341  1
  V  V35  1  0.13105676  0.63174140  0.50064867  1
  V  V36  1  0.12499315  0.37507593  0.74910661  1
  V  V37  1  0.37684557  0.24470373  0.12543149  1
  V  V38  1  0.62976412  0.12182869  0.49337871  1
  V  V39  1  0.00067871  0.62415914  0.62481059  1
  V  V40  1  -0.00140128  0.75080407  0.75065842  1
  V  V41  1  0.25188557  -0.00323911  0.25392205  1
  V  V42  1  -0.01824242  0.77994906  0.21439378  1
  V  V43  1  0.75090910  0.61882100  0.36975283  1
  V  V44  1  0.25124991  0.37543085  0.62397126  1
  V  V45  1  0.62637771  0.61926938  0.50253081  1
  V  V46  1  0.62706081  0.25185668  0.87392126  1
  V  V47  1  0.63038939  -0.02334791  0.14396706  1
  V  V48  1  -0.00022295  0.37261270  0.87206190  1
  V  V49  1  0.38019470  0.37693226  0.49258204  1
  V  V50  1  0.00009368  0.49807648  -0.00384778  1
  V  V51  1  0.62263636  0.00038709  0.61943883  1
  V  V52  1  0.62792577  0.12553631  0.00164571  1
  V  V53  1  0.11865919  0.75190955  0.37639428  1
  V  V54  1  0.50777787  0.12630195  0.12948419  1
  V  V55  1  0.74794975  0.62444087  0.87736378  1
  V  V56  1  0.61465099  0.38880520  0.25995282  1
  V  V57  1  0.81492506  0.06815648  0.30825011  1
  V  V58  1  0.37565208  0.49977885  0.87318124  1
  V  V59  1  0.74449658  0.74957262  0.49587208  1
  V  V60  1  -0.00553531  0.00476755  0.49926646  1
  V  V61  1  0.87390296  0.87675903  0.49575029  1
  V  V62  1  0.11921988  0.00235587  0.62694206  1
  V  V63  1  0.87977617  0.12270000  0.74338506  1
  V  V64  1  0.12620478  0.50009303  0.62430757  1
  V  V65  1  0.62795094  0.37528788  0.73430825  1
  V  V66  1  0.38059007  -0.00295251  0.87481496  1
  V  V67  1  0.75014891  0.87196374  0.62185338  1
  V  V68  1  0.37276233  0.75026759  0.60786599  1
  V  V69  1  -0.01904049  0.88003130  0.87668954  1
  V  V70  1  0.75732701  0.76670870  0.01310871  1
  V  V71  1  0.87849066  0.25032536  0.62306619  1
  V  V72  1  0.11314556  0.25317621  0.37333729  1
  V  V73  1  -0.00217485  0.12965324  0.13791928  1
  V  V74  1  0.36594499  0.88488677  0.48828015  1
  V  V75  1  0.62127853  0.25340846  0.37447399  1
  V  V76  1  0.12273900  0.75678141  0.87898388  1
  V  V77  1  0.75000939  0.37984924  0.13843414  1
  V  V78  1  0.87408843  0.37580204  0.49864501  1
  V  V79  1  0.25004984  -0.00278858  0.74913717  1
  V  V80  1  0.38567330  0.50127380  0.37204385  1
  V  V81  1  0.37104199  0.63317979  0.24101119  1
  V  V82  1  0.25211339  0.12165040  0.87901685  1
  V  V83  1  0.87100527  0.49711072  0.87153588  1
  V  V84  1  0.49995990  0.49854512  0.00164920  1
  Zn  Zn85  1  0.50175108  0.37482598  0.87397125  1
  Zn  Zn86  1  0.12189622  0.12232036  -0.00041911  1
  Zn  Zn87  1  0.50030134  0.76054054  0.25129622  1
  Zn  Zn88  1  0.24926225  0.25191277  0.49873967  1
  Zn  Zn89  1  0.24886044  0.49704814  0.25133578  1
  Zn  Zn90  1  0.00210933  0.24315052  0.74357750  1
  Zn  Zn91  1  0.49542424  0.86465255  0.87265095  1
  Zn  Zn92  1  0.49487681  0.00223543  0.49668543  1
  Zn  Zn93  1  0.38348118  0.86113734  0.02079287  1
  Zn  Zn94  1  0.62112870  0.74458067  0.87231575  1
  Zn  Zn95  1  0.12259316  0.87647198  0.74947320  1
  Zn  Zn96  1  0.00038338  0.87767606  0.38089463  1
  Zn  Zn97  1  0.87621405  0.74954094  0.62463766  1
  Zn  Zn98  1  0.24687566  0.86963903  0.62144886  1
  Zn  Zn99  1  0.50727030  0.49714107  0.49967728  1
  Zn  Zn100  1  0.62549405  0.62732403  -0.00305242  1
  Zn  Zn101  1  0.87369434  0.62216941  0.74720578  1
  Zn  Zn102  1  0.87689766  0.49038652  0.37058162  1
  Zn  Zn103  1  0.37768963  0.12295215  0.74725994  1
  Zn  Zn104  1  0.12606256  0.49344968  0.12512830  1
  Zn  Zn105  1  0.49698043  0.25737366  0.25779877  1
  Zn  Zn106  1  0.50076559  0.12369479  0.62261710  1
  Zn  Zn107  1  0.18617231  0.18527283  0.18995915  1
  Zn  Zn108  1  0.19072421  0.18451640  0.68925150  1
  Zn  Zn109  1  0.17827871  0.68752479  0.19095283  1
  Zn  Zn110  1  0.18928396  0.69044491  0.68915707  1
  Zn  Zn111  1  0.68736641  0.19439471  0.19431366  1
  Zn  Zn112  1  0.69169891  0.18647682  0.68348659  1
  Zn  Zn113  1  0.68557340  0.77729385  0.19998345  1
  Zn  Zn114  1  0.68838013  0.68440616  0.68572853  1
  Zn  Zn115  1  0.31026954  0.30909253  0.31383712  1
  Zn  Zn116  1  0.31375576  0.31246210  0.81085025  1
  Zn  Zn117  1  0.30994494  0.80899472  0.31198403  1
  Zn  Zn118  1  0.31034225  0.81573761  0.81846768  1
  Zn  Zn119  1  0.80721876  0.30946402  0.32051728  1
  Zn  Zn120  1  0.81094538  0.31165087  0.80755726  1
  Zn  Zn121  1  0.82039855  0.80545278  0.31672755  1
  Zn  Zn122  1  0.80867014  0.80810064  0.80984684  1
  Zn  Zn123  1  0.19185862  0.43904446  0.43592825  1
  Zn  Zn124  1  0.18931568  0.43627671  0.93829178  1
  Zn  Zn125  1  0.18732835  0.94052813  0.43832463  1
  Zn  Zn126  1  0.18514149  0.93644764  0.93975799  1
  Zn  Zn127  1  0.69102186  0.43949270  0.44080440  1
  Zn  Zn128  1  0.68744366  0.43581475  0.93628643  1
  Zn  Zn129  1  0.69548742  0.93065925  0.31977814  1
  Zn  Zn130  1  0.69226171  0.93677479  0.93570442  1
  Zn  Zn131  1  0.33188422  0.02717190  0.08289848  1
  Zn  Zn132  1  0.30768441  0.06318666  0.56356312  1
  Zn  Zn133  1  0.30977709  0.56073013  0.06127693  1
  Zn  Zn134  1  0.31483557  0.56328670  0.56082641  1
  Zn  Zn135  1  0.80877609  0.06500201  0.07724585  1
  Zn  Zn136  1  0.80803384  0.06310784  0.55903470  1
  Zn  Zn137  1  0.81277702  0.56576643  0.06465678  1
  Zn  Zn138  1  0.81605945  0.56258284  0.55954667  1
  Zn  Zn139  1  0.43524456  0.44306155  0.18831926  1
  Zn  Zn140  1  0.43955713  0.43827615  0.68614734  1
  Zn  Zn141  1  0.44158972  0.93795873  0.19383436  1
  Zn  Zn142  1  0.43642862  0.93480045  0.68203568  1
  Zn  Zn143  1  0.93688978  0.43837767  0.18667697  1
  Zn  Zn144  1  0.93610544  0.43390847  0.68286020  1
  Zn  Zn145  1  0.93858142  0.94648984  0.18927245  1
  Zn  Zn146  1  0.93680334  0.93727040  0.68476299  1
  Zn  Zn147  1  0.06251157  0.06315418  0.31776135  1
  Zn  Zn148  1  0.06071989  0.06057259  0.81570620  1
  Zn  Zn149  1  0.06599575  0.55923195  0.31120156  1
  Zn  Zn150  1  0.06311832  0.56378761  0.81318068  1
  Zn  Zn151  1  0.56068309  0.06087565  0.32010759  1
  Zn  Zn152  1  0.56796303  0.06210341  0.80965506  1
  Zn  Zn153  1  0.59272655  0.60908664  0.28109691  1
  Zn  Zn154  1  0.56216712  0.56144159  0.81037157  1
  Zn  Zn155  1  0.44233052  0.18835347  0.43932783  1
  Zn  Zn156  1  0.43929396  0.18200270  0.93764396  1
  Zn  Zn157  1  0.44306414  0.68801736  0.43339543  1
  Zn  Zn158  1  0.43699494  0.68940669  0.93778758  1
  Zn  Zn159  1  0.93496886  0.18645340  0.43702194  1
  Zn  Zn160  1  0.93699930  0.18707101  0.93984523  1
  Zn  Zn161  1  0.93622099  0.68770660  0.43939550  1
  Zn  Zn162  1  0.93349656  0.68608535  0.93685301  1
  Zn  Zn163  1  0.06197815  0.30880514  0.06179814  1
  Zn  Zn164  1  0.05924973  0.31122546  0.56228711  1
  Zn  Zn165  1  0.04883779  0.82119793  0.06378594  1
  Zn  Zn166  1  0.06398628  0.81471183  0.56322985  1
  Zn  Zn167  1  0.56362534  0.31409488  0.06630626  1
  Zn  Zn168  1  0.55893667  0.31096999  0.55963236  1
  Zn  Zn169  1  0.56900677  0.80928459  0.05175141  1
  Zn  Zn170  1  0.55757961  0.80926798  0.55806806  1
  O  O171  1  0.11287469  0.12379918  0.12217529  1
  O  O172  1  0.13007465  0.11903232  0.61672690  1
  O  O173  1  0.12381323  0.61453557  0.11366100  1
  O  O174  1  0.12050721  0.62288915  0.61884175  1
  O  O175  1  0.61559512  0.13343072  0.12321295  1
  O  O176  1  0.62461149  0.11625332  0.62077266  1
  O  O177  1  0.61033378  0.60872831  0.11499746  1
  O  O178  1  0.61333896  0.62840469  0.61944033  1
  O  O179  1  0.36577426  0.38509453  0.38215356  1
  O  O180  1  0.37574338  0.38064560  0.88112729  1
  O  O181  1  0.36822839  0.87370039  0.38790243  1
  O  O182  1  0.37536786  0.88900506  0.88058533  1
  O  O183  1  0.87281364  0.37385403  0.39088580  1
  O  O184  1  0.87793734  0.38133647  0.87784743  1
  O  O185  1  0.87845759  0.87200747  0.39222445  1
  O  O186  1  0.88232518  0.87469690  0.86785441  1
  O  O187  1  0.23982798  0.01651319  0.36634494  1
  O  O188  1  0.25616480  0.00522478  0.87213261  1
  O  O189  1  0.25366368  0.51409931  0.37295643  1
  O  O190  1  0.25439268  0.50758438  0.87123302  1
  O  O191  1  0.75293711  0.01380287  0.36907010  1
  O  O192  1  0.74537665  0.01052620  0.86385881  1
  O  O193  1  0.75923800  0.51521772  0.38348723  1
  O  O194  1  0.75721323  0.50137781  0.86734980  1
  O  O195  1  0.24754519  0.48197884  0.12190234  1
  O  O196  1  0.24582809  0.49624798  0.63035108  1
  O  O197  1  0.23197821  1.01619590  0.13990341  1
  O  O198  1  0.24080685  0.99921921  0.63500589  1
  O  O199  1  0.73954884  0.49147882  0.11737220  1
  O  O200  1  0.75378219  0.50468793  0.63886924  1
  O  O201  1  0.72334633  1.00290627  0.11762482  1
  O  O202  1  0.74247198  0.99087591  0.62975958  1
  O  O203  1  0.01351382  0.37499279  0.24518687  1
  O  O204  1  0.00768171  0.37237689  0.75503572  1
  O  O205  1  0.01130785  0.88045644  0.26384773  1
  O  O206  1  0.00109491  0.86820866  0.75688280  1
  O  O207  1  0.51151652  0.37655304  0.24451560  1
  O  O208  1  0.50706663  0.36503409  0.75149252  1
  O  O209  1  0.49637605  0.87604274  0.26768092  1
  O  O210  1  0.51432640  0.88061972  0.74960288  1
  O  O211  1  0.49456873  0.12639373  0.24650467  1
  O  O212  1  0.50107925  0.13739038  0.74777590  1
  O  O213  1  0.48458598  0.61649361  0.23274552  1
  O  O214  1  0.48938454  0.61956619  0.74189834  1
  O  O215  1  1.00390632  0.12048773  0.23628894  1
  O  O216  1  0.98323054  0.12335102  0.75774693  1
  O  O217  1  0.99673127  0.61887934  0.24017677  1
  O  O218  1  1.00126853  0.63126064  0.74194895  1
  O  O219  1  0.37064708  0.25129776  0.00458190  1
  O  O220  1  0.37331298  0.25761888  0.50678658  1
  O  O221  1  0.35622292  0.74894544  -0.00037576  1
  O  O222  1  0.37114926  0.75473015  0.50591471  1
  O  O223  1  0.86992873  0.25678141  0.00678610  1
  O  O224  1  0.86858959  0.25400666  0.50493633  1
  O  O225  1  0.85503881  0.74442776  -0.00982624  1
  O  O226  1  0.86997135  0.75774212  0.50600718  1
  O  O227  1  0.12672401  0.24603343  0.49235415  1
  O  O228  1  0.13175714  0.24857120  0.98736661  1
  O  O229  1  0.12387444  0.74105364  0.49370166  1
  O  O230  1  0.12838611  0.74521385  0.99553465  1
  O  O231  1  0.62964553  0.24615528  0.49719158  1
  O  O232  1  0.63073964  0.24660006  0.99286132  1
  O  O233  1  0.63620288  0.73914894  0.50772252  1
  O  O234  1  0.64352435  0.74579503  0.99360293  1
  O  O235  1  0.49381672  0.24235483  0.12801058  1
  O  O236  1  0.49138132  0.24852429  0.63235500  1
  O  O237  1  0.49574191  0.74052772  0.11427716  1
  O  O238  1  0.48224175  0.73964575  0.62137011  1
  O  O239  1  0.99286314  0.23747193  0.12028722  1
  O  O240  1  0.98596577  0.24878967  0.62590904  1
  O  O241  1  1.02148773  0.72447998  0.12407337  1
  O  O242  1  1.00335099  0.74223972  0.63427520  1
  O  O243  1  0.01476426  0.25008708  0.37963751  1
  O  O244  1  0.00889492  0.25433996  0.87295688  1
  O  O245  1  0.01325282  0.75184882  0.38086619  1
  O  O246  1  0.00358270  0.75660670  0.87099429  1
  O  O247  1  0.51429738  0.25425635  0.37707589  1
  O  O248  1  0.50856006  0.24908910  0.86761825  1
  O  O249  1  0.49393814  0.76851020  0.37390548  1
  O  O250  1  0.50717372  0.75229035  0.88043427  1
  O  O251  1  0.23918271  0.12655999  0.49360194  1
  O  O252  1  0.24944512  0.12856732  0.98690097  1
  O  O253  1  0.23880169  0.62149125  0.49283881  1
  O  O254  1  0.24057773  0.63150425  0.99525188  1
  O  O255  1  0.73634501  0.13528213  0.50513714  1
  O  O256  1  0.74685858  0.13081517  0.99431954  1
  O  O257  1  0.74621635  0.63096990  0.49890226  1
  O  O258  1  0.74961650  0.61758909  0.98439504  1
  O  O259  1  0.25492656  0.36567639  0.00606251  1
  O  O260  1  0.25906664  0.37486066  0.50847551  1
  O  O261  1  0.24781819  0.86006872  -0.00139268  1
  O  O262  1  0.26136393  0.87880424  0.50237734  1
  O  O263  1  0.75420922  0.36936261  0.00772187  1
  O  O264  1  0.75834779  0.36799786  0.50284358  1
  O  O265  1  0.75105956  0.86739960  0.00132567  1
  O  O266  1  0.75586493  0.86580064  0.51247570  1
  O  O267  1  0.12907422  0.48383113  0.24892722  1
  O  O268  1  0.13235299  0.49678098  0.74509532  1
  O  O269  1  0.13005214  0.99506253  0.24694838  1
  O  O270  1  0.13080388  1.00156182  0.74452538  1
  O  O271  1  0.62189589  0.49942945  0.23860697  1
  O  O272  1  0.63704511  0.48949540  0.75353605  1
  O  O273  1  0.62437231  0.99626037  0.24535628  1
  O  O274  1  0.63523425  0.99422585  0.73944062  1
  O  O275  1  0.36559263  0.01460877  0.25220934  1
  O  O276  1  0.36857713  0.00034631  0.75489900  1
  O  O277  1  0.36854882  0.50707876  0.25704731  1
  O  O278  1  0.36937159  0.50574446  0.75540681  1
  O  O279  1  0.86412927  0.00283638  0.24559267  1
  O  O280  1  0.86186743  0.00673287  0.74135323  1
  O  O281  1  0.87820596  0.51017274  0.25338603  1
  O  O282  1  0.86426401  0.49597748  0.75485454  1
  O  O283  1  0.13223226  0.36275789  0.36601020  1
  O  O284  1  0.12283219  0.36685370  0.86877223  1
  O  O285  1  0.12834997  0.86697201  0.36922113  1
  O  O286  1  0.11712592  0.86494431  0.87463521  1
  O  O287  1  0.63038380  0.37449026  0.36620918  1
  O  O288  1  0.62547174  0.36150139  0.86820486  1
  O  O289  1  0.61618639  0.87205471  0.38328451  1
  O  O290  1  0.62807261  0.87782687  0.85551011  1
  O  O291  1  0.38984867  0.12375624  0.13292946  1
  O  O292  1  0.37392763  0.13794402  0.62568209  1
  O  O293  1  0.38031031  0.61804028  0.13043160  1
  O  O294  1  0.37653172  0.63593196  0.63068340  1
  O  O295  1  0.88755819  0.13517062  0.12314627  1
  O  O296  1  0.86721987  0.13353864  0.63400910  1
  O  O297  1  0.88519477  0.61962888  0.13549871  1
  O  O298  1  0.89050261  0.62493500  0.62600175  1
  O  O299  1  0.25487019  0.25410214  0.11973388  1
  O  O300  1  0.25822721  0.25657291  0.62565903  1
  O  O301  1  0.24035785  0.74734247  0.11325256  1
  O  O302  1  0.26722870  0.75150725  0.63170493  1
  O  O303  1  0.75708095  0.25972144  0.12106798  1
  O  O304  1  0.75930142  0.24899832  0.61364775  1
  O  O305  1  0.75289794  0.74567116  0.11100899  1
  O  O306  1  0.75370341  0.75536001  0.62039176  1
  O  O307  1  0.24122659  0.23946522  0.37761165  1
  O  O308  1  0.24463996  0.24200929  0.87563226  1
  O  O309  1  0.23551388  0.73543659  0.36488248  1
  O  O310  1  0.23862466  0.74509209  0.88016948  1
  O  O311  1  0.73561519  0.25443656  0.39069758  1
  O  O312  1  0.74401775  0.24514703  0.87966130  1
  O  O313  1  0.76085728  0.73546855  0.39174920  1
  O  O314  1  0.74523791  0.73551176  0.86989523  1
  O  O315  1  0.00122104  0.11386696  0.00237951  1
  O  O316  1  0.01146758  0.12060415  0.49984703  1
  O  O317  1  0.00543290  0.61866392  0.00275988  1
  O  O318  1  0.01007421  0.61883560  0.50850909  1
  O  O319  1  0.50990386  0.12145385  0.00908809  1
  O  O320  1  0.51264405  0.12303694  0.50307172  1
  O  O321  1  0.49700610  0.61426169  0.00634217  1
  O  O322  1  0.50982158  0.62578661  0.50528856  1
  O  O323  1  0.48467429  0.37941103  0.50525107  1
  O  O324  1  0.49276368  0.37922019  0.99833330  1
  O  O325  1  0.48663901  0.87492610  0.49117774  1
  O  O326  1  0.49949227  0.88399196  0.99615571  1
  O  O327  1  0.99359961  0.38606526  0.50567035  1
  O  O328  1  0.99502475  0.37819236  0.99254813  1
  O  O329  1  0.99135640  0.88415110  0.50444117  1
  O  O330  1  1.00034824  0.89293187  0.98972633  1
  O  O331  1  0.48457970  0.50713832  0.37826969  1
  O  O332  1  0.49516235  0.49735742  0.88497288  1
  O  O333  1  0.50232518  0.98377730  0.38139778  1
  O  O334  1  0.49608961  0.99982598  0.87874245  1
  O  O335  1  1.00095830  0.50301359  0.38850286  1
  O  O336  1  0.99214861  0.49299189  0.87549960  1
  O  O337  1  1.00983994  0.99787727  0.39528491  1
  O  O338  1  0.99869299  0.99525953  0.88778246  1
  O  O339  1  0.00664369  0.01239350  0.11563071  1
  O  O340  1  0.01277342  -0.00146203  0.61954509  1
  O  O341  1  0.00373952  0.50407185  0.11491625  1
  O  O342  1  0.00837751  0.50784871  0.62158061  1
  O  O343  1  0.52026696  0.00686960  0.11912974  1
  O  O344  1  0.50811098  0.00243563  0.62249802  1
  O  O345  1  0.50334203  0.49857350  0.11154113  1
  O  O346  1  0.48814508  0.51720025  0.61871001  1
  O  O347  1  0.24368311  0.37187596  0.24075055  1
  O  O348  1  0.24490839  0.38125704  0.74408114  1
  O  O349  1  0.24361951  0.88798503  0.25617388  1
  O  O350  1  0.24632248  0.88769749  0.75262881  1
  O  O351  1  0.74235312  0.37465342  0.24107117  1
  O  O352  1  0.74259062  0.38628080  0.75083779  1
  O  O353  1  0.74538450  0.85532758  0.25426043  1
  O  O354  1  0.74474832  0.88072085  0.73967305  1
  O  O355  1  0.25718754  0.12126035  0.25800319  1
  O  O356  1  0.25224109  0.11396152  0.76117878  1
  O  O357  1  0.25337946  0.62183337  0.25336619  1
  O  O358  1  0.25681932  0.62142076  0.75756395  1
  O  O359  1  0.75998499  0.13031328  0.24816659  1
  O  O360  1  0.75596538  0.11776385  0.75657838  1
  O  O361  1  0.76257916  0.63211699  0.26824538  1
  O  O362  1  0.75048371  0.61169989  0.75712329  1
  O  O363  1  0.36680664  0.13270755  0.36961303  1
  O  O364  1  0.36871250  0.11640495  0.86992447  1
  O  O365  1  0.36710744  0.62173897  0.36788637  1
  O  O366  1  0.36973554  0.61982846  0.86796736  1
  O  O367  1  0.87901626  0.12088400  0.36786017  1
  O  O368  1  0.86216736  0.13348808  0.86739366  1
  O  O369  1  0.87205514  0.61997922  0.37106173  1
  O  O370  1  0.87101433  0.60949439  0.86964483  1
  O  O371  1  0.13137482  0.36831604  0.13503629  1
  O  O372  1  0.13087740  0.37867465  0.63023236  1
  O  O373  1  0.11834330  0.88662732  0.13786779  1
  O  O374  1  0.12896174  0.88462598  0.62848991  1
  O  O375  1  0.63132515  0.38374259  0.13260601  1
  O  O376  1  0.62121688  0.37137749  0.63519984  1
  O  O377  1  0.62189634  0.87555168  0.13218556  1
  O  O378  1  0.62938634  0.87999920  0.63096096  1
  O  O379  1  0.12719920  0.25718950  0.26312142  1
  O  O380  1  0.12466197  0.25269871  0.75898038  1
  O  O381  1  0.10899277  0.76166121  0.25251147  1
  O  O382  1  0.11469272  0.74958338  0.76009301  1
  O  O383  1  0.62232549  0.26444708  0.25981856  1
  O  O384  1  0.62153690  0.25457630  0.75450389  1
  O  O385  1  0.60459094  0.71603389  0.24111013  1
  O  O386  1  0.62908553  0.76573048  0.74605928  1
  O  O387  1  0.37633531  0.23944876  0.24418389  1
  O  O388  1  0.38428015  0.25006454  0.74276008  1
  O  O389  1  0.37631002  0.73716459  0.24943729  1
  O  O390  1  0.37205263  0.74230434  0.75056287  1
  O  O391  1  0.87429628  0.26178264  0.23997419  1
  O  O392  1  0.87390785  0.24270430  0.74038516  1
  O  O393  1  0.89681590  0.73696633  0.25866505  1
  O  O394  1  0.88753353  0.74478469  0.74821152  1
  O  O395  1  0.37291794  0.49339269  0.48997487  1
  O  O396  1  0.38000438  0.49319200  0.99345363  1
  O  O397  1  0.37519720  0.98788260  0.50675175  1
  O  O398  1  0.39563710  1.01410216  0.98719190  1
  O  O399  1  0.88624927  0.49192457  0.50258056  1
  O  O400  1  0.88003604  0.49332371  0.99089672  1
  O  O401  1  0.88472114  0.99291059  0.51145995  1
  O  O402  1  0.88386594  1.00400403  1.00919331  1
  O  O403  1  0.12152608  0.00170935  0.01039804  1
  O  O404  1  0.12079401  0.00894288  0.50952251  1
  O  O405  1  0.11826614  0.50791123  -0.00378904  1
  O  O406  1  0.12045188  0.50546127  0.50573742  1
  O  O407  1  0.61665900  0.00681327  -0.00453234  1
  O  O408  1  0.62620140  0.00816104  0.51340647  1
  O  O409  1  0.61456687  0.49530362  0.00429597  1
  O  O410  1  0.62546979  0.51346247  0.50067765  1
  O  O411  1  0.36802073  0.36686701  0.12108035  1
  O  O412  1  0.37026538  0.36664508  0.62069183  1
  O  O413  1  0.36771865  0.92012571  0.11429452  1
  O  O414  1  0.37436136  0.86283843  0.61516579  1
  O  O415  1  0.86753070  0.37203483  0.12084964  1
  O  O416  1  0.87705696  0.36419979  0.61359728  1
  O  O417  1  0.94262507  0.84479690  0.13793491  1
  O  O418  1  0.86566418  0.87254252  0.61986950  1
  O  O419  1  0.12938177  0.13744339  0.38151318  1
  O  O420  1  0.13255261  0.13210273  0.87526770  1
  O  O421  1  0.12946886  0.62995109  0.38151535  1
  O  O422  1  0.12505017  0.63538462  0.88550704  1
  O  O423  1  0.62135689  0.13600051  0.38375309  1
  O  O424  1  0.63511392  0.13571136  0.87743540  1
  O  O425  1  0.64450358  0.62315110  0.38445980  1
  O  O426  1  0.63432470  0.62095784  0.87593331  1
