# generated using pymatgen
data_V85Zn86O256
_symmetry_space_group_name_H-M   'P 1'
_cell_length_a   16.90479975
_cell_length_b   16.91724587
_cell_length_c   16.91615693
_cell_angle_alpha   89.96789465
_cell_angle_beta   89.97954410
_cell_angle_gamma   90.03191553
_symmetry_Int_Tables_number   1
_chemical_formula_structural   V85Zn86O256
_chemical_formula_sum   'V85 Zn86 O256'
_cell_volume   4837.72562855
_cell_formula_units_Z   1
loop_
 _symmetry_equiv_pos_site_id
 _symmetry_equiv_pos_as_xyz
  1  'x, y, z'
loop_
 _atom_site_type_symbol
 _atom_site_label
 _atom_site_symmetry_multiplicity
 _atom_site_fract_x
 _atom_site_fract_y
 _atom_site_fract_z
 _atom_site_occupancy
  V  V0  1  0.50101982  0.62711223  0.62011370  1
  V  V1  1  0.12214160  0.24198680  0.87441395  1
  V  V2  1  0.00467092  0.13024399  0.12317108  1
  V  V3  1  0.50605110  0.75312951  0.25015190  1
  V  V4  1  0.12139922  0.75414573  0.87599534  1
  V  V5  1  0.37287906  0.25281552  0.62809701  1
  V  V6  1  0.38003122  0.00218098  0.88029839  1
  V  V7  1  -0.00112576  0.49989078  0.00178730  1
  V  V8  1  0.87545092  0.25256651  0.12984246  1
  V  V9  1  0.73990570  0.37714135  0.12737690  1
  V  V10  1  0.49815952  0.48599224  0.49388590  1
  V  V11  1  0.75257575  0.36706217  0.62476168  1
  V  V12  1  0.87778896  0.50636779  0.37354924  1
  V  V13  1  -0.00240882  0.37433225  0.37258736  1
  V  V14  1  0.43224683  0.44236860  0.83185713  1
  V  V15  1  0.50448568  0.87702915  0.37284547  1
  V  V16  1  0.25161318  0.87678000  0.12692749  1
  V  V17  1  0.25127321  0.62185022  0.37756840  1
  V  V18  1  0.50567391  0.12821272  0.62311440  1
  V  V19  1  0.63298046  0.75355245  0.37570348  1
  V  V20  1  0.74055846  -0.00421643  0.23876524  1
  V  V21  1  0.00105363  0.74930070  0.74533999  1
  V  V22  1  0.25198558  0.62033803  0.87572962  1
  V  V23  1  0.87953302  -0.00496175  0.87136495  1
  V  V24  1  0.37898030  0.25241326  0.12622822  1
  V  V25  1  0.11091895  0.62160777  0.50382796  1
  V  V26  1  0.87793448  0.12678901  0.24919825  1
  V  V27  1  0.12690713  0.00505988  0.12376266  1
  V  V28  1  0.62147454  0.12123268  0.00061784  1
  V  V29  1  0.37774658  0.62471634  0.75597341  1
  V  V30  1  0.87380553  0.75059040  0.13277764  1
  V  V31  1  0.61535480  0.36963692  0.25896101  1
  V  V32  1  0.74912926  0.25235640  -0.00077230  1
  V  V33  1  0.87109597  0.87303598  0.49959491  1
  V  V34  1  0.24864824  0.00111640  0.75284094  1
  V  V35  1  0.24947525  0.74771111  0.50069046  1
  V  V36  1  0.75121002  0.49473941  0.74887301  1
  V  V37  1  0.12289676  0.37101002  0.24643453  1
  V  V38  1  0.24514578  0.49283001  0.75192562  1
  V  V39  1  0.24506096  0.37719861  0.61837169  1
  V  V40  1  0.00477182  0.00293220  -0.00416228  1
  V  V41  1  0.74088377  0.12680138  0.37575759  1
  V  V42  1  0.74632689  0.50645179  0.24837689  1
  V  V43  1  0.75337124  0.62398528  0.87508994  1
  V  V44  1  0.74405128  0.87232696  0.62600252  1
  V  V45  1  0.87370730  0.74669400  0.61988423  1
  V  V46  1  0.37659151  0.87912794  0.49953117  1
  V  V47  1  0.24889069  0.87540163  0.62665832  1
  V  V48  1  0.00545210  0.00241812  0.49932861  1
  V  V49  1  0.11733875  0.87839666  0.75260653  1
  V  V50  1  0.23941143  0.24431019  0.50423084  1
  V  V51  1  0.36773013  0.37996633  0.00357785  1
  V  V52  1  0.87445890  0.00091265  0.37285119  1
  V  V53  1  0.12405375  0.74972031  0.37223095  1
  V  V54  1  0.63559690  0.62699602  0.49767984  1
  V  V55  1  0.37804194  0.12832553  0.75148435  1
  V  V56  1  -0.00372686  0.25313177  0.74622348  1
  V  V57  1  0.37529479  0.75001402  0.62600724  1
  V  V58  1  0.87636963  0.37128816  0.49981512  1
  V  V59  1  0.62669386  0.49775036  0.62181997  1
  V  V60  1  0.61052564  0.25679245  0.87009153  1
  V  V61  1  0.88162942  0.62258495  0.74432965  1
  V  V62  1  -0.00254734  0.62594209  0.13338632  1
  V  V63  1  0.62837944  0.75301983  0.86723036  1
  V  V64  1  -0.00085915  0.13377312  0.61667871  1
  V  V65  1  0.37595405  0.74940362  0.12666506  1
  V  V66  1  0.37826860  0.62258363  0.25390718  1
  V  V67  1  0.24019787  0.12210610  0.37567613  1
  V  V68  1  0.11421380  0.24468739  0.37695700  1
  V  V69  1  0.49817401  0.12179100  0.12019432  1
  V  V70  1  0.38327863  0.87735766  0.00210405  1
  V  V71  1  0.24183079  0.24667182  0.00962180  1
  V  V72  1  0.62698313  0.61785371  0.00536059  1
  V  V73  1  0.12580201  0.62532162  0.00133578  1
  V  V74  1  0.73891050  0.24714185  0.49612757  1
  V  V75  1  0.75261536  0.12795787  0.87251262  1
  V  V76  1  0.50009479  0.49430479  0.00588718  1
  V  V77  1  0.00509326  0.37525436  0.87226371  1
  V  V78  1  0.50572047  0.87908367  0.86800845  1
  V  V79  1  0.74321218  -0.00381401  0.74858801  1
  V  V80  1  0.87892743  0.87416613  0.00057033  1
  V  V81  1  0.11071186  0.50034675  0.62459399  1
  V  V82  1  0.41614182  0.15298339  0.28541806  1
  V  V83  1  0.24983937  0.49347365  0.24492952  1
  V  V84  1  0.37740851  0.48093169  0.37830880  1
  Zn  Zn85  1  0.51073324  0.00634114  0.49728629  1
  Zn  Zn86  1  0.12745036  0.49566604  0.12503976  1
  Zn  Zn87  1  0.25928231  0.01052866  0.24794238  1
  Zn  Zn88  1  0.87522772  0.37679332  0.00198098  1
  Zn  Zn89  1  0.50593461  0.61978959  0.12873675  1
  Zn  Zn90  1  0.73673320  0.87541933  0.12244159  1
  Zn  Zn91  1  0.25269259  0.74960269  -0.00093167  1
  Zn  Zn92  1  0.87311510  0.12787467  0.74099332  1
  Zn  Zn93  1  0.62585149  0.00017560  0.62213762  1
  Zn  Zn94  1  0.24484483  0.12233637  0.88139295  1
  Zn  Zn95  1  0.50603972  0.75549635  0.74563515  1
  Zn  Zn96  1  0.75501905  0.63079863  0.37309433  1
  Zn  Zn97  1  0.12558095  0.00489169  0.62071037  1
  Zn  Zn98  1  0.60874133  0.37470718  0.75212901  1
  Zn  Zn99  1  0.59442174  0.24432590  0.37198652  1
  Zn  Zn100  1  0.37308099  0.00225118  0.37555293  1
  Zn  Zn101  1  0.87740112  0.49781135  0.87499265  1
  Zn  Zn102  1  0.56833325  -0.04364331  0.06527754  1
  Zn  Zn103  1  -0.00199864  0.75203374  0.25127448  1
  Zn  Zn104  1  0.00018118  0.87502030  0.37180406  1
  Zn  Zn105  1  0.75254148  0.75088461  -0.00034803  1
  Zn  Zn106  1  0.12493291  0.87781934  0.25011554  1
  Zn  Zn107  1  0.18608255  0.19106709  0.19090591  1
  Zn  Zn108  1  0.17955495  0.18589021  0.69055039  1
  Zn  Zn109  1  0.19037710  0.68514816  0.18784267  1
  Zn  Zn110  1  0.18801219  0.68297297  0.68751363  1
  Zn  Zn111  1  0.68385166  0.18711854  0.18887204  1
  Zn  Zn112  1  0.68813410  0.19167701  0.69226853  1
  Zn  Zn113  1  0.68895471  0.69149673  0.18635481  1
  Zn  Zn114  1  0.69245785  0.68549479  0.68582615  1
  Zn  Zn115  1  0.30521807  0.30793541  0.31452446  1
  Zn  Zn116  1  0.30025861  0.30854700  0.81063671  1
  Zn  Zn117  1  0.31313006  0.81237062  0.31249222  1
  Zn  Zn118  1  0.31190423  0.81183739  0.81440041  1
  Zn  Zn119  1  0.80850992  0.31366082  0.31149747  1
  Zn  Zn120  1  0.81832130  0.31385367  0.81479909  1
  Zn  Zn121  1  0.81228363  0.81792329  0.30923292  1
  Zn  Zn122  1  0.81512387  0.81390913  0.81103056  1
  Zn  Zn123  1  0.18525680  0.43675223  0.43807525  1
  Zn  Zn124  1  0.18553325  0.43356339  0.93769075  1
  Zn  Zn125  1  0.18804600  0.93549873  0.43656335  1
  Zn  Zn126  1  0.18974730  0.93641622  0.94047654  1
  Zn  Zn127  1  0.68658503  0.43570744  0.43317690  1
  Zn  Zn128  1  0.68639482  0.43680623  0.93642349  1
  Zn  Zn129  1  0.68811882  0.94051963  0.43963932  1
  Zn  Zn130  1  0.69434804  0.93545234  0.93374074  1
  Zn  Zn131  1  0.31575618  0.06577208  0.06313357  1
  Zn  Zn132  1  0.31108622  0.06442908  0.56261686  1
  Zn  Zn133  1  0.31490233  0.56120981  0.06420546  1
  Zn  Zn134  1  0.31204143  0.56023521  0.56139927  1
  Zn  Zn135  1  0.81483849  0.06461042  0.05952505  1
  Zn  Zn136  1  0.81366875  0.06350936  0.56100319  1
  Zn  Zn137  1  0.81464306  0.56293254  0.06564297  1
  Zn  Zn138  1  0.81791366  0.55740055  0.56074510  1
  Zn  Zn139  1  0.43554352  0.43650378  0.18498792  1
  Zn  Zn140  1  0.43233501  0.43953945  0.66579229  1
  Zn  Zn141  1  0.43331569  0.94765919  0.19784244  1
  Zn  Zn142  1  0.43789038  0.94221653  0.68872028  1
  Zn  Zn143  1  0.93504619  0.43774652  0.19040457  1
  Zn  Zn144  1  0.93575939  0.43233016  0.68794491  1
  Zn  Zn145  1  0.93929648  0.93681343  0.18692399  1
  Zn  Zn146  1  0.93545665  0.94015830  0.68454119  1
  Zn  Zn147  1  0.06115513  0.06272119  0.30750774  1
  Zn  Zn148  1  0.05935631  0.06756018  0.80847217  1
  Zn  Zn149  1  0.06308201  0.56059126  0.31534904  1
  Zn  Zn150  1  0.06433605  0.56231610  0.81200117  1
  Zn  Zn151  1  0.56517452  0.05703918  0.31357460  1
  Zn  Zn152  1  0.56256077  0.06653593  0.81152630  1
  Zn  Zn153  1  0.56510119  0.55988842  0.31418280  1
  Zn  Zn154  1  0.56937637  0.56727646  0.80907808  1
  Zn  Zn155  1  0.42777787  0.19464039  0.45316320  1
  Zn  Zn156  1  0.43318309  0.18967650  0.94137479  1
  Zn  Zn157  1  0.44071503  0.68723572  0.43697642  1
  Zn  Zn158  1  0.44297660  0.68817252  0.93722506  1
  Zn  Zn159  1  0.93082205  0.19016454  0.43984551  1
  Zn  Zn160  1  0.93576933  0.18631209  0.93916692  1
  Zn  Zn161  1  0.93820130  0.68796311  0.43768258  1
  Zn  Zn162  1  0.93984905  0.68873988  0.93661672  1
  Zn  Zn163  1  0.06170559  0.31353173  0.06327899  1
  Zn  Zn164  1  0.06048694  0.31807304  0.56069459  1
  Zn  Zn165  1  0.06110971  0.81568545  0.06296591  1
  Zn  Zn166  1  0.06022147  0.81413731  0.56183741  1
  Zn  Zn167  1  0.55899153  0.31284494  0.06003766  1
  Zn  Zn168  1  0.56431383  0.30794607  0.56680577  1
  Zn  Zn169  1  0.56310429  0.79457663  0.05631868  1
  Zn  Zn170  1  0.56460130  0.81261749  0.55715660  1
  O  O171  1  0.11442667  0.12134251  0.12928824  1
  O  O172  1  0.10660460  0.12079869  0.62818450  1
  O  O173  1  0.12038125  0.62592597  0.11343284  1
  O  O174  1  0.13082779  0.61275451  0.61604180  1
  O  O175  1  0.61603816  0.13328113  0.11175751  1
  O  O176  1  0.60754807  0.13237437  0.63437732  1
  O  O177  1  0.62699038  0.62923577  0.10918832  1
  O  O178  1  0.61972899  0.62066063  0.61842094  1
  O  O179  1  0.37325631  0.38159496  0.37232986  1
  O  O180  1  0.37084708  0.37294220  0.88052702  1
  O  O181  1  0.38083573  0.87532632  0.38420629  1
  O  O182  1  0.38142377  0.88053189  0.88293057  1
  O  O183  1  0.87967041  0.38081945  0.37759519  1
  O  O184  1  0.88843171  0.37724334  0.88162270  1
  O  O185  1  0.87527726  0.88322853  0.38178716  1
  O  O186  1  0.87383748  0.88776176  0.88052743  1
  O  O187  1  0.24961815  0.00845512  0.37425165  1
  O  O188  1  0.25687935  0.00127995  0.86948733  1
  O  O189  1  0.25832828  0.50377040  0.37015308  1
  O  O190  1  0.23958415  0.50674710  0.86490557  1
  O  O191  1  0.75959675  0.00635147  0.36664412  1
  O  O192  1  0.75744302  0.00773201  0.86690513  1
  O  O193  1  0.75791685  0.50083398  0.36460005  1
  O  O194  1  0.75323247  0.50457516  0.86601789  1
  O  O195  1  0.24843399  0.50387842  0.14066342  1
  O  O196  1  0.24801080  0.49222669  0.63114568  1
  O  O197  1  0.24496534  0.99689327  0.12452425  1
  O  O198  1  0.24734033  0.99458285  0.63368294  1
  O  O199  1  0.75765077  0.49180885  0.13875780  1
  O  O200  1  0.74542641  0.49122304  0.63006519  1
  O  O201  1  0.75461838  1.00256302  0.13534335  1
  O  O202  1  0.75342699  0.99223073  0.63245413  1
  O  O203  1  0.00602726  0.37917301  0.26304782  1
  O  O204  1  -0.00206795  0.36755692  0.75903924  1
  O  O205  1  0.00559814  0.87191101  0.25264792  1
  O  O206  1  0.01104593  0.86970764  0.74628778  1
  O  O207  1  0.51759991  0.38249314  0.24305457  1
  O  O208  1  0.48970604  0.39327263  0.75866863  1
  O  O209  1  0.49091556  0.86690160  0.26243517  1
  O  O210  1  0.49516102  0.87372103  0.76322171  1
  O  O211  1  0.50750032  0.12231501  0.23558373  1
  O  O212  1  0.48474194  0.12266691  0.74328682  1
  O  O213  1  0.49438406  0.62966417  0.25030869  1
  O  O214  1  0.49448196  0.62428427  0.73775753  1
  O  O215  1  0.98584177  0.12157902  0.23933329  1
  O  O216  1  0.99557657  0.13331612  0.73807158  1
  O  O217  1  1.00721041  0.62565927  0.23633123  1
  O  O218  1  0.98920429  0.63171951  0.75377423  1
  O  O219  1  0.36494971  0.25950190  0.00629903  1
  O  O220  1  0.35497151  0.24942099  0.51850584  1
  O  O221  1  0.37653133  0.75812882  0.00701477  1
  O  O222  1  0.37129764  0.75796763  0.50566044  1
  O  O223  1  0.86298939  0.24960227  0.00921610  1
  O  O224  1  0.86122431  0.26488901  0.49506149  1
  O  O225  1  0.87856579  0.75979769  0.00418380  1
  O  O226  1  0.88052158  0.75774334  0.50889892  1
  O  O227  1  0.13095067  0.25440100  0.49284686  1
  O  O228  1  0.13696929  0.25440263  0.99779830  1
  O  O229  1  0.12869166  0.74343684  0.49319030  1
  O  O230  1  0.12540330  0.74513210  0.99213302  1
  O  O231  1  0.63340595  0.25475227  0.48985558  1
  O  O232  1  0.63361766  0.24560022  0.98997335  1
  O  O233  1  0.62184558  0.73946171  0.48842576  1
  O  O234  1  0.62933018  0.73504890  0.98343583  1
  O  O235  1  0.48684512  0.24350492  0.11978811  1
  O  O236  1  0.48681056  0.24167410  0.62384697  1
  O  O237  1  0.49294012  0.74333076  0.13384717  1
  O  O238  1  0.49583055  0.74362317  0.62551873  1
  O  O239  1  0.98944366  0.24114294  0.11741385  1
  O  O240  1  1.00430621  0.24310318  0.62988564  1
  O  O241  1  0.99477917  0.74272718  0.12547151  1
  O  O242  1  0.99150692  0.75350920  0.63695086  1
  O  O243  1  0.00628162  0.25642107  0.37903279  1
  O  O244  1  0.00393393  0.25418383  0.87248929  1
  O  O245  1  0.00939794  0.74966687  0.37199729  1
  O  O246  1  0.01241025  0.74651403  0.86299022  1
  O  O247  1  0.48251688  0.21079317  0.35624633  1
  O  O248  1  0.51214310  0.24734513  0.87812110  1
  O  O249  1  0.50814319  0.75580196  0.36847756  1
  O  O250  1  0.50983875  0.75882589  0.87170162  1
  O  O251  1  0.24658811  0.13205149  0.49260402  1
  O  O252  1  0.25488804  0.14258985  0.99870420  1
  O  O253  1  0.24646382  0.63117146  0.49498888  1
  O  O254  1  0.24382713  0.62579282  0.99587149  1
  O  O255  1  0.75780566  0.13542921  0.48941666  1
  O  O256  1  0.74441777  0.13358342  0.99329659  1
  O  O257  1  0.73865879  0.61937137  0.49913857  1
  O  O258  1  0.74593961  0.62143203  0.99042695  1
  O  O259  1  0.25789321  0.36420508  -0.00285165  1
  O  O260  1  0.24358989  0.36730211  0.51169526  1
  O  O261  1  0.26297903  0.87301583  0.01042454  1
  O  O262  1  0.25662632  0.86813967  0.50592170  1
  O  O263  1  0.75109120  0.36958218  0.00744399  1
  O  O264  1  0.75180547  0.36934887  0.50646579  1
  O  O265  1  0.76571193  0.87536416  0.00092419  1
  O  O266  1  0.76438347  0.87945313  0.50786830  1
  O  O267  1  0.13374906  0.49243631  0.25251581  1
  O  O268  1  0.13353820  0.50977503  0.73517979  1
  O  O269  1  0.12829313  0.99945874  0.23546275  1
  O  O270  1  0.13066200  0.99289294  0.75201529  1
  O  O271  1  0.63891510  0.48936753  0.25594787  1
  O  O272  1  0.63510447  0.49676117  0.74366628  1
  O  O273  1  0.64171629  1.00270459  0.24800273  1
  O  O274  1  0.63907616  1.00587466  0.74630105  1
  O  O275  1  0.37834269  0.02923776  0.25881351  1
  O  O276  1  0.36614023  0.00482465  0.76013285  1
  O  O277  1  0.37036874  0.50394228  0.25736301  1
  O  O278  1  0.37192025  0.50254892  0.75726240  1
  O  O279  1  0.87044124  0.00745793  0.25607442  1
  O  O280  1  0.86882597  0.00306237  0.75746854  1
  O  O281  1  0.86208432  0.49412048  0.26356028  1
  O  O282  1  0.87028148  0.50728319  0.75059630  1
  O  O283  1  0.11487556  0.37012542  0.37124628  1
  O  O284  1  0.11215318  0.36247751  0.88133759  1
  O  O285  1  0.12474130  0.86354957  0.37307710  1
  O  O286  1  0.13214319  0.86536446  0.86645713  1
  O  O287  1  0.62132660  0.36880006  0.36407733  1
  O  O288  1  0.62650485  0.36111611  0.87334705  1
  O  O289  1  0.61597868  0.86695049  0.37955285  1
  O  O290  1  0.61847766  0.86640194  0.88019064  1
  O  O291  1  0.38467550  0.13677440  0.12089843  1
  O  O292  1  0.37829008  0.13076909  0.63403102  1
  O  O293  1  0.37447605  0.62957640  0.13900748  1
  O  O294  1  0.38224758  0.62717724  0.63351632  1
  O  O295  1  0.88058990  0.13213625  0.13044666  1
  O  O296  1  0.89180553  0.12216122  0.62436736  1
  O  O297  1  0.88620208  0.63675529  0.11767727  1
  O  O298  1  0.87020276  0.63196170  0.63241685  1
  O  O299  1  0.25634596  0.24718093  0.11509843  1
  O  O300  1  0.24521041  0.25620253  0.62272233  1
  O  O301  1  0.25757067  0.75871338  0.12459133  1
  O  O302  1  0.25523884  0.75465431  0.62159107  1
  O  O303  1  0.75437095  0.25574799  0.11794309  1
  O  O304  1  0.74402795  0.26027456  0.61742638  1
  O  O305  1  0.75951075  0.75232162  0.12000482  1
  O  O306  1  0.76457766  0.75716854  0.63156659  1
  O  O307  1  0.23846162  0.24369191  0.38663977  1
  O  O308  1  0.23856981  0.24732136  0.88492432  1
  O  O309  1  0.24445180  0.74361141  0.38090182  1
  O  O310  1  0.23875974  0.74064712  0.87408893  1
  O  O311  1  0.75264565  0.24041975  0.38094054  1
  O  O312  1  0.74975807  0.24439923  0.88199173  1
  O  O313  1  0.73796702  0.74956087  0.36529090  1
  O  O314  1  0.74768110  0.74229540  0.87521266  1
  O  O315  1  -0.00623879  0.11338450  0.01027120  1
  O  O316  1  -0.00502809  0.12015267  0.50834899  1
  O  O317  1  0.00857026  0.61898590  0.00435911  1
  O  O318  1  0.01162638  0.62523838  0.50053567  1
  O  O319  1  0.50931712  0.12983638  0.00538221  1
  O  O320  1  0.49192746  0.12360503  0.51905957  1
  O  O321  1  0.50900272  0.61692945  0.00044946  1
  O  O322  1  0.50622940  0.62111383  0.50985027  1
  O  O323  1  0.50227411  0.38685084  0.50810198  1
  O  O324  1  0.48821722  0.38269644  0.99806089  1
  O  O325  1  0.49162867  0.87400437  0.49049241  1
  O  O326  1  0.49205926  0.87592686  0.99254817  1
  O  O327  1  0.98919112  0.37281638  0.48753874  1
  O  O328  1  0.99922362  0.38472867  0.99614794  1
  O  O329  1  0.98882541  0.88357837  0.49860433  1
  O  O330  1  0.99079602  0.88957592  1.00384083  1
  O  O331  1  0.48986785  0.50405153  0.38306076  1
  O  O332  1  0.49723550  0.50705390  0.88140911  1
  O  O333  1  0.49737199  0.99152177  0.37804726  1
  O  O334  1  0.49200358  0.99429440  0.87052138  1
  O  O335  1  0.98501202  0.49424233  0.37094082  1
  O  O336  1  1.00294595  0.49307665  0.88196011  1
  O  O337  1  0.98882531  1.00225154  0.37950529  1
  O  O338  1  0.99193413  1.00829792  0.88258159  1
  O  O339  1  0.00745594  0.00844671  0.11829663  1
  O  O340  1  0.00061042  0.00843275  0.61539670  1
  O  O341  1  0.00064729  0.50725050  0.11904250  1
  O  O342  1  0.01190573  0.49858097  0.62954380  1
  O  O343  1  0.48951740  0.01398054  0.12048177  1
  O  O344  1  0.50139451  0.01450457  0.62721135  1
  O  O345  1  0.49620881  0.50317642  0.11089917  1
  O  O346  1  0.50650103  0.50922219  0.61548266  1
  O  O347  1  0.23820626  0.38314077  0.25803704  1
  O  O348  1  0.24840731  0.38735199  0.74243712  1
  O  O349  1  0.25499586  0.88154747  0.23751264  1
  O  O350  1  0.24363447  0.88419343  0.74777032  1
  O  O351  1  0.74157674  0.38273608  0.24432319  1
  O  O352  1  0.75632121  0.38371023  0.74332429  1
  O  O353  1  0.75412315  0.89198816  0.24358034  1
  O  O354  1  0.75718490  0.88461205  0.74029697  1
  O  O355  1  0.24371238  0.12875117  0.26845453  1
  O  O356  1  0.25464531  0.11323751  0.75160502  1
  O  O357  1  0.25724714  0.61717736  0.25804043  1
  O  O358  1  0.26047597  0.61380064  0.75206227  1
  O  O359  1  0.75918292  0.11813585  0.25384147  1
  O  O360  1  0.75426889  0.12101089  0.75672903  1
  O  O361  1  0.74415797  0.61012610  0.24968878  1
  O  O362  1  0.75898247  0.61383013  0.75439042  1
  O  O363  1  0.36092595  0.12624741  0.37981236  1
  O  O364  1  0.37290333  0.11866060  0.86986241  1
  O  O365  1  0.37137126  0.62290423  0.36570702  1
  O  O366  1  0.37203671  0.63165659  0.86265349  1
  O  O367  1  0.86991012  0.11966968  0.36607437  1
  O  O368  1  0.86339717  0.11681523  0.87693968  1
  O  O369  1  0.87316671  0.61128979  0.37987825  1
  O  O370  1  0.86636975  0.62482029  0.86749452  1
  O  O371  1  0.11805272  0.37610358  0.14147358  1
  O  O372  1  0.12884133  0.39120481  0.62208406  1
  O  O373  1  0.13612241  0.88234461  0.12456548  1
  O  O374  1  0.13157926  0.87647977  0.63432720  1
  O  O375  1  0.63575267  0.36866496  0.13054245  1
  O  O376  1  0.63139864  0.37983199  0.63192079  1
  O  O377  1  0.62332594  0.87182208  0.11040382  1
  O  O378  1  0.64053921  0.86916799  0.62293366  1
  O  O379  1  0.12768841  0.26008663  0.26348441  1
  O  O380  1  0.11172792  0.24795460  0.76169860  1
  O  O381  1  0.12902315  0.74814888  0.26339845  1
  O  O382  1  0.11939169  0.75415164  0.75364857  1
  O  O383  1  0.62901785  0.26431390  0.25469976  1
  O  O384  1  0.62555700  0.25508301  0.76548260  1
  O  O385  1  0.61219597  0.74510030  0.25611863  1
  O  O386  1  0.62539246  0.74074780  0.76227320  1
  O  O387  1  0.36784566  0.24059619  0.24158082  1
  O  O388  1  0.36215380  0.23969745  0.74090346  1
  O  O389  1  0.38450059  0.74209803  0.24846901  1
  O  O390  1  0.37631699  0.74164765  0.74347968  1
  O  O391  1  0.86785367  0.24291138  0.23786003  1
  O  O392  1  0.89008116  0.24691065  0.75490734  1
  O  O393  1  0.87585370  0.75294602  0.23736631  1
  O  O394  1  0.88335830  0.74345225  0.74490695  1
  O  O395  1  0.38434455  0.50403267  0.48980177  1
  O  O396  1  0.37933231  0.48984186  0.99911896  1
  O  O397  1  0.37601015  0.98700255  0.50135707  1
  O  O398  1  0.37031302  0.99337332  0.98799123  1
  O  O399  1  0.86586968  0.48712899  0.48245391  1
  O  O400  1  0.88805707  0.50161302  0.99784103  1
  O  O401  1  0.88178329  0.99438815  0.49090688  1
  O  O402  1  0.88199134  0.99529560  0.99241734  1
  O  O403  1  0.11833194  -0.00377059  0.01058253  1
  O  O404  1  0.10910942  -0.00695216  0.49885050  1
  O  O405  1  0.11714038  0.50685991  0.00326967  1
  O  O406  1  0.12958033  0.50855925  0.51289875  1
  O  O407  1  0.63002019  0.01634763  -0.01167981  1
  O  O408  1  0.62407950  -0.00067461  0.50810020  1
  O  O409  1  0.61487978  0.50616050  -0.00722203  1
  O  O410  1  0.61829646  0.50635534  0.50115118  1
  O  O411  1  0.37436564  0.36640552  0.11684838  1
  O  O412  1  0.35914582  0.36448529  0.62914745  1
  O  O413  1  0.37295745  0.87371115  0.11987773  1
  O  O414  1  0.37087560  0.87046511  0.62000941  1
  O  O415  1  0.86645333  0.36727170  0.12503203  1
  O  O416  1  0.86461729  0.38190346  0.61303132  1
  O  O417  1  0.87517490  0.86740599  0.11633402  1
  O  O418  1  0.86967738  0.86753892  0.61841132  1
  O  O419  1  0.12399706  0.13439899  0.37379469  1
  O  O420  1  0.12334204  0.13652229  0.87685671  1
  O  O421  1  0.13078684  0.62824856  0.38403283  1
  O  O422  1  0.12872432  0.63105128  0.88536768  1
  O  O423  1  0.63784239  0.12818865  0.36903055  1
  O  O424  1  0.63458602  0.13619922  0.87764872  1
  O  O425  1  0.62728207  0.63264019  0.38252116  1
  O  O426  1  0.63895874  0.62826226  0.87862523  1
