# generated using pymatgen
data_V85Zn86O256
_symmetry_space_group_name_H-M   'P 1'
_cell_length_a   16.93126069
_cell_length_b   16.94247842
_cell_length_c   16.94110535
_cell_angle_alpha   89.96478720
_cell_angle_beta   90.11828976
_cell_angle_gamma   89.97547383
_symmetry_Int_Tables_number   1
_chemical_formula_structural   V85Zn86O256
_chemical_formula_sum   'V85 Zn86 O256'
_cell_volume   4859.67172375
_cell_formula_units_Z   1
loop_
 _symmetry_equiv_pos_site_id
 _symmetry_equiv_pos_as_xyz
  1  'x, y, z'
loop_
 _atom_site_type_symbol
 _atom_site_label
 _atom_site_symmetry_multiplicity
 _atom_site_fract_x
 _atom_site_fract_y
 _atom_site_fract_z
 _atom_site_occupancy
  V  V0  1  0.36666521  0.61665533  0.75744505  1
  V  V1  1  0.49464686  0.62595601  0.62635491  1
  V  V2  1  0.87318971  0.25066931  0.62178408  1
  V  V3  1  -0.00479593  0.51037281  0.00791525  1
  V  V4  1  0.12818894  0.00559484  0.62322490  1
  V  V5  1  -0.00217938  0.63223085  0.62280918  1
  V  V6  1  0.74135225  0.62901555  0.87343915  1
  V  V7  1  0.38071717  0.74965281  0.12905476  1
  V  V8  1  0.87450673  0.11835327  0.74972046  1
  V  V9  1  0.12745519  0.75018064  0.37413412  1
  V  V10  1  0.87534200  0.37281329  0.00382474  1
  V  V11  1  0.37352790  0.12686119  0.74705365  1
  V  V12  1  0.75535322  0.86437688  0.62922409  1
  V  V13  1  0.00264839  0.50458479  0.50078569  1
  V  V14  1  0.74936454  0.37793107  0.62513126  1
  V  V15  1  0.12827428  0.88208360  0.24536812  1
  V  V16  1  0.25329630  0.25780704  0.49752592  1
  V  V17  1  0.75804080  -0.00383118  0.26445226  1
  V  V18  1  0.87390181  0.62812844  0.74574420  1
  V  V19  1  0.76220873  0.12105437  0.87676663  1
  V  V20  1  0.63211959  0.12528015  0.00542040  1
  V  V21  1  0.87652894  0.50318079  0.37435517  1
  V  V22  1  0.25028941  0.12486894  0.36830133  1
  V  V23  1  0.50405817  0.75118829  0.75628268  1
  V  V24  1  0.00624711  0.37846451  0.37232385  1
  V  V25  1  0.87602819  0.37735700  0.50012064  1
  V  V26  1  0.12447387  0.87472631  0.74959224  1
  V  V27  1  0.37553846  0.87242281  0.49949975  1
  V  V28  1  0.62193390  0.62470303  0.50005243  1
  V  V29  1  -0.00293873  0.25547406  0.24384869  1
  V  V30  1  0.75403661  0.36934448  0.12931936  1
  V  V31  1  0.61809245  -0.01154827  0.62493299  1
  V  V32  1  0.25356528  0.38314006  0.62695863  1
  V  V33  1  0.62191913  0.37597915  0.75217750  1
  V  V34  1  0.87288312  0.50120129  0.87552135  1
  V  V35  1  0.00246383  0.25417719  0.75240093  1
  V  V36  1  0.25411514  0.62699181  0.37449298  1
  V  V37  1  -0.00617509  0.75605159  0.74809945  1
  V  V38  1  0.87952652  0.74846983  0.12164524  1
  V  V39  1  0.61924660  0.87176968  0.24999958  1
  V  V40  1  0.87248626  0.88021144  -0.00589457  1
  V  V41  1  0.00216002  0.12727139  0.62213099  1
  V  V42  1  0.12773141  0.38365581  0.75278583  1
  V  V43  1  0.74962951  0.87463707  0.12699793  1
  V  V44  1  0.62525303  0.25032672  0.87394823  1
  V  V45  1  0.49253221  0.37131899  0.37647469  1
  V  V46  1  0.36862393  -0.00076647  0.37280730  1
  V  V47  1  0.62144802  0.50085718  0.12046672  1
  V  V48  1  0.51431157  0.87320597  0.87223858  1
  V  V49  1  0.74913113  0.49993209  0.25045998  1
  V  V50  1  0.37582757  0.25514427  0.61973818  1
  V  V51  1  0.24448224  0.12836676  0.88409766  1
  V  V52  1  0.61714507  0.74789965  0.37040690  1
  V  V53  1  0.62440084  0.12602724  0.49742054  1
  V  V54  1  0.74880032  0.62754520  0.37430681  1
  V  V55  1  0.87675370  0.12807974  0.25247121  1
  V  V56  1  -0.00541940  0.88283254  0.86858630  1
  V  V57  1  0.00467126  0.74615769  0.24579154  1
  V  V58  1  0.49989307  0.12109275  0.62123123  1
  V  V59  1  0.24603365  0.86992201  0.61207621  1
  V  V60  1  0.74271770  -0.00541536  0.75323534  1
  V  V61  1  0.25139121  0.74708050  -0.00641456  1
  V  V62  1  0.62413706  0.36991976  0.25839255  1
  V  V63  1  0.62212908  0.00345189  0.12844980  1
  V  V64  1  0.25178822  0.87866983  0.12677433  1
  V  V65  1  0.75867930  0.24803805  0.00366303  1
  V  V66  1  0.49198390  0.49596392  0.49831678  1
  V  V67  1  0.87706264  0.62619993  0.24387050  1
  V  V68  1  0.49962295  0.87906994  0.37973762  1
  V  V69  1  0.38006679  -0.00070652  0.87339010  1
  V  V70  1  0.25067628  0.49282521  0.24425681  1
  V  V71  1  0.44774652  0.42609663  0.93876426  1
  V  V72  1  0.13140017  0.63066504  0.50110417  1
  V  V73  1  0.25224588  -0.00194219  0.74885547  1
  V  V74  1  0.50115646  0.23791418  0.25953344  1
  V  V75  1  0.12327454  0.62697696  0.00607616  1
  V  V76  1  0.38138631  0.62493117  0.24881511  1
  V  V77  1  0.74063062  0.75021893  -0.00351925  1
  V  V78  1  0.12302006  0.49434032  0.12866156  1
  V  V79  1  0.44819893  0.17885086  0.07606264  1
  V  V80  1  0.37669069  0.87379642  -0.00291547  1
  V  V81  1  0.49621916  0.62140470  0.11812839  1
  V  V82  1  0.12636509  0.25652215  0.37064759  1
  V  V83  1  0.00584601  -0.00027134  0.00450922  1
  V  V84  1  0.25624692  0.36127023  0.11295049  1
  Zn  Zn85  1  0.12982850  0.50596465  0.63217506  1
  Zn  Zn86  1  0.75642665  0.12734457  0.38023316  1
  Zn  Zn87  1  0.36796969  0.74785531  0.62330705  1
  Zn  Zn88  1  0.75366816  0.74829048  0.50389733  1
  Zn  Zn89  1  -0.01300676  0.00403652  0.48596974  1
  Zn  Zn90  1  0.00117252  0.13429212  0.12011849  1
  Zn  Zn91  1  0.37395729  0.12051658  0.24454664  1
  Zn  Zn92  1  0.00235540  0.37734579  0.87835456  1
  Zn  Zn93  1  0.87649393  0.87076212  0.49102524  1
  Zn  Zn94  1  0.24249213  0.60001359  0.86601014  1
  Zn  Zn95  1  0.50129811  0.00174105  0.00304567  1
  Zn  Zn96  1  0.74914702  0.50018113  0.75012728  1
  Zn  Zn97  1  0.12421129  0.74777700  0.87482726  1
  Zn  Zn98  1  0.74062347  0.25531398  0.49252367  1
  Zn  Zn99  1  0.62352683  0.49909962  0.62553704  1
  Zn  Zn100  1  0.12435903  0.13115306  0.49858050  1
  Zn  Zn101  1  0.61752854  0.62357796  -0.00720392  1
  Zn  Zn102  1  0.13289564  0.01046459  0.12225978  1
  Zn  Zn103  1  0.14110486  0.25585779  0.89469180  1
  Zn  Zn104  1  0.37192342  0.49504153  0.37452659  1
  Zn  Zn105  1  -0.01004955  0.88284953  0.37074302  1
  Zn  Zn106  1  0.50181390  0.25324834  0.74813584  1
  Zn  Zn107  1  0.17951265  0.18667711  0.18906760  1
  Zn  Zn108  1  0.18895205  0.19457828  0.69228707  1
  Zn  Zn109  1  0.19408546  0.68459718  0.18270827  1
  Zn  Zn110  1  0.18511748  0.69003634  0.68982614  1
  Zn  Zn111  1  0.69041686  0.18766772  0.19391204  1
  Zn  Zn112  1  0.68835031  0.18665541  0.68425615  1
  Zn  Zn113  1  0.68645039  0.68847333  0.18581821  1
  Zn  Zn114  1  0.68061299  0.68390144  0.69064933  1
  Zn  Zn115  1  0.31611826  0.30832330  0.30183477  1
  Zn  Zn116  1  0.31278499  0.32064309  0.81125440  1
  Zn  Zn117  1  0.31153571  0.81080734  0.31106876  1
  Zn  Zn118  1  0.31634173  0.80925074  0.80819344  1
  Zn  Zn119  1  0.81347716  0.30917020  0.31784567  1
  Zn  Zn120  1  0.81239483  0.31067245  0.81263081  1
  Zn  Zn121  1  0.81194538  0.81153036  0.31863391  1
  Zn  Zn122  1  0.80922055  0.81388590  0.81136205  1
  Zn  Zn123  1  0.18984012  0.44224072  0.43933153  1
  Zn  Zn124  1  0.18516221  0.43256132  0.94179930  1
  Zn  Zn125  1  0.15693093  0.95642023  0.41900491  1
  Zn  Zn126  1  0.18807468  0.93640108  0.93466007  1
  Zn  Zn127  1  0.68488879  0.43952471  0.43805720  1
  Zn  Zn128  1  0.68539438  0.43714399  0.93839131  1
  Zn  Zn129  1  0.68583050  0.93724774  0.44476876  1
  Zn  Zn130  1  0.68974508  0.94120176  0.93894357  1
  Zn  Zn131  1  0.31032337  0.05840777  0.05709545  1
  Zn  Zn132  1  0.31124511  0.06223592  0.55392897  1
  Zn  Zn133  1  0.30057562  0.53331435  0.02502447  1
  Zn  Zn134  1  0.31390547  0.56371516  0.56137846  1
  Zn  Zn135  1  0.81776867  0.06062681  0.07278395  1
  Zn  Zn136  1  0.80633385  0.05747626  0.56300441  1
  Zn  Zn137  1  0.80655552  0.56275508  0.06292341  1
  Zn  Zn138  1  0.81223293  0.56490362  0.56227343  1
  Zn  Zn139  1  0.43477450  0.43461817  0.18195635  1
  Zn  Zn140  1  0.43827687  0.43950716  0.68950656  1
  Zn  Zn141  1  0.43781960  0.93905129  0.19048416  1
  Zn  Zn142  1  0.43676764  0.93360607  0.68687445  1
  Zn  Zn143  1  0.93874338  0.43845154  0.18693047  1
  Zn  Zn144  1  0.93987683  0.44252627  0.68747295  1
  Zn  Zn145  1  0.93647232  0.93442987  0.18955981  1
  Zn  Zn146  1  0.92247545  0.95082925  0.65384906  1
  Zn  Zn147  1  0.06438687  0.06874953  0.30766233  1
  Zn  Zn148  1  0.06148108  0.06116734  0.81145332  1
  Zn  Zn149  1  0.06444286  0.56515456  0.30924290  1
  Zn  Zn150  1  0.05936349  0.56427708  0.81719816  1
  Zn  Zn151  1  0.56261711  0.05418026  0.31686649  1
  Zn  Zn152  1  0.56377423  0.06630060  0.81271569  1
  Zn  Zn153  1  0.55904028  0.55882374  0.30919971  1
  Zn  Zn154  1  0.55763957  0.55726321  0.81148390  1
  Zn  Zn155  1  0.43883428  0.18493129  0.43918762  1
  Zn  Zn156  1  0.41523403  0.23077644  0.90813772  1
  Zn  Zn157  1  0.43503038  0.69235562  0.43810490  1
  Zn  Zn158  1  0.43525476  0.68515920  0.93580553  1
  Zn  Zn159  1  0.93561739  0.18796212  0.43383944  1
  Zn  Zn160  1  0.96812727  0.20378967  0.95391669  1
  Zn  Zn161  1  0.93700536  0.69639913  0.43537250  1
  Zn  Zn162  1  0.93468909  0.69137495  0.93313001  1
  Zn  Zn163  1  0.06716784  0.31894221  0.06217426  1
  Zn  Zn164  1  0.06702364  0.31618025  0.56254423  1
  Zn  Zn165  1  0.06193054  0.81487328  0.06073194  1
  Zn  Zn166  1  0.05823492  0.81370858  0.55784520  1
  Zn  Zn167  1  0.57212626  0.31363103  0.06593481  1
  Zn  Zn168  1  0.56091239  0.31122732  0.56298496  1
  Zn  Zn169  1  0.55932043  0.81296703  0.06321937  1
  Zn  Zn170  1  0.55941866  0.80829431  0.56146636  1
  O  O171  1  0.11339140  0.12071293  0.13155325  1
  O  O172  1  0.11929510  0.12429030  0.62809881  1
  O  O173  1  0.12845005  0.61663079  0.11243730  1
  O  O174  1  0.11976626  0.62594233  0.61727100  1
  O  O175  1  0.63713388  0.11761310  0.11478557  1
  O  O176  1  0.61712031  0.11589128  0.62181240  1
  O  O177  1  0.61520324  0.61801326  0.12784390  1
  O  O178  1  0.61520399  0.62176448  0.61630614  1
  O  O179  1  0.38886358  0.37400217  0.36980134  1
  O  O180  1  0.39282765  0.34720531  0.88643144  1
  O  O181  1  0.37905885  0.87680826  0.37911967  1
  O  O182  1  0.37929859  0.88597878  0.87611984  1
  O  O183  1  0.88382886  0.38388063  0.38242458  1
  O  O184  1  0.87068343  0.38597954  0.88369338  1
  O  O185  1  0.87529308  0.88222458  0.37369528  1
  O  O186  1  0.88132351  0.87153994  0.88230441  1
  O  O187  1  0.25240163  0.01375306  0.37955905  1
  O  O188  1  0.25989246  0.00730791  0.86864895  1
  O  O189  1  0.25048597  0.51040063  0.36605988  1
  O  O190  1  0.26559477  0.50305066  0.91679794  1
  O  O191  1  0.74235690  0.00261770  0.36640085  1
  O  O192  1  0.74686029  0.00653308  0.86342830  1
  O  O193  1  0.75532058  0.50682869  0.36968651  1
  O  O194  1  0.75996426  0.50888096  0.87633991  1
  O  O195  1  0.24180658  0.49139541  0.12597960  1
  O  O196  1  0.24953141  0.48688662  0.61808807  1
  O  O197  1  0.24974400  0.98391513  0.11805598  1
  O  O198  1  0.24719330  0.99378013  0.63068233  1
  O  O199  1  0.74419851  0.49287643  0.13390644  1
  O  O200  1  0.74943784  0.48897051  0.62529046  1
  O  O201  1  0.74074793  0.99144264  0.13280574  1
  O  O202  1  0.73736186  0.98805589  0.63528426  1
  O  O203  1  -0.00904539  0.37018194  0.26342327  1
  O  O204  1  0.00800232  0.37050700  0.74709616  1
  O  O205  1  0.00911345  0.86224879  0.24896123  1
  O  O206  1  0.00102082  0.87117015  0.75183283  1
  O  O207  1  0.50679266  0.36598567  0.25614112  1
  O  O208  1  0.51712920  0.37204221  0.74114958  1
  O  O209  1  0.51322501  0.87820766  0.25825131  1
  O  O210  1  0.49328456  0.86012612  0.75631184  1
  O  O211  1  0.50628320  0.13517734  0.25630966  1
  O  O212  1  0.48940976  0.12515501  0.73964203  1
  O  O213  1  0.48744933  0.62235603  0.24292620  1
  O  O214  1  0.49103951  0.63063958  0.74474139  1
  O  O215  1  0.99190738  0.13648164  0.25219481  1
  O  O216  1  0.99227851  0.13288605  0.74509378  1
  O  O217  1  0.99179021  0.63692390  0.25064179  1
  O  O218  1  0.99361368  0.63274052  0.74444908  1
  O  O219  1  0.38675666  0.23031570  0.01807079  1
  O  O220  1  0.36949889  0.24805231  0.51107612  1
  O  O221  1  0.36863387  0.75448709  0.00542618  1
  O  O222  1  0.37192659  0.76473212  0.50234990  1
  O  O223  1  0.87535199  0.26537731  -0.00260913  1
  O  O224  1  0.87907885  0.25657167  0.51160028  1
  O  O225  1  0.86870206  0.75718475  0.00633905  1
  O  O226  1  0.86673881  0.75389379  0.49662446  1
  O  O227  1  0.13236494  0.25212629  0.48974631  1
  O  O228  1  0.07358670  0.24321453  0.98228985  1
  O  O229  1  0.12154306  0.73878454  0.48960854  1
  O  O230  1  0.13076040  0.74353024  0.99994317  1
  O  O231  1  0.62448816  0.23076355  0.50999399  1
  O  O232  1  0.63771646  0.24197788  0.99532390  1
  O  O233  1  0.62468125  0.73764823  0.49229955  1
  O  O234  1  0.63771837  0.74711554  1.00729138  1
  O  O235  1  0.50415893  0.24606700  0.13336545  1
  O  O236  1  0.49181956  0.24155824  0.62674510  1
  O  O237  1  0.48774472  0.74395186  0.12301399  1
  O  O238  1  0.49686405  0.73898609  0.63241859  1
  O  O239  1  1.00122662  0.25991221  0.14183206  1
  O  O240  1  0.99607128  0.24410994  0.63149172  1
  O  O241  1  0.98708759  0.75355710  0.12819101  1
  O  O242  1  1.00469147  0.73971259  0.63217561  1
  O  O243  1  0.00680133  0.26098985  0.37285411  1
  O  O244  1  -0.02082359  0.25942829  0.85309429  1
  O  O245  1  0.01251859  0.75004650  0.36270856  1
  O  O246  1  0.00100107  0.76224255  0.86702460  1
  O  O247  1  0.50237480  0.25425421  0.36748126  1
  O  O248  1  0.52224541  0.23574373  0.86689062  1
  O  O249  1  0.51005847  0.75941159  0.37684538  1
  O  O250  1  0.49406622  0.75748461  0.86460417  1
  O  O251  1  0.24977785  0.14160763  0.49102136  1
  O  O252  1  0.24994208  0.12056961  0.98291128  1
  O  O253  1  0.24273679  0.62080288  0.48949406  1
  O  O254  1  0.24108265  0.63614837  1.00476185  1
  O  O255  1  0.73688381  0.12400585  0.50361241  1
  O  O256  1  0.75163576  0.12523722  0.99536624  1
  O  O257  1  0.73904063  0.62373075  0.49347838  1
  O  O258  1  0.75028864  0.63444734  0.99086827  1
  O  O259  1  0.23914978  0.35736200  0.01319845  1
  O  O260  1  0.24683034  0.36547285  0.50714485  1
  O  O261  1  0.25645614  0.86821832  0.00399537  1
  O  O262  1  0.24969338  0.87935982  0.51190200  1
  O  O263  1  0.75620440  0.37087703  0.00972199  1
  O  O264  1  0.75604867  0.37659637  0.50665210  1
  O  O265  1  0.75517839  0.86861124  0.00332270  1
  O  O266  1  0.74745445  0.87426802  0.51902179  1
  O  O267  1  0.13536920  0.51133529  0.23812252  1
  O  O268  1  0.11977511  0.48914801  0.75198362  1
  O  O269  1  0.12259550  0.98438044  0.24459442  1
  O  O270  1  0.13186448  0.99539189  0.74138406  1
  O  O271  1  0.63159955  0.49278812  0.24371719  1
  O  O272  1  0.62925279  0.49168125  0.74727738  1
  O  O273  1  0.63341395  0.99377759  0.24533205  1
  O  O274  1  0.63259985  1.00743206  0.73838751  1
  O  O275  1  0.37751473  0.00067573  0.26580246  1
  O  O276  1  0.37247990  0.00562517  0.75577865  1
  O  O277  1  0.36836661  0.50794885  0.25048204  1
  O  O278  1  0.37731113  0.51759389  0.74624162  1
  O  O279  1  0.86629611  0.00624346  0.24612389  1
  O  O280  1  0.86477884  0.01402645  0.73878320  1
  O  O281  1  0.87084458  0.50880479  0.25403832  1
  O  O282  1  0.87357965  0.50849654  0.75863813  1
  O  O283  1  0.11359476  0.37434503  0.38136400  1
  O  O284  1  0.12165011  0.37167994  0.86832880  1
  O  O285  1  0.13771870  0.85735514  0.36181535  1
  O  O286  1  0.11669029  0.87430747  0.86512305  1
  O  O287  1  0.61849288  0.38070382  0.36268945  1
  O  O288  1  0.64035332  0.36317091  0.86344164  1
  O  O289  1  0.61844427  0.86959739  0.37253372  1
  O  O290  1  0.61344775  0.88017913  0.87835853  1
  O  O291  1  0.38552113  0.11275676  0.12681641  1
  O  O292  1  0.38064183  0.12808884  0.62726576  1
  O  O293  1  0.38207471  0.63144208  0.13094905  1
  O  O294  1  0.37957667  0.62801299  0.63107255  1
  O  O295  1  0.88338402  0.12228985  0.14383728  1
  O  O296  1  0.88110183  0.13388369  0.62956991  1
  O  O297  1  0.86764583  0.63185742  0.13606672  1
  O  O298  1  0.88115069  0.62196312  0.63757840  1
  O  O299  1  0.24513936  0.26594781  0.14324005  1
  O  O300  1  0.25639564  0.25827659  0.61731673  1
  O  O301  1  0.26076379  0.75742633  0.11443123  1
  O  O302  1  0.24661459  0.76679623  0.62768059  1
  O  O303  1  0.74690272  0.26167313  0.12087030  1
  O  O304  1  0.75801772  0.26033720  0.61988602  1
  O  O305  1  0.75948060  0.75442853  0.11857246  1
  O  O306  1  0.73309144  0.76325174  0.62740775  1
  O  O307  1  0.24515894  0.25266270  0.37993298  1
  O  O308  1  0.25342151  0.23408039  0.86992097  1
  O  O309  1  0.24346528  0.73436572  0.36699765  1
  O  O310  1  0.24856389  0.75408377  0.88715903  1
  O  O311  1  0.75275396  0.24236323  0.38125129  1
  O  O312  1  0.74604338  0.24012428  0.88218015  1
  O  O313  1  0.73486781  0.74260938  0.37538684  1
  O  O314  1  0.75417687  0.74180620  0.88394393  1
  O  O315  1  -0.01967332  0.10009353  0.00217255  1
  O  O316  1  0.00170826  0.12395731  0.50925626  1
  O  O317  1  0.00276495  0.61773156  -0.00431450  1
  O  O318  1  0.00540146  0.62455176  0.50662056  1
  O  O319  1  0.51163256  0.12699448  0.00944478  1
  O  O320  1  0.50777981  0.12418312  0.51311099  1
  O  O321  1  0.50127597  0.63000757  0.01249720  1
  O  O322  1  0.50268772  0.62159869  0.50649055  1
  O  O323  1  0.50976736  0.38389312  0.48975828  1
  O  O324  1  0.52208070  0.37635851  0.98766465  1
  O  O325  1  0.49029981  0.87154618  0.49274393  1
  O  O326  1  0.49358736  0.87447449  0.98954838  1
  O  O327  1  0.99560771  0.38429839  0.49593663  1
  O  O328  1  0.98871496  0.39291994  1.00076129  1
  O  O329  1  0.99987414  0.88168767  0.49337099  1
  O  O330  1  0.99219434  0.88039361  0.98962490  1
  O  O331  1  0.49781916  0.49048486  0.38060742  1
  O  O332  1  0.49264249  0.49275465  0.87688398  1
  O  O333  1  0.49145813  0.98540899  0.37631498  1
  O  O334  1  0.49394535  0.99501881  0.87418951  1
  O  O335  1  0.99742929  0.49701588  0.37850014  1
  O  O336  1  0.98569845  0.50071804  0.88313492  1
  O  O337  1  1.04202520  0.98988594  0.38484758  1
  O  O338  1  1.00097145  0.98911587  0.88139525  1
  O  O339  1  0.00283897  -0.01239148  0.10950571  1
  O  O340  1  0.01352938  0.01772169  0.63522038  1
  O  O341  1  0.00705046  0.50099524  0.11940683  1
  O  O342  1  0.00312373  0.51506869  0.62000000  1
  O  O343  1  0.51736798  -0.00649677  0.12514265  1
  O  O344  1  0.51034951  0.00451083  0.63219603  1
  O  O345  1  0.51094508  0.50866991  0.13499237  1
  O  O346  1  0.50061060  0.50957150  0.61711983  1
  O  O347  1  0.25238557  0.39087399  0.25264523  1
  O  O348  1  0.24073422  0.37147091  0.74105726  1
  O  O349  1  0.24188711  0.86637279  0.23731732  1
  O  O350  1  0.24538084  0.88058964  0.74279663  1
  O  O351  1  0.74579186  0.37773082  0.24615007  1
  O  O352  1  0.74508853  0.37566528  0.74035664  1
  O  O353  1  0.74032965  0.88073732  0.24753369  1
  O  O354  1  0.74570289  0.88285111  0.74378345  1
  O  O355  1  0.25609102  0.13647112  0.26463228  1
  O  O356  1  0.26168218  0.11828443  0.74854856  1
  O  O357  1  0.26084214  0.61633931  0.25301954  1
  O  O358  1  0.25948110  0.62768397  0.75141922  1
  O  O359  1  0.76086154  0.11636722  0.25220039  1
  O  O360  1  0.75557069  0.11909683  0.75552717  1
  O  O361  1  0.75628949  0.62143345  0.25538213  1
  O  O362  1  0.75695032  0.62523615  0.75489664  1
  O  O363  1  0.36943441  0.11532162  0.37775017  1
  O  O364  1  0.36969521  0.12184519  0.86411439  1
  O  O365  1  0.36973819  0.62541788  0.36755496  1
  O  O366  1  0.36998375  0.62939235  0.86038878  1
  O  O367  1  0.87780283  0.11903369  0.36171233  1
  O  O368  1  0.86480687  0.13000176  0.86507341  1
  O  O369  1  0.87122320  0.62215592  0.36263994  1
  O  O370  1  0.86742054  0.62049648  0.86492638  1
  O  O371  1  0.13137906  0.38838137  0.12584712  1
  O  O372  1  0.13412923  0.37863069  0.63337030  1
  O  O373  1  0.13519493  0.87158411  0.13046376  1
  O  O374  1  0.13236536  0.88357335  0.62809854  1
  O  O375  1  0.63380006  0.38296347  0.13677215  1
  O  O376  1  0.63444187  0.37530408  0.62958247  1
  O  O377  1  0.62960118  0.87826623  0.13317970  1
  O  O378  1  0.62300614  0.88580529  0.62327255  1
  O  O379  1  0.11395557  0.25326373  0.26531302  1
  O  O380  1  0.11535918  0.26106797  0.75351381  1
  O  O381  1  0.11914525  0.74892290  0.25055656  1
  O  O382  1  0.11191198  0.75613532  0.75197713  1
  O  O383  1  0.61400206  0.25795152  0.24558338  1
  O  O384  1  0.62997098  0.25561778  0.75646929  1
  O  O385  1  0.62859172  0.75941681  0.25755134  1
  O  O386  1  0.60328596  0.74235293  0.75116714  1
  O  O387  1  0.39603317  0.24290396  0.24969363  1
  O  O388  1  0.37590457  0.24152970  0.73912203  1
  O  O389  1  0.36947862  0.74023705  0.23914679  1
  O  O390  1  0.38319081  0.73979435  0.74395577  1
  O  O391  1  0.88259748  0.23883862  0.25474734  1
  O  O392  1  0.87602795  0.24296786  0.73593152  1
  O  O393  1  0.88058673  0.74407665  0.24226126  1
  O  O394  1  0.88614249  0.74228872  0.75519027  1
  O  O395  1  0.38806005  0.50360618  0.49519051  1
  O  O396  1  0.40018648  0.47942892  1.01045808  1
  O  O397  1  0.36816995  0.98531148  0.48725997  1
  O  O398  1  0.38103209  0.99392279  0.98911421  1
  O  O399  1  0.88286320  0.49945848  0.49368749  1
  O  O400  1  0.87679773  0.49753501  0.99579153  1
  O  O401  1  0.88595739  0.98356581  0.53890465  1
  O  O402  1  0.87742911  0.98326024  1.00649545  1
  O  O403  1  0.10972022  -0.00603262  -0.00104544  1
  O  O404  1  0.13344509  0.01056827  0.51896678  1
  O  O405  1  0.11242004  0.50663084  0.00798434  1
  O  O406  1  0.11854810  0.51461802  0.50025003  1
  O  O407  1  0.62492137  0.00888168  0.00822032  1
  O  O408  1  0.62658824  0.00857801  0.51829332  1
  O  O409  1  0.63596065  0.50520103  0.01646795  1
  O  O410  1  0.61445319  0.51221610  0.49847218  1
  O  O411  1  0.35649236  0.37434492  0.12787839  1
  O  O412  1  0.36836685  0.36562396  0.63274117  1
  O  O413  1  0.37224423  0.86874307  0.12086628  1
  O  O414  1  0.36240515  0.87613912  0.61772447  1
  O  O415  1  0.86356273  0.38385085  0.11746321  1
  O  O416  1  0.87033336  0.37082246  0.62117236  1
  O  O417  1  0.86821107  0.86561189  0.11947649  1
  O  O418  1  0.85554118  0.85944781  0.63778741  1
  O  O419  1  0.13388576  0.13846902  0.37630156  1
  O  O420  1  0.14266272  0.12428358  0.86439964  1
  O  O421  1  0.13205904  0.63272744  0.37951806  1
  O  O422  1  0.12746080  0.62630499  0.88731659  1
  O  O423  1  0.62147146  0.11423121  0.39603471  1
  O  O424  1  0.63776683  0.12713066  0.88673293  1
  O  O425  1  0.62419284  0.63076229  0.37848295  1
  O  O426  1  0.63724650  0.61789858  0.87412223  1
