# generated using pymatgen
data_V85Zn86O256
_symmetry_space_group_name_H-M   'P 1'
_cell_length_a   16.93774143
_cell_length_b   16.93747965
_cell_length_c   16.94405810
_cell_angle_alpha   89.96948673
_cell_angle_beta   89.92776246
_cell_angle_gamma   89.97607299
_symmetry_Int_Tables_number   1
_chemical_formula_structural   V85Zn86O256
_chemical_formula_sum   'V85 Zn86 O256'
_cell_volume   4860.95132573
_cell_formula_units_Z   1
loop_
 _symmetry_equiv_pos_site_id
 _symmetry_equiv_pos_as_xyz
  1  'x, y, z'
loop_
 _atom_site_type_symbol
 _atom_site_label
 _atom_site_symmetry_multiplicity
 _atom_site_fract_x
 _atom_site_fract_y
 _atom_site_fract_z
 _atom_site_occupancy
  V  V0  1  0.49718771  0.38991182  0.37553091  1
  V  V1  1  0.74150303  0.62519918  0.87499355  1
  V  V2  1  0.36860073  -0.00886664  0.37385398  1
  V  V3  1  0.74419613  0.49959902  0.74396000  1
  V  V4  1  0.49399639  0.62414702  0.61533135  1
  V  V5  1  0.49437796  -0.00613367  0.50122384  1
  V  V6  1  0.75434590  -0.00216550  0.75417799  1
  V  V7  1  0.50065728  0.12583033  0.12474276  1
  V  V8  1  0.37498402  0.74661112  0.12579176  1
  V  V9  1  0.24646312  0.89251028  0.12873128  1
  V  V10  1  0.49596197  0.87017507  0.37643322  1
  V  V11  1  0.25078980  0.74774516  0.48931178  1
  V  V12  1  0.12259704  0.25329458  0.87519842  1
  V  V13  1  -0.00127166  0.87999792  0.87648227  1
  V  V14  1  0.88074517  0.48746068  0.37953545  1
  V  V15  1  0.62397116  0.87239082  0.24741515  1
  V  V16  1  0.62682410  0.12347388  0.49097572  1
  V  V17  1  -0.00305632  0.25451124  0.74960711  1
  V  V18  1  0.25400362  0.37813823  0.62694690  1
  V  V19  1  0.75270753  0.24680931  0.49047590  1
  V  V20  1  -0.00067528  0.48874680  0.50149210  1
  V  V21  1  0.62606715  0.50709407  0.12048443  1
  V  V22  1  0.26379329  0.25081148  0.50521862  1
  V  V23  1  0.49886153  0.13816666  0.62576498  1
  V  V24  1  0.37679514  0.25230961  0.12636251  1
  V  V25  1  0.62548485  0.37546672  0.24814761  1
  V  V26  1  0.75417375  0.87445488  0.62097235  1
  V  V27  1  0.11951062  0.25169436  0.37874860  1
  V  V28  1  0.37931758  -0.00398975  0.87128338  1
  V  V29  1  0.12450719  0.51700499  0.12149099  1
  V  V30  1  0.12269261  0.37723040  0.25549388  1
  V  V31  1  0.87000152  0.48830191  0.87734567  1
  V  V32  1  0.38118113  0.13766840  0.74692363  1
  V  V33  1  0.12597585  -0.00060711  0.62691565  1
  V  V34  1  0.25617875  0.86892790  0.62440087  1
  V  V35  1  0.62559447  0.12616837  -0.00100391  1
  V  V36  1  0.37590246  0.61853182  0.76250066  1
  V  V37  1  0.37779485  0.37980576  -0.00593683  1
  V  V38  1  0.75140877  0.37633203  0.61685383  1
  V  V39  1  0.12745328  0.12636221  0.50525420  1
  V  V40  1  0.89026899  0.74188737  0.12402547  1
  V  V41  1  0.87195767  0.87696281  -0.00283864  1
  V  V42  1  0.50180979  -0.00227729  -0.00411480  1
  V  V43  1  0.12199464  0.12003833  -0.00101058  1
  V  V44  1  0.75372682  0.75282253  0.49741048  1
  V  V45  1  0.61545214  0.75125024  0.87674609  1
  V  V46  1  0.25425790  0.50268240  0.26518270  1
  V  V47  1  0.76078723  0.37638182  0.12089634  1
  V  V48  1  0.75429291  0.50060881  0.24937177  1
  V  V49  1  0.12580288  0.87585086  0.75332292  1
  V  V50  1  -0.00761457  0.00468882  -0.00197327  1
  V  V51  1  0.75467695  0.62556458  0.37509488  1
  V  V52  1  0.61266165  0.37114462  0.74341006  1
  V  V53  1  0.75455607  0.12083649  0.87595872  1
  V  V54  1  0.49973799  0.25155222  0.25419657  1
  V  V55  1  0.37905499  0.39536355  0.49905005  1
  V  V56  1  0.37544869  0.87505302  -0.00271171  1
  V  V57  1  0.61831154  0.25011393  0.86863037  1
  V  V58  1  -0.01284211  -0.01010156  0.50571091  1
  V  V59  1  0.00133565  0.25250017  0.24258136  1
  V  V60  1  0.75496906  0.25576005  -0.00228822  1
  V  V61  1  -0.00161997  0.12691113  0.62570119  1
  V  V62  1  -0.00170402  0.75139211  0.75315847  1
  V  V63  1  0.61611503  0.87466188  0.75279900  1
  V  V64  1  0.87409770  0.25427029  0.61747864  1
  V  V65  1  0.61689295  0.50005714  0.61268922  1
  V  V66  1  0.12883114  0.74031520  0.87897904  1
  V  V67  1  0.24998658  0.37904725  0.12819330  1
  V  V68  1  0.87119822  0.62615224  0.74835742  1
  V  V69  1  0.12371422  0.62876718  0.48322935  1
  V  V70  1  0.50251514  0.50586764  -0.00827533  1
  V  V71  1  0.25110664  0.12478469  0.87282639  1
  V  V72  1  0.25195244  0.00056563  0.74934846  1
  V  V73  1  0.37059496  0.11977782  0.25126590  1
  V  V74  1  0.05265839  0.07180394  0.17164730  1
  V  V75  1  0.24746406  0.73830946  -0.00162349  1
  V  V76  1  0.74345651  0.74654144  0.00245701  1
  V  V77  1  0.86707675  0.12322583  0.24817777  1
  V  V78  1  0.62305934  -0.00079624  0.62432978  1
  V  V79  1  0.37542319  0.62015296  0.26211110  1
  V  V80  1  0.24945940  0.25077605  0.00113919  1
  V  V81  1  0.74633945  0.00146804  0.25593136  1
  V  V82  1  0.00499242  0.62381913  0.62787520  1
  V  V83  1  0.24670246  0.50402112  0.76766648  1
  V  V84  1  0.25384276  0.12453638  0.37820892  1
  Zn  Zn85  1  0.12680251  0.50141004  0.62900582  1
  Zn  Zn86  1  -0.01096331  0.37002970  0.88711357  1
  Zn  Zn87  1  0.50182931  0.62558593  0.12313648  1
  Zn  Zn88  1  0.49496153  0.75104049  0.74951507  1
  Zn  Zn89  1  0.62608023  -0.00066323  0.12413610  1
  Zn  Zn90  1  0.37394087  0.74850383  0.62560427  1
  Zn  Zn91  1  0.87339190  0.12312318  0.75224412  1
  Zn  Zn92  1  0.62927190  0.24809436  0.37105253  1
  Zn  Zn93  1  0.62646380  0.74801973  0.37381827  1
  Zn  Zn94  1  0.03447872  0.73629421  0.27507204  1
  Zn  Zn95  1  0.88432244  0.62569084  0.24551753  1
  Zn  Zn96  1  0.75038915  0.87460368  0.12584911  1
  Zn  Zn97  1  0.49957234  0.74792588  0.24910488  1
  Zn  Zn98  1  0.88252338  0.24913982  0.11853525  1
  Zn  Zn99  1  0.12696981  0.87590111  0.24939343  1
  Zn  Zn100  1  0.86889028  0.00000964  0.37775668  1
  Zn  Zn101  1  0.62163448  0.62362233  0.49439313  1
  Zn  Zn102  1  0.49485755  0.37479576  0.86842375  1
  Zn  Zn103  1  0.12334233  0.38001965  0.75157065  1
  Zn  Zn104  1  -0.00229982  0.86573519  0.37032755  1
  Zn  Zn105  1  0.87733011  0.75430185  0.62181134  1
  Zn  Zn106  1  -0.00478100  0.50418046  0.01111013  1
  Zn  Zn107  1  0.19227721  0.19146675  0.19065539  1
  Zn  Zn108  1  0.19028960  0.19175707  0.68818556  1
  Zn  Zn109  1  0.19590810  0.69034735  0.19038136  1
  Zn  Zn110  1  0.18787899  0.68632887  0.69413819  1
  Zn  Zn111  1  0.68910816  0.18774814  0.18451547  1
  Zn  Zn112  1  0.68546239  0.18645549  0.68388522  1
  Zn  Zn113  1  0.69118642  0.68760277  0.19037630  1
  Zn  Zn114  1  0.68198443  0.68904126  0.68415964  1
  Zn  Zn115  1  0.31242094  0.31412890  0.31839305  1
  Zn  Zn116  1  0.31012231  0.31514097  0.81264157  1
  Zn  Zn117  1  0.30465700  0.81070306  0.30543497  1
  Zn  Zn118  1  0.31417762  0.80958774  0.81241733  1
  Zn  Zn119  1  0.81589077  0.31264338  0.30892329  1
  Zn  Zn120  1  0.80232519  0.30886213  0.80313984  1
  Zn  Zn121  1  0.82016290  0.81666774  0.31280163  1
  Zn  Zn122  1  0.80895508  0.81261604  0.81400087  1
  Zn  Zn123  1  0.18419847  0.43777156  0.44270705  1
  Zn  Zn124  1  0.18355906  0.43611035  0.94135066  1
  Zn  Zn125  1  0.18678753  0.93062886  0.44251845  1
  Zn  Zn126  1  0.18846381  0.93634633  0.94004253  1
  Zn  Zn127  1  0.68878743  0.43498706  0.43385296  1
  Zn  Zn128  1  0.68410048  0.43604319  0.93445140  1
  Zn  Zn129  1  0.68487892  0.93477077  0.43523764  1
  Zn  Zn130  1  0.68605897  0.93464828  0.93618118  1
  Zn  Zn131  1  0.31606028  0.06633278  0.05848769  1
  Zn  Zn132  1  0.31644762  0.06101228  0.56435852  1
  Zn  Zn133  1  0.31496273  0.56051734  0.06639517  1
  Zn  Zn134  1  0.30695127  0.56728692  0.56563869  1
  Zn  Zn135  1  0.81277691  0.06249840  0.07049113  1
  Zn  Zn136  1  0.80856446  0.06688208  0.56829185  1
  Zn  Zn137  1  0.80920952  0.56553283  0.05739094  1
  Zn  Zn138  1  0.81387023  0.56495938  0.55900490  1
  Zn  Zn139  1  0.43875571  0.44120173  0.18520018  1
  Zn  Zn140  1  0.43296285  0.44143890  0.68340393  1
  Zn  Zn141  1  0.43667323  0.93631887  0.18608450  1
  Zn  Zn142  1  0.43699581  0.94011907  0.68571891  1
  Zn  Zn143  1  0.94266034  0.44007234  0.19044261  1
  Zn  Zn144  1  0.93458699  0.43866080  0.68905387  1
  Zn  Zn145  1  0.93253179  0.92359389  0.19528001  1
  Zn  Zn146  1  0.93458206  0.93793157  0.68918100  1
  Zn  Zn147  1  0.08844617  0.02846403  0.34322038  1
  Zn  Zn148  1  0.06031627  0.06383785  0.81361589  1
  Zn  Zn149  1  0.05701294  0.55944559  0.30784330  1
  Zn  Zn150  1  0.04483320  0.57461051  0.84583559  1
  Zn  Zn151  1  0.55858908  0.05830804  0.31261400  1
  Zn  Zn152  1  0.56430272  0.06335106  0.81100661  1
  Zn  Zn153  1  0.56575278  0.56584102  0.30699660  1
  Zn  Zn154  1  0.56028638  0.56134579  0.80647615  1
  Zn  Zn155  1  0.44202424  0.18589372  0.43640761  1
  Zn  Zn156  1  0.43717943  0.18779189  0.93614364  1
  Zn  Zn157  1  0.43345405  0.68953993  0.44045698  1
  Zn  Zn158  1  0.43639796  0.68604106  0.93911067  1
  Zn  Zn159  1  0.93741442  0.18119530  0.43329647  1
  Zn  Zn160  1  0.93473104  0.18684598  0.93708304  1
  Zn  Zn161  1  0.93579929  0.68673398  0.43649945  1
  Zn  Zn162  1  0.93524330  0.68403490  0.94111335  1
  Zn  Zn163  1  0.06205124  0.32196274  0.06133765  1
  Zn  Zn164  1  0.06970653  0.31332874  0.56671495  1
  Zn  Zn165  1  0.06766986  0.81655621  0.06434687  1
  Zn  Zn166  1  0.06638373  0.80848589  0.56321601  1
  Zn  Zn167  1  0.56706847  0.31683508  0.06176844  1
  Zn  Zn168  1  0.56206554  0.31365032  0.55501710  1
  Zn  Zn169  1  0.56008517  0.81336467  0.06156142  1
  Zn  Zn170  1  0.56555920  0.80828864  0.56209674  1
  O  O171  1  0.12105821  0.13090848  0.11709381  1
  O  O172  1  0.11830839  0.12174124  0.62463612  1
  O  O173  1  0.13507261  0.61471684  0.12724509  1
  O  O174  1  0.11174290  0.62329393  0.63125754  1
  O  O175  1  0.61713426  0.12463002  0.11654689  1
  O  O176  1  0.61734118  0.11775111  0.61655477  1
  O  O177  1  0.62574753  0.61085326  0.12977273  1
  O  O178  1  0.61489687  0.61526822  0.62490154  1
  O  O179  1  0.38193658  0.37290586  0.38935624  1
  O  O180  1  0.37657094  0.36761606  0.89023810  1
  O  O181  1  0.38065537  0.88193270  0.36704618  1
  O  O182  1  0.37174111  0.88815530  0.87984222  1
  O  O183  1  0.87109755  0.38874817  0.37588996  1
  O  O184  1  0.86072281  0.38545362  0.86787033  1
  O  O185  1  0.88354021  0.88730854  0.36928231  1
  O  O186  1  0.88314737  0.86798677  0.88785452  1
  O  O187  1  0.26346997  0.00639060  0.38822026  1
  O  O188  1  0.25751124  0.00672212  0.87080553  1
  O  O189  1  0.24729699  0.49352458  0.36387065  1
  O  O190  1  0.25068546  0.49387350  0.86605211  1
  O  O191  1  0.74721315  -0.00200481  0.36134968  1
  O  O192  1  0.74144897  0.00892849  0.86667910  1
  O  O193  1  0.75998348  0.50421055  0.37174559  1
  O  O194  1  0.75116766  0.50591720  0.86599150  1
  O  O195  1  0.24471321  0.49317401  0.13478192  1
  O  O196  1  0.24883985  0.48967298  0.63052119  1
  O  O197  1  0.25681482  0.99108094  0.11891182  1
  O  O198  1  0.24483706  0.99328547  0.62907806  1
  O  O199  1  0.74643418  0.49422597  0.12581259  1
  O  O200  1  0.74405737  0.49283469  0.62457964  1
  O  O201  1  0.74461082  0.99517242  0.13586177  1
  O  O202  1  0.74175526  0.99424160  0.63207304  1
  O  O203  1  0.01381249  0.36822125  0.25087767  1
  O  O204  1  0.00078344  0.36132593  0.74794055  1
  O  O205  1  0.00870002  0.86220864  0.24757929  1
  O  O206  1  0.00273863  0.87318465  0.75843969  1
  O  O207  1  0.50248712  0.36886335  0.25440983  1
  O  O208  1  0.50834271  0.37876287  0.74808647  1
  O  O209  1  0.50507601  0.87312887  0.25718653  1
  O  O210  1  0.51189467  0.87547019  0.74548218  1
  O  O211  1  0.49170730  0.13247695  0.24658300  1
  O  O212  1  0.49354377  0.11938079  0.73874110  1
  O  O213  1  0.48923173  0.62648889  0.24477723  1
  O  O214  1  0.48738058  0.62333248  0.74191084  1
  O  O215  1  0.99771196  0.12932906  0.23900159  1
  O  O216  1  0.99864575  0.13436535  0.74190799  1
  O  O217  1  0.99699782  0.63238199  0.25092827  1
  O  O218  1  0.98985656  0.63017003  0.74904713  1
  O  O219  1  0.37077081  0.25492296  0.00818990  1
  O  O220  1  0.36494410  0.25032359  0.49531798  1
  O  O221  1  0.36888055  0.75826529  0.00165123  1
  O  O222  1  0.35502731  0.74149810  0.50733728  1
  O  O223  1  0.86026363  0.24708977  -0.00004349  1
  O  O224  1  0.86944515  0.24160946  0.50897347  1
  O  O225  1  0.86689918  0.75366680  0.00469668  1
  O  O226  1  0.85862391  0.74123000  0.50625187  1
  O  O227  1  0.13329811  0.24547993  0.49493772  1
  O  O228  1  0.12668987  0.24096280  0.99386158  1
  O  O229  1  0.13240690  0.73504274  0.50481595  1
  O  O230  1  0.13989759  0.75392078  0.99537870  1
  O  O231  1  0.63361743  0.24117940  0.49703030  1
  O  O232  1  0.63374468  0.24559594  0.99262343  1
  O  O233  1  0.63744172  0.74571463  0.49509336  1
  O  O234  1  0.63113215  0.75719155  0.99015113  1
  O  O235  1  0.49682122  0.24828771  0.13514065  1
  O  O236  1  0.50449872  0.23726899  0.61941083  1
  O  O237  1  0.48659072  0.74892803  0.12321412  1
  O  O238  1  0.49749422  0.74100532  0.62840751  1
  O  O239  1  1.00260587  0.25598490  0.13780980  1
  O  O240  1  0.99464266  0.24553788  0.62925639  1
  O  O241  1  0.98957310  0.74885603  0.11326097  1
  O  O242  1  0.99742578  0.74332303  0.63399461  1
  O  O243  1  0.01518902  0.24016125  0.36632399  1
  O  O244  1  0.00304577  0.25110051  0.86728280  1
  O  O245  1  0.00740882  0.75286729  0.38704923  1
  O  O246  1  0.00816430  0.76219290  0.87337023  1
  O  O247  1  0.50023738  0.25601948  0.36287116  1
  O  O248  1  0.51444343  0.25156270  0.87961290  1
  O  O249  1  0.49919627  0.76107061  0.37605945  1
  O  O250  1  0.51187015  0.74441528  0.87327251  1
  O  O251  1  0.24776536  0.13339551  0.50170046  1
  O  O252  1  0.24244143  0.13126570  0.99407500  1
  O  O253  1  0.23314918  0.63350121  0.50538574  1
  O  O254  1  0.25922786  0.64017671  1.00076156  1
  O  O255  1  0.73896839  0.13319238  0.50546635  1
  O  O256  1  0.74350800  0.12899165  0.99406911  1
  O  O257  1  0.74590037  0.63057174  0.49201202  1
  O  O258  1  0.74800109  0.63324081  0.98651337  1
  O  O259  1  0.25691203  0.37037718  0.00853444  1
  O  O260  1  0.26057383  0.37129809  0.50558536  1
  O  O261  1  0.26220741  0.87476017  0.00704952  1
  O  O262  1  0.23908497  0.85815790  0.51146087  1
  O  O263  1  0.74304195  0.36700634  0.00757926  1
  O  O264  1  0.74312512  0.36454996  0.51050531  1
  O  O265  1  0.75725251  0.86764548  -0.00097624  1
  O  O266  1  0.74321554  0.86810200  0.50948963  1
  O  O267  1  0.13329677  0.49241026  0.24468324  1
  O  O268  1  0.14021192  0.50058932  0.75405549  1
  O  O269  1  0.11419445  1.01897572  0.23006515  1
  O  O270  1  0.13065021  0.99723780  0.74621758  1
  O  O271  1  0.63445073  0.49410886  0.24137201  1
  O  O272  1  0.62779215  0.49128467  0.73822898  1
  O  O273  1  0.62770353  0.99325407  0.24794090  1
  O  O274  1  0.63162946  0.99285912  0.74537940  1
  O  O275  1  0.38242994  0.00993868  0.26037345  1
  O  O276  1  0.37139657  0.00606279  0.75734785  1
  O  O277  1  0.36957471  0.51089226  0.24638893  1
  O  O278  1  0.36522105  0.50976104  0.74965420  1
  O  O279  1  0.86410415  0.00707148  0.24466543  1
  O  O280  1  0.85900835  0.00234792  0.74809044  1
  O  O281  1  0.87242361  0.50041977  0.26154574  1
  O  O282  1  0.86098517  0.50699865  0.75148845  1
  O  O283  1  0.13241624  0.36398620  0.36725737  1
  O  O284  1  0.12399952  0.36209158  0.87348709  1
  O  O285  1  0.11225366  0.91483385  0.36134618  1
  O  O286  1  0.11791577  0.87223592  0.87124735  1
  O  O287  1  0.61678102  0.37171414  0.36673944  1
  O  O288  1  0.62465980  0.36697413  0.86101226  1
  O  O289  1  0.61437385  0.87420014  0.36331362  1
  O  O290  1  0.62877951  0.86436656  0.86465411  1
  O  O291  1  0.38037547  0.13112222  0.13210763  1
  O  O292  1  0.38596267  0.12043676  0.63502171  1
  O  O293  1  0.37737406  0.63340065  0.13105334  1
  O  O294  1  0.38199986  0.62361765  0.63265376  1
  O  O295  1  0.87339346  0.13279375  0.13896512  1
  O  O296  1  0.88265305  0.13408945  0.63012799  1
  O  O297  1  0.87331319  0.63787655  0.11872399  1
  O  O298  1  0.88352506  0.62418138  0.63572196  1
  O  O299  1  0.25659415  0.25780538  0.12018353  1
  O  O300  1  0.24707669  0.26419532  0.61771551  1
  O  O301  1  0.26092580  0.75901398  0.11143856  1
  O  O302  1  0.24791010  0.75689412  0.62350188  1
  O  O303  1  0.74933311  0.26003027  0.11477863  1
  O  O304  1  0.75702726  0.25505279  0.61672679  1
  O  O305  1  0.74823752  0.75016546  0.10995501  1
  O  O306  1  0.74851854  0.75866002  0.61826269  1
  O  O307  1  0.24207160  0.24348389  0.38366396  1
  O  O308  1  0.24149664  0.24478173  0.88040370  1
  O  O309  1  0.25179364  0.75597978  0.39092053  1
  O  O310  1  0.24372589  0.76099690  0.89086479  1
  O  O311  1  0.75136676  0.25509946  0.38706212  1
  O  O312  1  0.73968019  0.24377859  0.87961795  1
  O  O313  1  0.75260367  0.74298983  0.37945243  1
  O  O314  1  0.74203290  0.74276446  0.88202936  1
  O  O315  1  0.00366643  0.11361743  -0.00590327  1
  O  O316  1  0.00470074  0.12395854  0.51513976  1
  O  O317  1  0.00809433  0.60295985  -0.04466883  1
  O  O318  1  0.01020616  0.61918154  0.51064735  1
  O  O319  1  0.50479427  0.11959321  0.00451201  1
  O  O320  1  0.50584282  0.11709364  0.50647246  1
  O  O321  1  0.49649916  0.60957433  0.00230146  1
  O  O322  1  0.50178503  0.62868026  0.51038818  1
  O  O323  1  0.48690240  0.37427713  0.49166932  1
  O  O324  1  0.49273899  0.38210845  0.99929401  1
  O  O325  1  0.50665750  0.88340983  0.49182765  1
  O  O326  1  0.48596658  0.88427799  1.00297076  1
  O  O327  1  1.00903636  0.38945175  0.50645590  1
  O  O328  1  1.00245685  0.38923849  0.99739142  1
  O  O329  1  1.00302623  0.88940307  0.50959641  1
  O  O330  1  0.99637671  0.88623070  0.99526767  1
  O  O331  1  0.50425910  0.48867447  0.36745084  1
  O  O332  1  0.50740894  0.49541164  0.88802062  1
  O  O333  1  0.49067394  0.99040837  0.38164712  1
  O  O334  1  0.49320969  1.00666722  0.88619798  1
  O  O335  1  0.98808328  0.50085245  0.38406275  1
  O  O336  1  0.97325240  0.48430931  0.85090232  1
  O  O337  1  0.99180653  1.01375633  0.40338318  1
  O  O338  1  1.00073643  0.98926777  0.88140208  1
  O  O339  1  -0.00380387  0.00288083  0.11838053  1
  O  O340  1  0.00320028  0.00844323  0.62328156  1
  O  O341  1  0.01915146  0.50050115  0.12899034  1
  O  O342  1  0.00004449  0.50691509  0.62063677  1
  O  O343  1  0.49799680  0.00733686  0.11212718  1
  O  O344  1  0.50469959  0.00340711  0.61592251  1
  O  O345  1  0.51079798  0.49889904  0.11520739  1
  O  O346  1  0.50732656  0.50869339  0.62590917  1
  O  O347  1  0.24718877  0.37956763  0.24510317  1
  O  O348  1  0.25406998  0.38709120  0.74429550  1
  O  O349  1  0.25405216  0.88300966  0.23247396  1
  O  O350  1  0.24517355  0.88160914  0.74599053  1
  O  O351  1  0.74543103  0.37990889  0.24193055  1
  O  O352  1  0.73697023  0.37809146  0.73373976  1
  O  O353  1  0.73945543  0.88080641  0.24789101  1
  O  O354  1  0.74091923  0.88112743  0.74586664  1
  O  O355  1  0.26411325  0.13029115  0.25676456  1
  O  O356  1  0.25755794  0.11963551  0.75355965  1
  O  O357  1  0.26598850  0.61516641  0.24698133  1
  O  O358  1  0.26122253  0.61170844  0.74692760  1
  O  O359  1  0.75456634  0.11770668  0.24777986  1
  O  O360  1  0.74591492  0.11609947  0.75685793  1
  O  O361  1  0.75736317  0.61683181  0.25619539  1
  O  O362  1  0.75398302  0.62137604  0.75049881  1
  O  O363  1  0.37305295  0.11807068  0.36846176  1
  O  O364  1  0.37141036  0.11573864  0.86984937  1
  O  O365  1  0.37883633  0.62759512  0.36057899  1
  O  O366  1  0.37897375  0.62390001  0.86137621  1
  O  O367  1  0.87972807  0.12058631  0.35536137  1
  O  O368  1  0.85872901  0.12937206  0.87127180  1
  O  O369  1  0.86435709  0.61518122  0.37544724  1
  O  O370  1  0.86029533  0.61726632  0.86172898  1
  O  O371  1  0.13928967  0.37461157  0.13633255  1
  O  O372  1  0.13723267  0.37930184  0.63161042  1
  O  O373  1  0.14316760  0.88043770  0.12105746  1
  O  O374  1  0.13201907  0.88034641  0.63475765  1
  O  O375  1  0.63383805  0.38407760  0.13122836  1
  O  O376  1  0.62695808  0.38065024  0.62603287  1
  O  O377  1  0.62191920  0.87657246  0.13666601  1
  O  O378  1  0.63299332  0.87998135  0.63276493  1
  O  O379  1  0.12133114  0.25590750  0.25781079  1
  O  O380  1  0.11652003  0.25007592  0.75909976  1
  O  O381  1  0.14353745  0.76149056  0.25322123  1
  O  O382  1  0.11913940  0.75933899  0.75765583  1
  O  O383  1  0.61715372  0.25524719  0.24979956  1
  O  O384  1  0.62970543  0.25819306  0.75579009  1
  O  O385  1  0.62160437  0.75733043  0.25216967  1
  O  O386  1  0.62314466  0.75900188  0.75716209  1
  O  O387  1  0.38153821  0.24533136  0.24625700  1
  O  O388  1  0.37328064  0.23658731  0.75803270  1
  O  O389  1  0.37295776  0.73916667  0.24144648  1
  O  O390  1  0.37403023  0.73598774  0.74848837  1
  O  O391  1  0.88642958  0.24427212  0.25014937  1
  O  O392  1  0.88001300  0.24755251  0.73884506  1
  O  O393  1  0.86667806  0.74994403  0.22629891  1
  O  O394  1  0.87892512  0.74232858  0.75046475  1
  O  O395  1  0.37052652  0.49330550  0.49818154  1
  O  O396  1  0.38911467  0.49103222  1.00746220  1
  O  O397  1  0.38751249  1.00313566  0.49203035  1
  O  O398  1  0.38132714  0.99627412  0.99069271  1
  O  O399  1  0.88427316  0.50300120  0.48956983  1
  O  O400  1  0.86916645  0.50282582  0.97948098  1
  O  O401  1  0.88498810  1.00376472  0.51054651  1
  O  O402  1  0.88130931  0.99189951  1.00397728  1
  O  O403  1  0.11800428  0.01418911  -0.00542464  1
  O  O404  1  0.11724855  0.00796324  0.51245037  1
  O  O405  1  0.13360822  0.49947423  0.02030107  1
  O  O406  1  0.11878677  0.51235161  0.50439820  1
  O  O407  1  0.61652941  0.00450913  -0.00035086  1
  O  O408  1  0.61693879  0.00603407  0.50313259  1
  O  O409  1  0.61242805  0.49337378  0.00616477  1
  O  O410  1  0.62850592  0.50002389  0.50972101  1
  O  O411  1  0.36588232  0.37209820  0.11977076  1
  O  O412  1  0.37098384  0.37751304  0.60877590  1
  O  O413  1  0.36870116  0.86946955  0.11723910  1
  O  O414  1  0.35999936  0.87422757  0.63063168  1
  O  O415  1  0.86385888  0.37409725  0.13121258  1
  O  O416  1  0.86436259  0.36624406  0.62780782  1
  O  O417  1  0.87246694  0.86225583  0.11109653  1
  O  O418  1  0.85866702  0.87361966  0.63195175  1
  O  O419  1  0.13596195  0.12699907  0.38538078  1
  O  O420  1  0.12842876  0.13441056  0.88042263  1
  O  O421  1  0.12344002  0.61949967  0.38587542  1
  O  O422  1  0.13589501  0.64275946  0.86108539  1
  O  O423  1  0.61562985  0.12648067  0.38747328  1
  O  O424  1  0.63207124  0.13175394  0.87917531  1
  O  O425  1  0.63930974  0.62442227  0.37292992  1
  O  O426  1  0.63532543  0.63197855  0.86309127  1
