# generated using pymatgen
data_V85Zn86O256
_symmetry_space_group_name_H-M   'P 1'
_cell_length_a   16.95090535
_cell_length_b   16.95987819
_cell_length_c   16.97531409
_cell_angle_alpha   90.02476617
_cell_angle_beta   89.92134336
_cell_angle_gamma   90.06893989
_symmetry_Int_Tables_number   1
_chemical_formula_structural   V85Zn86O256
_chemical_formula_sum   'V85 Zn86 O256'
_cell_volume   4880.14451083
_cell_formula_units_Z   1
loop_
 _symmetry_equiv_pos_site_id
 _symmetry_equiv_pos_as_xyz
  1  'x, y, z'
loop_
 _atom_site_type_symbol
 _atom_site_label
 _atom_site_symmetry_multiplicity
 _atom_site_fract_x
 _atom_site_fract_y
 _atom_site_fract_z
 _atom_site_occupancy
  V  V0  1  0.87801745  0.50615384  0.36831051  1
  V  V1  1  0.62631345  -0.00341385  0.13449426  1
  V  V2  1  -0.00442524  0.74228276  0.74957689  1
  V  V3  1  0.37915329  0.50117786  0.88146354  1
  V  V4  1  0.87164466  0.37725197  0.49142622  1
  V  V5  1  0.62636453  0.74806733  0.87256204  1
  V  V6  1  0.87695769  0.49934883  0.85352111  1
  V  V7  1  0.74886388  0.62788285  0.37607373  1
  V  V8  1  0.87269759  0.74040396  0.12774865  1
  V  V9  1  0.74778266  0.87498612  0.13676879  1
  V  V10  1  0.49860637  0.00912348  0.00095607  1
  V  V11  1  0.37977467  0.75258999  0.12909762  1
  V  V12  1  0.12493327  0.74822488  0.37538804  1
  V  V13  1  0.50123407  0.75130911  0.74945256  1
  V  V14  1  0.00182445  0.49598286  0.49274004  1
  V  V15  1  0.12207898  0.87440593  0.74501087  1
  V  V16  1  -0.00746959  0.62039024  0.62631334  1
  V  V17  1  0.12106099  0.25555295  0.86471699  1
  V  V18  1  0.12866896  0.62299027  0.50287803  1
  V  V19  1  0.37673241  0.00257481  0.37792954  1
  V  V20  1  0.49777382  -0.00165401  0.50094166  1
  V  V21  1  0.24770929  0.37069834  0.12809851  1
  V  V22  1  0.38738460  0.12933821  0.25424731  1
  V  V23  1  0.62697616  -0.00537087  0.62342235  1
  V  V24  1  0.87651082  0.87200840  0.49882302  1
  V  V25  1  0.25028030  0.87532538  0.12422649  1
  V  V26  1  -0.00238390  0.74138014  0.25108193  1
  V  V27  1  0.68243976  0.93090177  0.79603657  1
  V  V28  1  0.50643073  0.37565606  0.88054833  1
  V  V29  1  0.75014342  0.50674460  0.24910440  1
  V  V30  1  0.37423101  0.87652307  0.00034164  1
  V  V31  1  -0.00029882  0.87325293  0.87637157  1
  V  V32  1  0.50051069  0.62793888  0.12233380  1
  V  V33  1  0.48424826  0.51146472  0.50022464  1
  V  V34  1  0.62211050  0.61376952  -0.00404028  1
  V  V35  1  0.24544031  -0.00082701  0.74884655  1
  V  V36  1  0.37356661  0.00151062  0.87512206  1
  V  V37  1  -0.00324770  0.49653488  -0.00315532  1
  V  V38  1  0.12538268  0.74572854  0.87648163  1
  V  V39  1  0.51045578  0.25430725  0.75975937  1
  V  V40  1  0.50129567  0.87449249  0.36017623  1
  V  V41  1  0.61423454  0.25382915  0.37213533  1
  V  V42  1  0.38193988  0.24997429  0.13110059  1
  V  V43  1  -0.00517386  0.00311814  0.00116928  1
  V  V44  1  0.37342807  0.12760831  0.74989250  1
  V  V45  1  0.75436354  0.61625189  0.86150874  1
  V  V46  1  0.50118329  0.87657145  0.87401248  1
  V  V47  1  0.74544296  0.25490647  0.49719771  1
  V  V48  1  0.37831289  0.37782990  0.00456690  1
  V  V49  1  0.48588230  0.38440671  0.38053881  1
  V  V50  1  0.11860479  0.25342620  0.37656648  1
  V  V51  1  0.24941747  0.74849886  0.50229838  1
  V  V52  1  0.61776104  0.50079754  0.12424982  1
  V  V53  1  0.74785082  0.87304913  0.62342247  1
  V  V54  1  0.61653187  0.37518707  0.25174690  1
  V  V55  1  0.12414465  0.13135817  0.00555563  1
  V  V56  1  0.37481136  0.27308207  0.62578102  1
  V  V57  1  0.13085027  0.48683233  0.62635396  1
  V  V58  1  0.11143600  0.37456017  0.25305996  1
  V  V59  1  0.24967635  0.13069709  0.38045421  1
  V  V60  1  0.12506667  0.50332226  0.11789300  1
  V  V61  1  0.87221843  0.24421647  0.12884403  1
  V  V62  1  0.24920411  0.87259517  0.62696154  1
  V  V63  1  0.00187103  0.62416492  0.11894797  1
  V  V64  1  0.25180157  0.50156728  0.25129914  1
  V  V65  1  0.37564058  0.87677656  0.50099383  1
  V  V66  1  0.12497367  0.00305912  0.12826905  1
  V  V67  1  0.12604896  0.87418580  0.25138039  1
  V  V68  1  0.50131182  0.12753049  0.62905940  1
  V  V69  1  0.24624060  0.62172374  0.87783951  1
  V  V70  1  0.24531263  0.74557665  0.00079098  1
  V  V71  1  0.25170766  0.62335123  0.37393001  1
  V  V72  1  0.74909534  0.37361571  0.11669558  1
  V  V73  1  0.25122070  0.48595794  0.74601358  1
  V  V74  1  0.00771535  0.00175401  0.50700729  1
  V  V75  1  0.61985428  0.75468009  0.36328116  1
  V  V76  1  0.37963381  0.62514474  0.25185000  1
  V  V77  1  0.38176257  0.74735292  0.62437206  1
  V  V78  1  0.37391278  0.62423341  0.74282407  1
  V  V79  1  0.75011489  0.74402712  0.00012550  1
  V  V80  1  0.73978716  0.38369926  0.63248399  1
  V  V81  1  0.87626999  0.87366876  -0.00075378  1
  V  V82  1  0.62426095  0.12626426  0.49766645  1
  V  V83  1  0.64156575  0.13518088  -0.00073371  1
  V  V84  1  0.87339292  0.00389560  0.36396619  1
  Zn  Zn85  1  0.62224344  0.51074464  0.62758880  1
  Zn  Zn86  1  0.24847076  0.24825787  0.00192133  1
  Zn  Zn87  1  0.50526221  0.13090432  0.12686714  1
  Zn  Zn88  1  -0.01661252  0.24336026  0.26283299  1
  Zn  Zn89  1  0.00881553  0.25124052  0.71951641  1
  Zn  Zn90  1  0.25062033  0.00317561  0.25286129  1
  Zn  Zn91  1  0.61593986  0.62871401  0.50391174  1
  Zn  Zn92  1  0.88165937  0.24815521  0.61346582  1
  Zn  Zn93  1  -0.00017499  0.87449480  0.37524348  1
  Zn  Zn94  1  0.81337937  0.06490925  0.83644359  1
  Zn  Zn95  1  0.74531020  0.74947136  0.49928850  1
  Zn  Zn96  1  0.07847948  0.05929413  0.66969280  1
  Zn  Zn97  1  0.25489993  0.26723055  0.50335645  1
  Zn  Zn98  1  0.68895387  0.21073784  0.84060238  1
  Zn  Zn99  1  0.90084715  0.11752966  0.71311780  1
  Zn  Zn100  1  0.11819409  0.13766507  0.51096533  1
  Zn  Zn101  1  0.87127927  0.74530876  0.62649634  1
  Zn  Zn102  1  0.87094964  0.37442217  -0.00874457  1
  Zn  Zn103  1  0.00696059  0.37752378  0.85699363  1
  Zn  Zn104  1  -0.00980152  0.12033786  0.13843020  1
  Zn  Zn105  1  0.24320268  0.12477917  0.87673550  1
  Zn  Zn106  1  0.76044673  0.12953755  0.36014670  1
  Zn  Zn107  1  0.18919893  0.18704360  0.19657849  1
  Zn  Zn108  1  0.19568322  0.19278011  0.68606437  1
  Zn  Zn109  1  0.18654677  0.68605369  0.18495890  1
  Zn  Zn110  1  0.18717179  0.68196356  0.68809190  1
  Zn  Zn111  1  0.68665821  0.19144529  0.18685979  1
  Zn  Zn112  1  0.73214186  0.16204963  0.66962418  1
  Zn  Zn113  1  0.68655953  0.68737309  0.18994529  1
  Zn  Zn114  1  0.68371593  0.68750912  0.68528370  1
  Zn  Zn115  1  0.30866505  0.31167071  0.31118520  1
  Zn  Zn116  1  0.31429178  0.30819867  0.82015625  1
  Zn  Zn117  1  0.31329957  0.81225439  0.31233002  1
  Zn  Zn118  1  0.31259157  0.81248684  0.81417773  1
  Zn  Zn119  1  0.80321575  0.31995725  0.31134547  1
  Zn  Zn120  1  0.83262189  0.30530437  0.79951739  1
  Zn  Zn121  1  0.81509505  0.81139002  0.31395422  1
  Zn  Zn122  1  0.81784211  0.80545774  0.81636726  1
  Zn  Zn123  1  0.19062145  0.43505273  0.43396225  1
  Zn  Zn124  1  0.19003335  0.43572827  0.94023598  1
  Zn  Zn125  1  0.18930692  0.93695450  0.43641485  1
  Zn  Zn126  1  0.18266781  0.93875700  0.93637870  1
  Zn  Zn127  1  0.67938139  0.44403969  0.44120370  1
  Zn  Zn128  1  0.71617701  0.39747835  0.89909455  1
  Zn  Zn129  1  0.68898821  0.93517047  0.43348337  1
  Zn  Zn130  1  0.68454966  0.93477076  0.96585856  1
  Zn  Zn131  1  0.31052232  0.06543922  0.06624051  1
  Zn  Zn132  1  0.29772101  0.07007108  0.57100954  1
  Zn  Zn133  1  0.31185076  0.56313984  0.06405380  1
  Zn  Zn134  1  0.32383091  0.44539469  0.56239433  1
  Zn  Zn135  1  0.80968132  0.06054300  0.06446938  1
  Zn  Zn136  1  0.80800072  0.05503629  0.54590416  1
  Zn  Zn137  1  0.81032152  0.55853849  0.05692794  1
  Zn  Zn138  1  0.80899254  0.56012419  0.55942431  1
  Zn  Zn139  1  0.43748171  0.44036982  0.18986140  1
  Zn  Zn140  1  0.46961571  0.45285100  0.70333683  1
  Zn  Zn141  1  0.43810750  0.94492271  0.18816583  1
  Zn  Zn142  1  0.43851478  0.93646239  0.68896396  1
  Zn  Zn143  1  0.93348798  0.43802358  0.18658277  1
  Zn  Zn144  1  0.94042325  0.42669582  0.67813288  1
  Zn  Zn145  1  0.93867162  0.92971132  0.18645037  1
  Zn  Zn146  1  0.92865205  0.93738894  0.69079897  1
  Zn  Zn147  1  0.05849272  0.06447745  0.31893658  1
  Zn  Zn148  1  0.01023129  0.08784242  0.84114124  1
  Zn  Zn149  1  0.06422149  0.56254706  0.30862999  1
  Zn  Zn150  1  0.06688892  0.55946283  0.80949815  1
  Zn  Zn151  1  0.59347485  0.08011121  0.29370242  1
  Zn  Zn152  1  0.56362952  0.07090565  0.81763078  1
  Zn  Zn153  1  0.56138864  0.56502313  0.31429098  1
  Zn  Zn154  1  0.56357205  0.56438444  0.80866235  1
  Zn  Zn155  1  0.44056222  0.19120081  0.44271698  1
  Zn  Zn156  1  0.43364288  0.19054594  0.93951342  1
  Zn  Zn157  1  0.43649471  0.69083011  0.43313381  1
  Zn  Zn158  1  0.43593212  0.68637422  0.93915634  1
  Zn  Zn159  1  0.93826989  0.18405552  0.44341230  1
  Zn  Zn160  1  0.93196709  0.19691737  0.94882421  1
  Zn  Zn161  1  0.93640264  0.68435614  0.43816070  1
  Zn  Zn162  1  0.93678484  0.68096500  0.93775452  1
  Zn  Zn163  1  0.05536709  0.31328957  0.06717028  1
  Zn  Zn164  1  0.06113461  0.31546501  0.55397531  1
  Zn  Zn165  1  0.06346172  0.81174481  0.06430686  1
  Zn  Zn166  1  0.05893536  0.81183702  0.56409883  1
  Zn  Zn167  1  0.56186764  0.31424647  0.06176933  1
  Zn  Zn168  1  0.55768257  0.31933513  0.56238474  1
  Zn  Zn169  1  0.56166262  0.81169780  0.06002189  1
  Zn  Zn170  1  0.56418785  0.80913911  0.55685944  1
  O  O171  1  0.13271966  0.11167663  0.12494984  1
  O  O172  1  0.16077931  0.11360569  0.61355669  1
  O  O173  1  0.11571600  0.61558262  0.12725060  1
  O  O174  1  0.12064268  0.61674775  0.61617853  1
  O  O175  1  0.62392571  0.11518389  0.11550698  1
  O  O176  1  0.62514924  0.11662502  0.61357493  1
  O  O177  1  0.61808691  0.62200428  0.11925898  1
  O  O178  1  0.62572742  0.62579532  0.61751265  1
  O  O179  1  0.38865690  0.37448752  0.36373725  1
  O  O180  1  0.37622634  0.38197320  0.88817477  1
  O  O181  1  0.37735344  0.88178897  0.38139337  1
  O  O182  1  0.37893964  0.88107289  0.88262294  1
  O  O183  1  0.86595983  0.39158155  0.38218595  1
  O  O184  1  0.88642612  0.39013826  0.87258672  1
  O  O185  1  0.87826616  0.87896429  0.38326878  1
  O  O186  1  0.88352021  0.86605439  0.89099873  1
  O  O187  1  0.26215701  0.00683984  0.37732292  1
  O  O188  1  0.25365941  -0.00090175  0.86451367  1
  O  O189  1  0.24151252  0.50887971  0.35761916  1
  O  O190  1  0.25504528  0.50535342  0.86871553  1
  O  O191  1  0.76930189  -0.00196697  0.38136006  1
  O  O192  1  0.73705438  -0.01956042  0.87036929  1
  O  O193  1  0.75224373  0.50918255  0.36722666  1
  O  O194  1  0.76786636  0.50038612  0.87061812  1
  O  O195  1  0.24195302  0.49597118  0.13212921  1
  O  O196  1  0.24835472  0.49919990  0.63926089  1
  O  O197  1  0.24355041  0.99151325  0.12930681  1
  O  O198  1  0.26261694  0.98598808  0.64212595  1
  O  O199  1  0.73907115  0.49825002  0.13156274  1
  O  O200  1  0.74564614  0.48851477  0.61949140  1
  O  O201  1  0.74013131  0.98763290  0.12071124  1
  O  O202  1  0.73595632  0.98788538  0.61877789  1
  O  O203  1  0.00966438  0.37490367  0.24661959  1
  O  O204  1  0.00483009  0.36544680  0.74356177  1
  O  O205  1  0.01274723  0.86099889  0.24791952  1
  O  O206  1  0.00702904  0.86660954  0.75426664  1
  O  O207  1  0.51042351  0.38543785  0.25884604  1
  O  O208  1  0.48592273  0.35843486  0.76726868  1
  O  O209  1  0.48628009  0.87315724  0.26233331  1
  O  O210  1  0.49255516  0.86184736  0.76018026  1
  O  O211  1  0.49059423  0.12088245  0.24827141  1
  O  O212  1  0.49356603  0.13609399  0.74956300  1
  O  O213  1  0.49089136  0.62137942  0.23660358  1
  O  O214  1  0.48562624  0.64411548  0.76399199  1
  O  O215  1  1.00962300  0.13257601  0.24702732  1
  O  O216  1  1.01666123  0.12803959  0.73648610  1
  O  O217  1  1.00481849  0.63498353  0.23763907  1
  O  O218  1  1.00986346  0.63080281  0.73815477  1
  O  O219  1  0.36824031  0.25824733  0.01040731  1
  O  O220  1  0.38388702  0.25110477  0.52458944  1
  O  O221  1  0.36575008  0.75516968  0.00879669  1
  O  O222  1  0.37108512  0.75381561  0.50878976  1
  O  O223  1  0.87481075  0.26211163  0.02063378  1
  O  O224  1  0.86271506  0.26080996  0.48767247  1
  O  O225  1  0.87204855  0.75227255  0.00804076  1
  O  O226  1  0.87499877  0.76100522  0.50108429  1
  O  O227  1  0.13474116  0.25316491  0.48929243  1
  O  O228  1  0.12618157  0.23904940  1.01266958  1
  O  O229  1  0.12783030  0.74306316  0.49583993  1
  O  O230  1  0.13795148  0.75541718  0.99524880  1
  O  O231  1  0.62545358  0.24590906  0.49494861  1
  O  O232  1  0.62570815  0.23365623  1.01382365  1
  O  O233  1  0.62724647  0.74804438  0.48472056  1
  O  O234  1  0.62824273  0.74152720  0.98829211  1
  O  O235  1  0.48619974  0.25066501  0.12433415  1
  O  O236  1  0.49358114  0.24873766  0.63966521  1
  O  O237  1  0.48979456  0.74437530  0.12036630  1
  O  O238  1  0.48959365  0.75761109  0.63400978  1
  O  O239  1  0.98116859  0.25258236  0.13294064  1
  O  O240  1  0.99684354  0.24116173  0.60325109  1
  O  O241  1  0.99495041  0.74158581  0.12839308  1
  O  O242  1  1.00057839  0.73871186  0.63321103  1
  O  O243  1  0.01340335  0.24648286  0.37851097  1
  O  O244  1  0.01665317  0.25585585  0.88534177  1
  O  O245  1  0.00559867  0.74775372  0.36580252  1
  O  O246  1  0.00598683  0.75036245  0.87027252  1
  O  O247  1  0.50709475  0.26657893  0.38223706  1
  O  O248  1  0.49375011  0.25809082  0.86846792  1
  O  O249  1  0.51050124  0.76011714  0.37544285  1
  O  O250  1  0.50699672  0.75726520  0.87466347  1
  O  O251  1  0.26174580  0.13517111  0.48561050  1
  O  O252  1  0.23817835  0.12324189  0.99820543  1
  O  O253  1  0.23705708  0.63122865  0.49369920  1
  O  O254  1  0.25483726  0.63472224  0.99241605  1
  O  O255  1  0.73627429  0.13391507  0.48522826  1
  O  O256  1  0.74110246  0.12173905  0.99548574  1
  O  O257  1  0.75056319  0.62748951  0.48446675  1
  O  O258  1  0.74070759  0.62766884  0.99126115  1
  O  O259  1  0.25733443  0.37540325  0.01585863  1
  O  O260  1  0.25989259  0.38013909  0.49811371  1
  O  O261  1  0.25539854  0.86946448  0.00389948  1
  O  O262  1  0.25481344  0.86853500  0.50637564  1
  O  O263  1  0.74669986  0.38883365  0.01703857  1
  O  O264  1  0.75361796  0.37121060  0.49626358  1
  O  O265  1  0.76123534  0.86204559  0.00747747  1
  O  O266  1  0.75805294  0.87314977  0.50739345  1
  O  O267  1  0.12964716  0.49353200  0.23889391  1
  O  O268  1  0.14250538  0.50278536  0.74142856  1
  O  O269  1  0.12635992  0.99012094  0.24625660  1
  O  O270  1  0.13411908  0.98725382  0.74897812  1
  O  O271  1  0.62969569  0.49855316  0.24212481  1
  O  O272  1  0.57676832  0.49015391  0.73126443  1
  O  O273  1  0.60570095  0.98468822  0.23125647  1
  O  O274  1  0.61845595  0.99735746  0.74366583  1
  O  O275  1  0.37234735  0.00850934  0.26105626  1
  O  O276  1  0.37166333  0.00568211  0.75825124  1
  O  O277  1  0.36349870  0.51312818  0.24020901  1
  O  O278  1  0.36810101  0.50865538  0.75783904  1
  O  O279  1  0.88231291  -0.00990083  0.26527370  1
  O  O280  1  0.88176208  0.01311403  0.75496514  1
  O  O281  1  0.86416509  0.49700190  0.25696867  1
  O  O282  1  0.88649390  0.50177523  0.75600117  1
  O  O283  1  0.12813680  0.36829265  0.36281328  1
  O  O284  1  0.12613117  0.35947930  0.88368672  1
  O  O285  1  0.12480432  0.86735865  0.36629033  1
  O  O286  1  0.12098586  0.86552262  0.86548056  1
  O  O287  1  0.61724804  0.37172980  0.36758194  1
  O  O288  1  0.60407093  0.39021521  0.88610334  1
  O  O289  1  0.61572955  0.86615022  0.37603001  1
  O  O290  1  0.62474919  0.86956007  0.87255613  1
  O  O291  1  0.37429053  0.13309504  0.13611211  1
  O  O292  1  0.38129051  0.12314251  0.64044272  1
  O  O293  1  0.38155444  0.63308526  0.12848245  1
  O  O294  1  0.37178802  0.63568429  0.64091920  1
  O  O295  1  0.86692352  0.14050701  0.12618795  1
  O  O296  1  0.83712155  0.13441428  0.61835667  1
  O  O297  1  0.88049982  0.63427626  0.12008416  1
  O  O298  1  0.88899799  0.62458048  0.61559223  1
  O  O299  1  0.25805896  0.25863063  0.12888101  1
  O  O300  1  0.27170122  0.25726764  0.62797033  1
  O  O301  1  0.25471336  0.75462520  0.11704456  1
  O  O302  1  0.25971290  0.75297929  0.62197801  1
  O  O303  1  0.75364427  0.26678978  0.13053166  1
  O  O304  1  0.74450568  0.26272353  0.60436794  1
  O  O305  1  0.75662167  0.74976450  0.12050931  1
  O  O306  1  0.75119375  0.76152274  0.62337212  1
  O  O307  1  0.24204350  0.24476207  0.37513166  1
  O  O308  1  0.23671761  0.24627022  0.88196986  1
  O  O309  1  0.24471153  0.74472093  0.38182494  1
  O  O310  1  0.24753258  0.74208314  0.88247036  1
  O  O311  1  0.73279460  0.25270472  0.38059327  1
  O  O312  1  0.75342204  0.29246529  0.87869627  1
  O  O313  1  0.74136222  0.74450575  0.37288734  1
  O  O314  1  0.74370151  0.74096592  0.88033880  1
  O  O315  1  0.00860954  0.11633708  0.01812305  1
  O  O316  1  0.00296003  0.10640081  0.49950437  1
  O  O317  1  -0.00063999  0.61527579  0.01142372  1
  O  O318  1  0.01052736  0.61839935  0.50490752  1
  O  O319  1  0.49479778  0.11600428  0.00372681  1
  O  O320  1  0.50200025  0.11858331  0.51325480  1
  O  O321  1  0.50648455  0.62942237  0.01181571  1
  O  O322  1  0.49822126  0.61556875  0.48713134  1
  O  O323  1  0.49814760  0.38593130  0.48581694  1
  O  O324  1  0.48561814  0.37168092  0.99753884  1
  O  O325  1  0.49172596  0.88126313  0.49450445  1
  O  O326  1  0.49368336  0.88532983  0.99373703  1
  O  O327  1  0.99096868  0.39078603  0.49571605  1
  O  O328  1  0.99989831  0.39035584  1.00162577  1
  O  O329  1  0.99317959  0.87913016  0.49849497  1
  O  O330  1  0.99369706  0.87771432  0.99954168  1
  O  O331  1  0.50166185  0.49000761  0.37828957  1
  O  O332  1  0.48235143  0.49716594  0.87597686  1
  O  O333  1  0.48691922  0.99293401  0.38207034  1
  O  O334  1  0.49510488  0.99598389  0.88171390  1
  O  O335  1  0.99092315  0.51061358  0.38024281  1
  O  O336  1  0.99485069  0.50322769  0.88045817  1
  O  O337  1  0.99072542  0.99431786  0.38462891  1
  O  O338  1  1.01522245  0.98551938  0.89729701  1
  O  O339  1  0.00907390  -0.00431431  0.11918539  1
  O  O340  1  0.00186284  -0.00887075  0.61182056  1
  O  O341  1  0.00445080  0.50677613  0.12021804  1
  O  O342  1  0.00928787  0.50552176  0.61477428  1
  O  O343  1  0.50323286  0.00161255  0.11358831  1
  O  O344  1  0.50954278  0.00380854  0.62280437  1
  O  O345  1  0.51134313  0.50755556  0.12635433  1
  O  O346  1  0.48647951  0.50024870  0.60107982  1
  O  O347  1  0.24556286  0.38407188  0.24090026  1
  O  O348  1  0.25762228  0.38865243  0.75752082  1
  O  O349  1  0.23927508  0.87401984  0.24477324  1
  O  O350  1  0.24262713  0.87819428  0.74815929  1
  O  O351  1  0.73537944  0.38925961  0.24222967  1
  O  O352  1  0.75678301  0.37170186  0.72881540  1
  O  O353  1  0.75327803  0.86759770  0.23525641  1
  O  O354  1  0.75097843  0.86977425  0.74407473  1
  O  O355  1  0.26084170  0.12310264  0.26521104  1
  O  O356  1  0.25761142  0.11515373  0.75497692  1
  O  O357  1  0.25571984  0.61924325  0.25064594  1
  O  O358  1  0.25812268  0.62016273  0.75957856  1
  O  O359  1  0.70131190  0.11641135  0.26687886  1
  O  O360  1  0.73945925  0.13115200  0.77610100  1
  O  O361  1  0.74565448  0.61442588  0.25801227  1
  O  O362  1  0.74769278  0.63109454  0.76368233  1
  O  O363  1  0.37605019  0.12087955  0.37166606  1
  O  O364  1  0.37238099  0.12047819  0.86573859  1
  O  O365  1  0.36748680  0.63623436  0.35793529  1
  O  O366  1  0.36478420  0.61958595  0.87220321  1
  O  O367  1  0.87530486  0.11002430  0.37658365  1
  O  O368  1  0.90487468  0.10993358  0.88776631  1
  O  O369  1  0.86594640  0.61559862  0.37528035  1
  O  O370  1  0.86746945  0.61046321  0.87747794  1
  O  O371  1  0.13155014  0.38045442  0.13212490  1
  O  O372  1  0.12639625  0.38872786  0.61519407  1
  O  O373  1  0.12995102  0.88298698  0.13127568  1
  O  O374  1  0.13230259  0.86452445  0.63801528  1
  O  O375  1  0.62846147  0.38341350  0.13055440  1
  O  O376  1  0.63689812  0.37851372  0.61925286  1
  O  O377  1  0.63704417  0.88276479  0.10808975  1
  O  O378  1  0.63113967  0.88211280  0.62135947  1
  O  O379  1  0.12711227  0.26216695  0.25760369  1
  O  O380  1  0.12909698  0.24730671  0.76329689  1
  O  O381  1  0.12038530  0.75459362  0.25364471  1
  O  O382  1  0.11827400  0.75374903  0.75624847  1
  O  O383  1  0.62186553  0.26434389  0.25861397  1
  O  O384  1  0.60847354  0.24906188  0.75501087  1
  O  O385  1  0.62507564  0.75005132  0.26337283  1
  O  O386  1  0.61591629  0.74723861  0.76415189  1
  O  O387  1  0.37187207  0.24105282  0.24368308  1
  O  O388  1  0.37779592  0.24239008  0.74416672  1
  O  O389  1  0.36611453  0.74283332  0.23486329  1
  O  O390  1  0.37830910  0.74657516  0.74371595  1
  O  O391  1  0.86914624  0.26202382  0.23760014  1
  O  O392  1  0.88773931  0.23589138  0.73393141  1
  O  O393  1  0.88674402  0.75361108  0.24070685  1
  O  O394  1  0.89152862  0.75030714  0.74811520  1
  O  O395  1  0.38389802  0.50775016  0.48714420  1
  O  O396  1  0.36689289  0.49089225  0.99405663  1
  O  O397  1  0.37667020  0.99697387  0.49654325  1
  O  O398  1  0.37914004  0.99738379  0.99566552  1
  O  O399  1  0.88280136  0.49763402  0.48984803  1
  O  O400  1  0.88420355  0.49669059  0.99471329  1
  O  O401  1  0.88591903  0.98756145  0.49418186  1
  O  O402  1  0.88461250  0.98705563  1.01256902  1
  O  O403  1  0.12040880  0.00584585  0.01146196  1
  O  O404  1  0.10916605  -0.00593598  0.49363946  1
  O  O405  1  0.12094276  0.49681242  0.01245934  1
  O  O406  1  0.11994883  0.50713302  0.50175057  1
  O  O407  1  0.61344377  0.01269200  0.00667409  1
  O  O408  1  0.61848676  0.00606715  0.50394850  1
  O  O409  1  0.62690554  0.51343007  0.00947591  1
  O  O410  1  0.60852981  0.50732229  0.50038146  1
  O  O411  1  0.36895017  0.37050597  0.12412209  1
  O  O412  1  0.38658921  0.37348656  0.63435370  1
  O  O413  1  0.37080496  0.86982583  0.12109093  1
  O  O414  1  0.37011090  0.86628995  0.62137403  1
  O  O415  1  0.85743902  0.37647450  0.12557807  1
  O  O416  1  0.86332008  0.37700751  0.60408022  1
  O  O417  1  0.87086178  0.86142827  0.11713009  1
  O  O418  1  0.86501695  0.87258566  0.61769217  1
  O  O419  1  0.13563339  0.13279394  0.38111542  1
  O  O420  1  0.11904971  0.13820141  0.89133460  1
  O  O421  1  0.13035716  0.63001181  0.38045229  1
  O  O422  1  0.13874638  0.62895248  0.87193763  1
  O  O423  1  0.60016860  0.13797686  0.39255532  1
  O  O424  1  0.61766841  0.13239306  0.89551954  1
  O  O425  1  0.63072519  0.63752630  0.37327414  1
  O  O426  1  0.62856074  0.62762962  0.88026011  1
