# generated using pymatgen
data_V85Zn86O256
_symmetry_space_group_name_H-M   'P 1'
_cell_length_a   16.94459578
_cell_length_b   16.94282638
_cell_length_c   16.95419208
_cell_angle_alpha   89.87476952
_cell_angle_beta   89.92603631
_cell_angle_gamma   90.00647358
_symmetry_Int_Tables_number   1
_chemical_formula_structural   V85Zn86O256
_chemical_formula_sum   'V85 Zn86 O256'
_cell_volume   4867.35217285
_cell_formula_units_Z   1
loop_
 _symmetry_equiv_pos_site_id
 _symmetry_equiv_pos_as_xyz
  1  'x, y, z'
loop_
 _atom_site_type_symbol
 _atom_site_label
 _atom_site_symmetry_multiplicity
 _atom_site_fract_x
 _atom_site_fract_y
 _atom_site_fract_z
 _atom_site_occupancy
  V  V0  1  0.86805490  0.11863559  0.74802725  1
  V  V1  1  0.63462632  0.37111759  0.74946523  1
  V  V2  1  0.12570421  0.36865389  0.75573213  1
  V  V3  1  0.87472525  0.63352141  0.24003377  1
  V  V4  1  0.24833506  0.37448906  0.62374936  1
  V  V5  1  0.37779078  -0.00087043  0.37592481  1
  V  V6  1  0.12886586  0.75005353  0.88011816  1
  V  V7  1  0.87470539  0.50389366  0.87506377  1
  V  V8  1  0.63871941  0.87183884  0.74949595  1
  V  V9  1  0.13214420  0.13428383  0.00395360  1
  V  V10  1  0.75408947  0.50450518  0.74799968  1
  V  V11  1  0.12502172  0.87787647  0.75057923  1
  V  V12  1  0.62353796  0.48963753  0.12645993  1
  V  V13  1  0.00117422  0.24494146  0.24505235  1
  V  V14  1  0.76346081  0.26606467  0.51098280  1
  V  V15  1  0.25115785  0.62455648  0.37661522  1
  V  V16  1  0.37489425  0.50331584  0.36833091  1
  V  V17  1  0.63120366  0.49258861  0.62415057  1
  V  V18  1  0.87925908  0.49893251  0.37274608  1
  V  V19  1  -0.00417302  0.12779269  0.62675175  1
  V  V20  1  0.50273636  -0.00403389  0.00273824  1
  V  V21  1  0.86912172  0.87869745  0.50157847  1
  V  V22  1  0.62810178  0.24454547  0.87783202  1
  V  V23  1  0.76344028  0.75564990  0.00336092  1
  V  V24  1  0.25871409  0.62867364  0.87042803  1
  V  V25  1  0.86697949  0.75509814  0.62850622  1
  V  V26  1  0.31936857  0.68008122  0.18946044  1
  V  V27  1  0.12535660  0.50235958  0.62632200  1
  V  V28  1  0.74665038  0.49104708  0.24974495  1
  V  V29  1  0.50690771  0.75036177  0.24945600  1
  V  V30  1  0.36940743  0.86266883  0.00182536  1
  V  V31  1  0.00173657  0.37969239  0.36693841  1
  V  V32  1  0.50262655  0.74930099  0.75181819  1
  V  V33  1  -0.00591267  0.24717986  0.75309194  1
  V  V34  1  -0.02291389  0.46411838  0.52815312  1
  V  V35  1  0.25708568  0.50425230  0.74802386  1
  V  V36  1  0.12459638  0.12566103  0.50241233  1
  V  V37  1  0.75771457  0.11834231  0.37973505  1
  V  V38  1  0.00139361  0.36839750  0.87990143  1
  V  V39  1  0.24833036  0.74964687  0.50176250  1
  V  V40  1  0.25066678  0.13888606  0.87412702  1
  V  V41  1  0.26007813  0.00364232  0.75300682  1
  V  V42  1  0.12566067  0.25236922  0.37250154  1
  V  V43  1  0.12226508  0.75615082  0.37106921  1
  V  V44  1  -0.00425638  0.88042684  0.87690100  1
  V  V45  1  0.37445805  0.12614520  0.24779221  1
  V  V46  1  0.49657495  0.62171472  0.63019220  1
  V  V47  1  0.68275004  0.94166077  0.19581066  1
  V  V48  1  0.62535600  0.63456600  -0.00598957  1
  V  V49  1  0.25122872  0.12577262  0.37407575  1
  V  V50  1  0.12333977  0.50238121  0.12539777  1
  V  V51  1  0.50208310  0.25467519  0.24706635  1
  V  V52  1  0.24663059  -0.00853688  0.24537932  1
  V  V53  1  -0.00544190  0.63076815  0.62769750  1
  V  V54  1  0.87392087  0.23518074  0.12751070  1
  V  V55  1  0.24952899  0.87610833  0.62571004  1
  V  V56  1  0.63968587  -0.00427750  0.62852782  1
  V  V57  1  0.50124031  0.87350778  0.87296746  1
  V  V58  1  -0.00497416  0.74870281  0.75227136  1
  V  V59  1  -0.00507401  0.00147124  0.49605234  1
  V  V60  1  0.50368855  0.12158679  0.12219837  1
  V  V61  1  0.50310717  0.37479559  0.37320378  1
  V  V62  1  0.24852471  0.36772518  0.12005562  1
  V  V63  1  0.50114637  0.49883313  -0.00178348  1
  V  V64  1  0.50071091  0.00058525  0.50172710  1
  V  V65  1  0.87860068  0.11520187  0.25985356  1
  V  V66  1  0.75101276  0.62784798  0.37433267  1
  V  V67  1  0.49870513  0.49847369  0.49978410  1
  V  V68  1  0.24906032  0.25053888  0.50093518  1
  V  V69  1  0.49770966  0.12228855  0.63588127  1
  V  V70  1  -0.00021684  0.00985542  0.00837101  1
  V  V71  1  0.75122343  0.11320779  0.87896479  1
  V  V72  1  0.11605084  0.62363004  0.49873660  1
  V  V73  1  0.37465689  0.24545389  0.62989314  1
  V  V74  1  -0.00292037  0.87909532  0.36879586  1
  V  V75  1  0.37513486  0.74563289  0.63045861  1
  V  V76  1  0.49922568  0.62620953  0.12778898  1
  V  V77  1  0.62637694  0.13092345  0.50425989  1
  V  V78  1  0.37948109  0.87466081  0.49842253  1
  V  V79  1  0.12793222  0.62240797  -0.00396409  1
  V  V80  1  0.37026909  0.36874214  -0.00511891  1
  V  V81  1  0.62702568  0.62447529  0.50021059  1
  V  V82  1  0.63040137  0.25366376  0.36784387  1
  V  V83  1  0.87008233  0.37196159  0.00551475  1
  V  V84  1  0.50122278  0.37311748  0.87274030  1
  Zn  Zn85  1  0.12561428  0.00149276  0.62656343  1
  Zn  Zn86  1  0.12963802  0.37607325  0.24525240  1
  Zn  Zn87  1  0.75111429  0.24110697  0.00324571  1
  Zn  Zn88  1  0.87739477  0.87108351  0.01967789  1
  Zn  Zn89  1  0.37865658  0.50285598  0.86828616  1
  Zn  Zn90  1  0.63042946  0.11327033  0.00329500  1
  Zn  Zn91  1  0.37598112  0.00490300  0.87485646  1
  Zn  Zn92  1  0.62521592  0.75453036  0.37295012  1
  Zn  Zn93  1  0.12544654  -0.00882389  0.12545073  1
  Zn  Zn94  1  -0.00172969  0.49977866  0.00048136  1
  Zn  Zn95  1  -0.00777673  0.76073803  0.24377706  1
  Zn  Zn96  1  0.74843159  0.62567250  0.87310139  1
  Zn  Zn97  1  0.74870669  0.75497352  0.50287106  1
  Zn  Zn98  1  -0.00773780  0.63302168  0.11479042  1
  Zn  Zn99  1  0.25238331  0.86445658  0.11952389  1
  Zn  Zn100  1  0.54681073  0.90851866  0.33038690  1
  Zn  Zn101  1  0.49826713  0.24522288  0.75226294  1
  Zn  Zn102  1  0.37384232  0.37377682  0.49887252  1
  Zn  Zn103  1  0.25262912  0.49957511  0.24670490  1
  Zn  Zn104  1  0.87282487  -0.00278739  0.87322188  1
  Zn  Zn105  1  0.37098752  0.24751771  0.11753965  1
  Zn  Zn106  1  0.74401839  0.36197278  0.13403909  1
  Zn  Zn107  1  0.18653722  0.18417638  0.18326533  1
  Zn  Zn108  1  0.18520678  0.18735195  0.69127845  1
  Zn  Zn109  1  0.13974877  0.72491471  0.15873226  1
  Zn  Zn110  1  0.18390030  0.68919080  0.68992092  1
  Zn  Zn111  1  0.70417861  0.15041235  0.17643777  1
  Zn  Zn112  1  0.69032463  0.18783002  0.68819308  1
  Zn  Zn113  1  0.68492724  0.68448539  0.18282180  1
  Zn  Zn114  1  0.68445755  0.68384619  0.68805743  1
  Zn  Zn115  1  0.31405330  0.31507375  0.30949635  1
  Zn  Zn116  1  0.31428637  0.31353306  0.80925691  1
  Zn  Zn117  1  0.31668388  0.81302039  0.31868695  1
  Zn  Zn118  1  0.31545209  0.81389586  0.81317506  1
  Zn  Zn119  1  0.81577996  0.30972787  0.31697274  1
  Zn  Zn120  1  0.81388538  0.30868095  0.81577814  1
  Zn  Zn121  1  0.81021830  0.81743659  0.31423625  1
  Zn  Zn122  1  0.81317297  0.80503072  0.82211401  1
  Zn  Zn123  1  0.18173148  0.43955740  0.43775174  1
  Zn  Zn124  1  0.18810938  0.43899676  0.93530782  1
  Zn  Zn125  1  0.18699990  0.93908651  0.43591730  1
  Zn  Zn126  1  0.18702907  0.94131377  0.93751459  1
  Zn  Zn127  1  0.68759216  0.43752960  0.43413998  1
  Zn  Zn128  1  0.68905307  0.43607134  0.93922783  1
  Zn  Zn129  1  0.68769829  0.93807940  0.44038853  1
  Zn  Zn130  1  0.68479818  0.93161990  0.93547072  1
  Zn  Zn131  1  0.31699505  0.06006209  0.05727757  1
  Zn  Zn132  1  0.31197004  0.06249494  0.56547425  1
  Zn  Zn133  1  0.30742019  0.55230899  0.05133691  1
  Zn  Zn134  1  0.31320693  0.56186539  0.55762919  1
  Zn  Zn135  1  0.81584605  0.03085900  0.08058445  1
  Zn  Zn136  1  0.81529210  0.06886819  0.56001324  1
  Zn  Zn137  1  0.80671112  0.55896457  0.06211744  1
  Zn  Zn138  1  0.81302159  0.56429766  0.56463345  1
  Zn  Zn139  1  0.43501152  0.43563923  0.18491309  1
  Zn  Zn140  1  0.43842741  0.43145655  0.68653566  1
  Zn  Zn141  1  0.43241608  0.93604842  0.18113404  1
  Zn  Zn142  1  0.44008006  0.93472935  0.68515854  1
  Zn  Zn143  1  0.93583740  0.43751013  0.18507552  1
  Zn  Zn144  1  0.93761742  0.43592599  0.69570373  1
  Zn  Zn145  1  0.93041643  0.93889752  0.18680824  1
  Zn  Zn146  1  0.93756450  0.94003771  0.68510561  1
  Zn  Zn147  1  0.06433361  0.06196679  0.31321909  1
  Zn  Zn148  1  0.06875490  0.06439810  0.81807474  1
  Zn  Zn149  1  0.06213208  0.56681645  0.30691976  1
  Zn  Zn150  1  0.06287140  0.55988909  0.81201058  1
  Zn  Zn151  1  0.56579614  0.07495320  0.31294328  1
  Zn  Zn152  1  0.56670512  0.05564968  0.81338977  1
  Zn  Zn153  1  0.56291747  0.56502416  0.30976765  1
  Zn  Zn154  1  0.56426709  0.55967117  0.81041606  1
  Zn  Zn155  1  0.43813733  0.18829340  0.44089453  1
  Zn  Zn156  1  0.43624249  0.18479068  0.93482324  1
  Zn  Zn157  1  0.43859989  0.68640318  0.43808202  1
  Zn  Zn158  1  0.44106532  0.68709282  0.93601658  1
  Zn  Zn159  1  0.93808729  0.19574941  0.43971123  1
  Zn  Zn160  1  0.93742351  0.18359625  0.93859616  1
  Zn  Zn161  1  0.93485113  0.69219216  0.43701550  1
  Zn  Zn162  1  0.93810177  0.68771706  0.93719170  1
  Zn  Zn163  1  0.05971533  0.31115966  0.06392665  1
  Zn  Zn164  1  0.05280677  0.31318225  0.56812572  1
  Zn  Zn165  1  0.06385946  0.82314239  0.05782327  1
  Zn  Zn166  1  0.05965505  0.81471049  0.56048448  1
  Zn  Zn167  1  0.56062556  0.30817681  0.05974396  1
  Zn  Zn168  1  0.56336099  0.31106593  0.56179315  1
  Zn  Zn169  1  0.56514963  0.81541695  0.06920443  1
  Zn  Zn170  1  0.56654381  0.81490252  0.55862166  1
  O  O171  1  0.13612964  0.11442500  0.10842489  1
  O  O172  1  0.11893413  0.12418238  0.61746554  1
  O  O173  1  0.12914352  0.61636750  0.11086170  1
  O  O174  1  0.11627267  0.62431503  0.61797801  1
  O  O175  1  0.60654193  0.13702908  0.11958529  1
  O  O176  1  0.61955926  0.11790283  0.62147198  1
  O  O177  1  0.61518310  0.61388781  0.11460014  1
  O  O178  1  0.61891880  0.61107789  0.61959184  1
  O  O179  1  0.38669611  0.37966520  0.37759049  1
  O  O180  1  0.38399371  0.37617291  0.87650029  1
  O  O181  1  0.37579649  0.88215827  0.38787269  1
  O  O182  1  0.38773087  0.87525854  0.87950171  1
  O  O183  1  0.88480890  0.38981877  0.37028109  1
  O  O184  1  0.88094031  0.37921177  0.88426141  1
  O  O185  1  0.88553315  0.86842176  0.38795890  1
  O  O186  1  0.88789114  0.87653019  0.87594876  1
  O  O187  1  0.25656909  0.00626791  0.36647003  1
  O  O188  1  0.25305086  0.00424369  0.86541451  1
  O  O189  1  0.25645788  0.50546104  0.37428505  1
  O  O190  1  0.25124866  0.50849970  0.86346205  1
  O  O191  1  0.74737993  0.01987391  0.38590514  1
  O  O192  1  0.75014117  0.00892446  0.87601170  1
  O  O193  1  0.75642222  0.50871668  0.36936679  1
  O  O194  1  0.75744047  0.49907766  0.86785553  1
  O  O195  1  0.23964120  0.49023020  0.12318648  1
  O  O196  1  0.24447918  0.49668112  0.62884082  1
  O  O197  1  0.25773399  1.00025685  0.14039954  1
  O  O198  1  0.24631011  0.99500316  0.63290247  1
  O  O199  1  0.74059458  0.49507169  0.13351871  1
  O  O200  1  0.74298284  0.50076579  0.63187862  1
  O  O201  1  0.72281906  1.02916762  0.15160757  1
  O  O202  1  0.73737743  1.00707791  0.62272016  1
  O  O203  1  0.00269147  0.36885136  0.25549690  1
  O  O204  1  0.00588552  0.36614735  0.75961327  1
  O  O205  1  -0.00792056  0.87903330  0.26348756  1
  O  O206  1  0.00763643  0.87191735  0.75614780  1
  O  O207  1  0.49443590  0.36183902  0.25532671  1
  O  O208  1  0.51032954  0.37415493  0.76016077  1
  O  O209  1  0.48604913  0.85517885  0.24804086  1
  O  O210  1  0.50492851  0.86707436  0.75421726  1
  O  O211  1  0.49368073  0.13415222  0.24387962  1
  O  O212  1  0.50512904  0.12345800  0.73909685  1
  O  O213  1  0.49974775  0.62969632  0.23552570  1
  O  O214  1  0.50801022  0.63096118  0.73763930  1
  O  O215  1  0.99329855  0.13573683  0.26125985  1
  O  O216  1  0.99865981  0.13022317  0.74646064  1
  O  O217  1  0.98205331  0.62792887  0.24927851  1
  O  O218  1  1.00850551  0.63762681  0.74171144  1
  O  O219  1  0.38171416  0.26447314  -0.00098773  1
  O  O220  1  0.36725469  0.25112305  0.50951973  1
  O  O221  1  0.37980605  0.76368524  -0.00577798  1
  O  O222  1  0.37191153  0.75659963  0.50824191  1
  O  O223  1  0.87708657  0.25214520  0.01196126  1
  O  O224  1  0.86332754  0.25509927  0.50092214  1
  O  O225  1  0.86983494  0.75193419  0.00564222  1
  O  O226  1  0.87433653  0.75884874  0.51081493  1
  O  O227  1  0.12726595  0.24054544  0.49619003  1
  O  O228  1  0.12104011  0.23337842  1.00582951  1
  O  O229  1  0.12855973  0.74318874  0.49403277  1
  O  O230  1  0.12293924  0.74363182  0.98470877  1
  O  O231  1  0.62551393  0.24077779  0.49210089  1
  O  O232  1  0.62564979  0.24686318  0.98621060  1
  O  O233  1  0.62911988  0.73300667  0.50866349  1
  O  O234  1  0.62052402  0.73563728  1.00048774  1
  O  O235  1  0.49407248  0.24707841  0.13331445  1
  O  O236  1  0.49350490  0.24090882  0.62529134  1
  O  O237  1  0.50257265  0.74004311  0.13598664  1
  O  O238  1  0.49412749  0.74208043  0.63028057  1
  O  O239  1  0.99224054  0.25209514  0.13833275  1
  O  O240  1  1.00404715  0.23459064  0.63549120  1
  O  O241  1  1.02517296  0.74415118  0.13363240  1
  O  O242  1  0.99454869  0.74784875  0.63334728  1
  O  O243  1  0.00509517  0.25910418  0.36581901  1
  O  O244  1  -0.00388972  0.26041810  0.86971009  1
  O  O245  1  0.00621249  0.76026996  0.37384471  1
  O  O246  1  0.00615911  0.75679074  0.86829517  1
  O  O247  1  0.50541292  0.25664314  0.37035391  1
  O  O248  1  0.50758729  0.25464981  0.87163348  1
  O  O249  1  0.50047801  0.73503857  0.35484172  1
  O  O250  1  0.49723280  0.75280615  0.85818124  1
  O  O251  1  0.24248960  0.12959294  0.49597018  1
  O  O252  1  0.24254096  0.12032290  0.98869595  1
  O  O253  1  0.23594907  0.62916123  0.49826774  1
  O  O254  1  0.23787418  0.61905655  0.98489424  1
  O  O255  1  0.74512147  0.13658823  0.49427138  1
  O  O256  1  0.74844747  0.12123976  0.99230421  1
  O  O257  1  0.74374812  0.62299724  0.49157794  1
  O  O258  1  0.73618017  0.62563219  0.99829849  1
  O  O259  1  0.25913565  0.37985155  0.00420746  1
  O  O260  1  0.24633054  0.36825082  0.50644583  1
  O  O261  1  0.26609199  0.87625160  -0.00735738  1
  O  O262  1  0.25785339  0.87081279  0.50571248  1
  O  O263  1  0.76141560  0.36819234  0.00209754  1
  O  O264  1  0.74567431  0.36511226  0.49819089  1
  O  O265  1  0.75214243  0.85871963  -0.00839618  1
  O  O266  1  0.76494774  0.87486470  0.49912349  1
  O  O267  1  0.12957549  0.50192156  0.23896961  1
  O  O268  1  0.13167215  0.48977385  0.74414834  1
  O  O269  1  0.14333619  1.00583530  0.24960973  1
  O  O270  1  0.13029719  0.98790460  0.75051138  1
  O  O271  1  0.63453961  0.50642023  0.23995644  1
  O  O272  1  0.63235032  0.49097277  0.74260004  1
  O  O273  1  0.61050088  0.98218679  0.26285839  1
  O  O274  1  0.62324033  0.98654258  0.73711622  1
  O  O275  1  0.37251316  0.01038251  0.25514042  1
  O  O276  1  0.36288127  -0.00518590  0.74842838  1
  O  O277  1  0.37617480  0.49623384  0.26436907  1
  O  O278  1  0.36111537  0.49401917  0.74730700  1
  O  O279  1  0.88568868  0.01669581  0.26086307  1
  O  O280  1  0.88256730  0.01397633  0.75370774  1
  O  O281  1  0.86784176  0.50873482  0.25585646  1
  O  O282  1  0.86431724  0.49048024  0.75910046  1
  O  O283  1  0.12314249  0.36944029  0.36477706  1
  O  O284  1  0.11557799  0.37961951  0.86714724  1
  O  O285  1  0.11351852  0.86707216  0.38465036  1
  O  O286  1  0.11790213  0.86804174  0.86991483  1
  O  O287  1  0.61223806  0.36929441  0.37607559  1
  O  O288  1  0.62053782  0.36747669  0.86911981  1
  O  O289  1  0.61256342  0.86273914  0.40751647  1
  O  O290  1  0.61390625  0.87725387  0.85823414  1
  O  O291  1  0.38211418  0.12774242  0.13176283  1
  O  O292  1  0.38535809  0.13214931  0.61989609  1
  O  O293  1  0.37509906  0.62167476  0.12270714  1
  O  O294  1  0.38510354  0.63247629  0.61727280  1
  O  O295  1  0.87037883  0.13079596  0.13917469  1
  O  O296  1  0.88421362  0.12320021  0.63393264  1
  O  O297  1  0.87444141  0.61860240  0.13675500  1
  O  O298  1  0.88866822  0.63392874  0.62083997  1
  O  O299  1  0.25157659  0.26298570  0.12725358  1
  O  O300  1  0.25561430  0.25218875  0.62165250  1
  O  O301  1  0.25423527  0.74073070  0.13848091  1
  O  O302  1  0.25680741  0.75283169  0.62129128  1
  O  O303  1  0.75758436  0.24462222  0.12553593  1
  O  O304  1  0.74290591  0.25063142  0.60927954  1
  O  O305  1  0.74193825  0.74037594  0.10188645  1
  O  O306  1  0.76445439  0.74089121  0.62676310  1
  O  O307  1  0.24622728  0.24592832  0.37986557  1
  O  O308  1  0.24990423  0.23804302  0.86664778  1
  O  O309  1  0.24536268  0.74530462  0.38426024  1
  O  O310  1  0.23998166  0.74115943  0.86150336  1
  O  O311  1  0.74300128  0.24857950  0.38622113  1
  O  O312  1  0.74294371  0.23984585  0.87818802  1
  O  O313  1  0.74779420  0.73775478  0.37785314  1
  O  O314  1  0.75437021  0.73834783  0.89318291  1
  O  O315  1  0.01549506  0.11606785  -0.00793392  1
  O  O316  1  0.00457979  0.12242451  0.50586390  1
  O  O317  1  0.01229817  0.62161752  -0.00298433  1
  O  O318  1  0.00864888  0.63128962  0.50740458  1
  O  O319  1  0.49810681  0.11515231  0.00611274  1
  O  O320  1  0.50962134  0.12128226  0.50817379  1
  O  O321  1  0.50578609  0.62011960  0.00751130  1
  O  O322  1  0.50807500  0.61898105  0.50893534  1
  O  O323  1  0.49995271  0.38128663  0.49142802  1
  O  O324  1  0.49722300  0.37843096  0.98710596  1
  O  O325  1  0.48520351  0.88315119  0.51433505  1
  O  O326  1  0.49634718  0.87603009  0.99204698  1
  O  O327  1  1.02113914  0.37615094  0.47425464  1
  O  O328  1  0.98938715  0.37454159  0.99492291  1
  O  O329  1  0.99343358  0.88546429  0.49537786  1
  O  O330  1  0.99513161  0.88733000  0.99282340  1
  O  O331  1  0.49571089  0.49463438  0.37739967  1
  O  O332  1  0.49941557  0.49089993  0.87755447  1
  O  O333  1  0.49455071  1.00511289  0.38363054  1
  O  O334  1  0.49599154  0.99029538  0.87797550  1
  O  O335  1  0.99336136  0.49488773  0.37157508  1
  O  O336  1  0.99220915  0.48676093  0.87298940  1
  O  O337  1  1.00729482  0.99463178  0.38842212  1
  O  O338  1  1.00262102  0.99218427  0.88151214  1
  O  O339  1  0.00460681  -0.00138670  0.11102693  1
  O  O340  1  0.00527545  0.01046502  0.61540178  1
  O  O341  1  0.01163336  0.50247659  0.12330641  1
  O  O342  1  0.00620462  0.51549689  0.62935136  1
  O  O343  1  0.49495563  0.00897385  0.11691978  1
  O  O344  1  0.50593922  0.00715416  0.62004268  1
  O  O345  1  0.50435852  0.50443344  0.12020591  1
  O  O346  1  0.50492105  0.50522821  0.62178122  1
  O  O347  1  0.25122210  0.37874248  0.23728177  1
  O  O348  1  0.24177080  0.38051483  0.74473990  1
  O  O349  1  0.26194533  0.89018591  0.25190541  1
  O  O350  1  0.24309133  0.88097602  0.74608992  1
  O  O351  1  0.75411814  0.38721363  0.25349151  1
  O  O352  1  0.73917815  0.37972456  0.75518283  1
  O  O353  1  0.74420747  0.88634030  0.25447473  1
  O  O354  1  0.73702268  0.86689183  0.75717786  1
  O  O355  1  0.25934056  0.12018829  0.25425387  1
  O  O356  1  0.24070727  0.11573402  0.76243873  1
  O  O357  1  0.26085702  0.62340780  0.25281666  1
  O  O358  1  0.24233708  0.61465392  0.75542277  1
  O  O359  1  0.76223968  0.13566379  0.27329375  1
  O  O360  1  0.76057258  0.13076106  0.75810537  1
  O  O361  1  0.75783470  0.61865474  0.25519525  1
  O  O362  1  0.74197318  0.60934244  0.75453921  1
  O  O363  1  0.37069102  0.12087484  0.36925249  1
  O  O364  1  0.35792680  0.12294103  0.87870722  1
  O  O365  1  0.36440677  0.61475772  0.38625718  1
  O  O366  1  0.36272272  0.62426316  0.87712425  1
  O  O367  1  0.86509127  0.13181444  0.37659091  1
  O  O368  1  0.86621642  0.12589834  0.86657934  1
  O  O369  1  0.86917350  0.61784698  0.36831679  1
  O  O370  1  0.87716436  0.60721943  0.88001787  1
  O  O371  1  0.13097682  0.38235453  0.12257923  1
  O  O372  1  0.12919866  0.38081167  0.63262312  1
  O  O373  1  0.14034562  0.87495961  0.12141179  1
  O  O374  1  0.13056880  0.87499822  0.63305126  1
  O  O375  1  0.62467529  0.38487253  0.11982822  1
  O  O376  1  0.61706121  0.38504807  0.63389085  1
  O  O377  1  0.63286596  0.88388452  0.12986122  1
  O  O378  1  0.62506756  0.88755973  0.63149075  1
  O  O379  1  0.11806817  0.24828805  0.25373552  1
  O  O380  1  0.11461019  0.26229768  0.74660227  1
  O  O381  1  0.12626526  0.74525190  0.27022348  1
  O  O382  1  0.11625364  0.76150364  0.75577667  1
  O  O383  1  0.61602756  0.24256521  0.26488236  1
  O  O384  1  0.62409260  0.25588019  0.75921434  1
  O  O385  1  0.61200269  0.74573950  0.25138604  1
  O  O386  1  0.61640699  0.76350955  0.73701226  1
  O  O387  1  0.38237207  0.23820840  0.25132967  1
  O  O388  1  0.37882558  0.25416951  0.73450877  1
  O  O389  1  0.37794632  0.74040273  0.24866916  1
  O  O390  1  0.38277208  0.75381178  0.73622773  1
  O  O391  1  0.88301749  0.24463841  0.24613931  1
  O  O392  1  0.88779996  0.24287949  0.75222927  1
  O  O393  1  0.87133883  0.73701300  0.25218343  1
  O  O394  1  0.88751322  0.75637404  0.74534889  1
  O  O395  1  0.38204229  0.49589325  0.49017630  1
  O  O396  1  0.38435144  0.48829538  0.99304233  1
  O  O397  1  0.37809915  0.99338198  0.49695729  1
  O  O398  1  0.38679418  0.98848980  0.99562080  1
  O  O399  1  0.88637902  0.50723671  0.49181939  1
  O  O400  1  0.87503746  0.48955499  0.99542719  1
  O  O401  1  0.88498884  0.99420641  0.50594443  1
  O  O402  1  0.89403024  1.01477107  0.99100182  1
  O  O403  1  0.11479903  0.00599766  -0.00086418  1
  O  O404  1  0.12080632  0.01344971  0.50058234  1
  O  O405  1  0.12166206  0.50647113  0.00392654  1
  O  O406  1  0.11106462  0.50609221  0.50945694  1
  O  O407  1  0.60873811  -0.00321551  -0.00748079  1
  O  O408  1  0.62237557  0.01154749  0.51201510  1
  O  O409  1  0.61980627  0.50475938  0.00703187  1
  O  O410  1  0.62109215  0.50626657  0.50603196  1
  O  O411  1  0.36648063  0.37527834  0.11347008  1
  O  O412  1  0.36693629  0.36697869  0.62073635  1
  O  O413  1  0.37062582  0.87274889  0.10733641  1
  O  O414  1  0.36762184  0.86647865  0.61974517  1
  O  O415  1  0.87126657  0.36433766  0.11996104  1
  O  O416  1  0.94392094  0.38670818  0.59490528  1
  O  O417  1  0.84869397  0.92273048  0.11504753  1
  O  O418  1  0.88247460  0.86627271  0.61709054  1
  O  O419  1  0.13161993  0.13231150  0.38264135  1
  O  O420  1  0.14013886  0.12234411  0.88706431  1
  O  O421  1  0.12880230  0.62850049  0.38363961  1
  O  O422  1  0.13111124  0.63155825  0.87619103  1
  O  O423  1  0.63508846  0.13415054  0.38471310  1
  O  O424  1  0.63296109  0.12920837  0.87376866  1
  O  O425  1  0.63293471  0.62425083  0.38415256  1
  O  O426  1  0.62208794  0.61777541  0.89136016  1
