# generated using pymatgen
data_V85Zn86O256
_symmetry_space_group_name_H-M   'P 1'
_cell_length_a   16.92852851
_cell_length_b   16.92876985
_cell_length_c   16.93868432
_cell_angle_alpha   90.02464297
_cell_angle_beta   89.94971898
_cell_angle_gamma   90.05453756
_symmetry_Int_Tables_number   1
_chemical_formula_structural   V85Zn86O256
_chemical_formula_sum   'V85 Zn86 O256'
_cell_volume   4854.26945757
_cell_formula_units_Z   1
loop_
 _symmetry_equiv_pos_site_id
 _symmetry_equiv_pos_as_xyz
  1  'x, y, z'
loop_
 _atom_site_type_symbol
 _atom_site_label
 _atom_site_symmetry_multiplicity
 _atom_site_fract_x
 _atom_site_fract_y
 _atom_site_fract_z
 _atom_site_occupancy
  V  V0  1  0.12572408  0.74843477  0.37598696  1
  V  V1  1  0.75296052  0.75434260  -0.00113274  1
  V  V2  1  0.63367064  0.61751545  0.49643600  1
  V  V3  1  0.26067517  0.00044641  0.24785813  1
  V  V4  1  0.25665735  0.12628919  0.37036154  1
  V  V5  1  0.24829085  0.62479603  0.88026850  1
  V  V6  1  0.62496884  0.00507541  0.12237400  1
  V  V7  1  0.50120856  0.24323112  0.75058424  1
  V  V8  1  0.24694108  0.00059176  0.74825596  1
  V  V9  1  -0.00109841  0.37556674  0.37459139  1
  V  V10  1  0.25604579  0.25188254  -0.00351807  1
  V  V11  1  0.87837286  0.75661707  0.12192005  1
  V  V12  1  0.87222333  0.12612318  0.24966414  1
  V  V13  1  0.36233952  0.50516628  0.36946419  1
  V  V14  1  0.87253054  0.62674135  0.25360318  1
  V  V15  1  0.87029678  0.12060291  0.75020623  1
  V  V16  1  0.38092641  0.49592919  0.88594025  1
  V  V17  1  0.74636337  0.25132496  -0.00658325  1
  V  V18  1  0.62488237  0.49677919  0.62971380  1
  V  V19  1  -0.00789969  0.12795992  0.62405970  1
  V  V20  1  -0.00410660  -0.00211994  0.49906613  1
  V  V21  1  0.13108299  0.37114257  0.74173784  1
  V  V22  1  0.61498996  0.78261279  0.40922097  1
  V  V23  1  0.63493380  0.88061204  0.75539754  1
  V  V24  1  0.49903034  0.75844696  0.75463918  1
  V  V25  1  0.62205671  0.13025077  -0.00839067  1
  V  V26  1  0.13028427  0.37270498  0.24765362  1
  V  V27  1  0.76225908  0.37277324  0.62963787  1
  V  V28  1  0.62204050  0.38107844  0.24823900  1
  V  V29  1  0.37273619  0.25124906  0.12446676  1
  V  V30  1  0.12719770  0.62523642  0.49729178  1
  V  V31  1  0.25511292  0.75420617  0.49376574  1
  V  V32  1  0.12000087  0.74469447  0.88181554  1
  V  V33  1  0.62204774  0.25101359  0.37546207  1
  V  V34  1  0.75041291  0.62677572  0.87162964  1
  V  V35  1  0.18277419  0.54927930  0.18377484  1
  V  V36  1  0.60843093  0.12547363  0.50549001  1
  V  V37  1  0.62371118  0.36714543  0.75508749  1
  V  V38  1  0.12976561  0.49844811  0.62182903  1
  V  V39  1  0.25678676  0.49341480  0.74477612  1
  V  V40  1  0.37829066  0.62417248  0.75137982  1
  V  V41  1  0.01647107  0.50244161  0.00355036  1
  V  V42  1  0.62011722  0.61305685  0.00447166  1
  V  V43  1  0.75063745  0.24835969  0.50638499  1
  V  V44  1  0.12544555  0.24905642  0.87186374  1
  V  V45  1  0.00021241  0.62350898  0.12233837  1
  V  V46  1  0.87828538  0.50664328  0.87724528  1
  V  V47  1  0.37778078  0.75839508  0.12420617  1
  V  V48  1  0.11924808  0.86202679  0.74607347  1
  V  V49  1  0.74670688  0.00118297  0.24875653  1
  V  V50  1  0.49972045  -0.01036966  -0.00518374  1
  V  V51  1  0.87374085  0.25100393  0.12382039  1
  V  V52  1  0.61615263  0.00599693  0.62841570  1
  V  V53  1  0.74568758  0.12633923  0.37749765  1
  V  V54  1  0.86993927  -0.00300632  0.37611880  1
  V  V55  1  0.49544011  0.49616451  0.49991211  1
  V  V56  1  0.37988674  0.24886545  0.62288655  1
  V  V57  1  0.61838131  0.86915108  0.24237025  1
  V  V58  1  0.86802677  -0.00465409  0.87879604  1
  V  V59  1  0.38359697  -0.01156459  0.39267040  1
  V  V60  1  0.74922386  0.50024103  0.75451033  1
  V  V61  1  0.12210006  -0.00306909  0.62385526  1
  V  V62  1  0.61859420  0.75499301  0.87905049  1
  V  V63  1  0.87689654  0.37176029  0.50172535  1
  V  V64  1  -0.00079458  0.25062879  0.24930327  1
  V  V65  1  0.74556364  0.38561830  0.12492402  1
  V  V66  1  0.24629832  0.25280949  0.50684685  1
  V  V67  1  0.87537614  0.73820271  0.62882256  1
  V  V68  1  0.50254090  0.62336528  0.62853704  1
  V  V69  1  0.37565555  0.75597584  0.61934736  1
  V  V70  1  0.49206172  0.12548538  0.12455342  1
  V  V71  1  0.87850998  0.37748086  0.00144011  1
  V  V72  1  -0.00688773  0.25458771  0.74600835  1
  V  V73  1  0.50008591  0.61132875  0.12868184  1
  V  V74  1  0.13114248  -0.00612382  0.12267645  1
  V  V75  1  0.00102688  0.12413662  0.12461383  1
  V  V76  1  0.49260729  0.24780843  0.25086925  1
  V  V77  1  0.75252870  0.87828383  0.61625620  1
  V  V78  1  0.12637656  0.88038125  0.25276249  1
  V  V79  1  -0.00409847  0.87109633  0.87570293  1
  V  V80  1  0.24922843  0.37556052  0.12091750  1
  V  V81  1  0.75525315  0.87755437  0.11996253  1
  V  V82  1  0.37657399  -0.00748476  0.87133116  1
  V  V83  1  0.49880695  0.37081114  0.88617991  1
  V  V84  1  0.12458176  0.12327503  -0.00283078  1
  Zn  Zn85  1  0.00480200  0.37748429  0.87527466  1
  Zn  Zn86  1  0.49799933  0.74856215  0.25525745  1
  Zn  Zn87  1  0.00592113  0.63595995  0.63887106  1
  Zn  Zn88  1  -0.00257145  0.75330622  0.25237237  1
  Zn  Zn89  1  0.25136274  0.12354098  0.87110330  1
  Zn  Zn90  1  0.37958654  0.12039297  0.74462550  1
  Zn  Zn91  1  0.74825204  0.63271549  0.37607699  1
  Zn  Zn92  1  0.74687566  0.12615115  0.86959800  1
  Zn  Zn93  1  0.24808687  0.75432090  0.00180081  1
  Zn  Zn94  1  0.87034765  0.50369996  0.37738597  1
  Zn  Zn95  1  0.86762653  0.86486932  0.49386613  1
  Zn  Zn96  1  0.36605002  0.37972438  0.50424191  1
  Zn  Zn97  1  0.49533037  0.37532835  0.37581474  1
  Zn  Zn98  1  0.12398929  0.12308035  0.49679879  1
  Zn  Zn99  1  0.12580436  0.24662149  0.37656946  1
  Zn  Zn100  1  0.25640140  0.87892692  0.61892974  1
  Zn  Zn101  1  -0.00272780  -0.00585062  0.00038539  1
  Zn  Zn102  1  -0.00399484  0.87410951  0.37382942  1
  Zn  Zn103  1  0.36588804  0.62549454  0.25236549  1
  Zn  Zn104  1  0.36702513  0.87456357  -0.00310163  1
  Zn  Zn105  1  -0.00130714  0.50417866  0.49983833  1
  Zn  Zn106  1  0.74402446  0.50556384  0.25204632  1
  Zn  Zn107  1  0.18796717  0.18558948  0.18784810  1
  Zn  Zn108  1  0.18524035  0.18348558  0.68217520  1
  Zn  Zn109  1  0.18960631  0.71066571  0.18620503  1
  Zn  Zn110  1  0.19403728  0.68312001  0.68589186  1
  Zn  Zn111  1  0.68347914  0.19271465  0.18357893  1
  Zn  Zn112  1  0.68683133  0.18784818  0.68719462  1
  Zn  Zn113  1  0.68895552  0.68582413  0.18247452  1
  Zn  Zn114  1  0.69096659  0.69210491  0.68664422  1
  Zn  Zn115  1  0.31367116  0.31709675  0.31531197  1
  Zn  Zn116  1  0.31731337  0.31160892  0.81140712  1
  Zn  Zn117  1  0.31186214  0.81484134  0.31013826  1
  Zn  Zn118  1  0.30736231  0.81418709  0.81047212  1
  Zn  Zn119  1  0.80948589  0.31452671  0.31388272  1
  Zn  Zn120  1  0.81695364  0.31498165  0.81507786  1
  Zn  Zn121  1  0.79797954  0.80942421  0.31408948  1
  Zn  Zn122  1  0.81266841  0.81212884  0.80951136  1
  Zn  Zn123  1  0.18656767  0.43539938  0.43429869  1
  Zn  Zn124  1  0.19329060  0.43446730  0.93147057  1
  Zn  Zn125  1  0.19043390  0.93761452  0.43629139  1
  Zn  Zn126  1  0.18816184  0.93259431  0.93414695  1
  Zn  Zn127  1  0.68932795  0.43885939  0.43458624  1
  Zn  Zn128  1  0.68531293  0.43463700  0.93645498  1
  Zn  Zn129  1  0.67374207  0.94162730  0.44133187  1
  Zn  Zn130  1  0.68781118  0.93848795  0.93777667  1
  Zn  Zn131  1  0.31215498  0.06111980  0.05856870  1
  Zn  Zn132  1  0.31380883  0.06777213  0.56082255  1
  Zn  Zn133  1  0.32076522  0.56849245  0.05851561  1
  Zn  Zn134  1  0.31137347  0.56918889  0.56099079  1
  Zn  Zn135  1  0.81267144  0.06468047  0.05752509  1
  Zn  Zn136  1  0.80573666  0.05818199  0.56580707  1
  Zn  Zn137  1  0.81436027  0.56705752  0.06082627  1
  Zn  Zn138  1  0.81389610  0.55690222  0.56427414  1
  Zn  Zn139  1  0.43206478  0.43564649  0.18934912  1
  Zn  Zn140  1  0.43652857  0.42976287  0.68773374  1
  Zn  Zn141  1  0.43937843  0.93961086  0.18765355  1
  Zn  Zn142  1  0.43974649  0.93570350  0.68865583  1
  Zn  Zn143  1  0.93835647  0.44189287  0.18767700  1
  Zn  Zn144  1  0.95388661  0.46830400  0.70277745  1
  Zn  Zn145  1  0.94036811  0.93909971  0.18846675  1
  Zn  Zn146  1  0.93466812  0.93611679  0.69160231  1
  Zn  Zn147  1  0.06398675  0.06329560  0.31330010  1
  Zn  Zn148  1  0.05750171  0.05904226  0.81120438  1
  Zn  Zn149  1  0.05404838  0.56697310  0.31755147  1
  Zn  Zn150  1  0.06452763  0.56381159  0.80993685  1
  Zn  Zn151  1  0.55740994  0.06271477  0.31206714  1
  Zn  Zn152  1  0.56273188  0.05963938  0.81350960  1
  Zn  Zn153  1  0.55611073  0.55956629  0.31429591  1
  Zn  Zn154  1  0.56239325  0.56117426  0.81681150  1
  Zn  Zn155  1  0.43103891  0.18644924  0.43509898  1
  Zn  Zn156  1  0.43521228  0.18221708  0.93200543  1
  Zn  Zn157  1  0.44224734  0.68274386  0.43755729  1
  Zn  Zn158  1  0.43834838  0.68508109  0.94063221  1
  Zn  Zn159  1  0.93482211  0.18817077  0.43760527  1
  Zn  Zn160  1  0.93857052  0.18717934  0.93394161  1
  Zn  Zn161  1  0.93899818  0.69075296  0.44561397  1
  Zn  Zn162  1  0.93953109  0.68829853  0.93851232  1
  Zn  Zn163  1  0.06620587  0.31282455  0.06218587  1
  Zn  Zn164  1  0.06426065  0.31242355  0.56409237  1
  Zn  Zn165  1  0.06261940  0.81405227  0.05888490  1
  Zn  Zn166  1  0.05509702  0.81158511  0.56064187  1
  Zn  Zn167  1  0.56379354  0.31218864  0.06502917  1
  Zn  Zn168  1  0.56282938  0.31322047  0.56661224  1
  Zn  Zn169  1  0.56091057  0.80838835  0.06567592  1
  Zn  Zn170  1  0.56774995  0.81163597  0.57462044  1
  O  O171  1  0.12018883  0.11773517  0.11787310  1
  O  O172  1  0.11079051  0.11160649  0.62386209  1
  O  O173  1  0.12254720  0.61884827  0.13518873  1
  O  O174  1  0.12483242  0.61515982  0.62073446  1
  O  O175  1  0.61640979  0.12239466  0.11452828  1
  O  O176  1  0.62715282  0.11408039  0.62245460  1
  O  O177  1  0.61541762  0.62769823  0.11332052  1
  O  O178  1  0.62273737  0.61592579  0.62185866  1
  O  O179  1  0.37666730  0.38836110  0.38047267  1
  O  O180  1  0.38887608  0.38219353  0.87037898  1
  O  O181  1  0.37128787  0.88956520  0.37303948  1
  O  O182  1  0.37304311  0.88740510  0.87119290  1
  O  O183  1  0.88182160  0.37523260  0.38219454  1
  O  O184  1  0.87843393  0.38084337  0.89032093  1
  O  O185  1  0.86963645  0.88313531  0.37343680  1
  O  O186  1  0.87915872  0.88661764  0.86867506  1
  O  O187  1  0.25651804  0.00880400  0.36920559  1
  O  O188  1  0.25397045  0.00046512  0.86337019  1
  O  O189  1  0.26342670  0.50086577  0.37956856  1
  O  O190  1  0.25928457  0.50494621  0.86603053  1
  O  O191  1  0.75244879  0.00661161  0.37119431  1
  O  O192  1  0.76342980  0.00329885  0.87841544  1
  O  O193  1  0.75380429  0.50566562  0.37012476  1
  O  O194  1  0.75489261  0.50823040  0.87575876  1
  O  O195  1  0.24668638  0.49671431  0.11925118  1
  O  O196  1  0.24473995  0.50340924  0.63293363  1
  O  O197  1  0.24088565  1.00997465  0.13408315  1
  O  O198  1  0.23929459  0.99920130  0.62704321  1
  O  O199  1  0.75599382  0.48875968  0.12638997  1
  O  O200  1  0.74616825  0.49119147  0.63538489  1
  O  O201  1  0.74624936  0.99725747  0.12637691  1
  O  O202  1  0.73898611  0.98751879  0.62798343  1
  O  O203  1  0.00704048  0.37213088  0.25417729  1
  O  O204  1  0.00997984  0.36957841  0.75021916  1
  O  O205  1  0.01167148  0.87631353  0.25317892  1
  O  O206  1  0.00961391  0.88054424  0.76046487  1
  O  O207  1  0.50615306  0.36616592  0.24863824  1
  O  O208  1  0.50846560  0.36514991  0.75563904  1
  O  O209  1  0.51510264  0.87409458  0.24477248  1
  O  O210  1  0.51138801  0.86228626  0.74741483  1
  O  O211  1  0.50773701  0.13563641  0.23632373  1
  O  O212  1  0.50258319  0.13948152  0.75621746  1
  O  O213  1  0.50535796  0.62768674  0.23674925  1
  O  O214  1  0.49873034  0.63410965  0.74734696  1
  O  O215  1  0.99351637  0.12997553  0.24481950  1
  O  O216  1  0.99208452  0.13242951  0.74280490  1
  O  O217  1  0.99268245  0.62948496  0.23955469  1
  O  O218  1  0.98694807  0.57766836  0.73347881  1
  O  O219  1  0.36126070  0.24283698  0.00259852  1
  O  O220  1  0.36895296  0.25154726  0.50901505  1
  O  O221  1  0.37917431  0.75246665  0.01079339  1
  O  O222  1  0.36883365  0.74218553  0.50590555  1
  O  O223  1  0.87194971  0.25786601  0.00494427  1
  O  O224  1  0.86528357  0.26139388  0.49677486  1
  O  O225  1  0.86488407  0.74499874  0.00882889  1
  O  O226  1  0.87336963  0.75321275  0.51628531  1
  O  O227  1  0.13167969  0.24414188  0.49897335  1
  O  O228  1  0.13274567  0.24327846  0.99308365  1
  O  O229  1  0.12860287  0.74568228  0.49426239  1
  O  O230  1  0.12519697  0.74831831  0.98545107  1
  O  O231  1  0.63122194  0.24614316  0.49674174  1
  O  O232  1  0.63405957  0.24226097  1.00479880  1
  O  O233  1  0.61988961  0.72423013  0.50595786  1
  O  O234  1  0.63043479  0.74442270  0.99410073  1
  O  O235  1  0.49223410  0.24537070  0.12941312  1
  O  O236  1  0.48997304  0.25299548  0.63384401  1
  O  O237  1  0.49045986  0.74050927  0.12765319  1
  O  O238  1  0.49661089  0.74453057  0.63359089  1
  O  O239  1  0.99445508  0.24473019  0.12931848  1
  O  O240  1  1.00362710  0.23938134  0.63252931  1
  O  O241  1  0.99447564  0.74460338  0.12463945  1
  O  O242  1  0.98367432  0.75030961  0.62682678  1
  O  O243  1  -0.00056859  0.25856455  0.36772291  1
  O  O244  1  0.00860382  0.25303263  0.86619006  1
  O  O245  1  0.01136229  0.75430447  0.37532195  1
  O  O246  1  0.00594661  0.75449874  0.87279780  1
  O  O247  1  0.50219992  0.25096613  0.36696134  1
  O  O248  1  0.49141902  0.26228895  0.86675735  1
  O  O249  1  0.52429061  0.74388467  0.37347924  1
  O  O250  1  0.51054087  0.74464586  0.86956544  1
  O  O251  1  0.24752055  0.13346264  0.48859701  1
  O  O252  1  0.23802161  0.13139757  0.99787429  1
  O  O253  1  0.23684069  0.63975683  0.50515391  1
  O  O254  1  0.25468397  0.62798545  0.98341437  1
  O  O255  1  0.74562987  0.13457223  0.49771165  1
  O  O256  1  0.74107227  0.13521285  1.00020735  1
  O  O257  1  0.73634787  0.61565625  0.50116216  1
  O  O258  1  0.73949978  0.63438807  0.99585852  1
  O  O259  1  0.24355605  0.36382027  0.00765976  1
  O  O260  1  0.24823877  0.35691913  0.49163783  1
  O  O261  1  0.25231418  0.86878610  -0.00301642  1
  O  O262  1  0.24352476  0.85954424  0.50342062  1
  O  O263  1  0.75557353  0.37091711  0.00618292  1
  O  O264  1  0.75534830  0.36907516  0.50817600  1
  O  O265  1  0.74593485  0.86306862  0.00481068  1
  O  O266  1  0.74793623  0.88074862  0.51276149  1
  O  O267  1  0.12398458  0.49475463  0.25004943  1
  O  O268  1  0.13741421  0.48975897  0.74263163  1
  O  O269  1  0.13164104  0.99735284  0.24255417  1
  O  O270  1  0.12838476  0.99239623  0.74219107  1
  O  O271  1  0.62278062  0.48506624  0.25404073  1
  O  O272  1  0.63074612  0.48998533  0.74916120  1
  O  O273  1  0.62847006  0.99658142  0.24051764  1
  O  O274  1  0.62278042  0.99390927  0.74194266  1
  O  O275  1  0.36260982  -0.00221407  0.24917480  1
  O  O276  1  0.36685416  -0.00099106  0.75130071  1
  O  O277  1  0.37628520  0.50343740  0.26454361  1
  O  O278  1  0.37148062  0.50356184  0.75326425  1
  O  O279  1  0.86833845  0.00540970  0.25862864  1
  O  O280  1  0.87962587  0.01023520  0.76370107  1
  O  O281  1  0.87498101  0.51656244  0.24994309  1
  O  O282  1  0.86180290  0.48338970  0.77229328  1
  O  O283  1  0.11652429  0.37135486  0.36585570  1
  O  O284  1  0.12601251  0.36743527  0.86119127  1
  O  O285  1  0.12179975  0.87178215  0.36790571  1
  O  O286  1  0.11731121  0.86492013  0.86427318  1
  O  O287  1  0.62200587  0.36636248  0.36848177  1
  O  O288  1  0.61333343  0.37804663  0.86651348  1
  O  O289  1  0.63835746  0.87796736  0.34631269  1
  O  O290  1  0.62903915  0.86613336  0.86982027  1
  O  O291  1  0.38590596  0.13091481  0.11922902  1
  O  O292  1  0.37365563  0.14035919  0.62742069  1
  O  O293  1  0.38868186  0.63016808  0.12764229  1
  O  O294  1  0.38279791  0.63459541  0.63209003  1
  O  O295  1  0.88021709  0.12970628  0.12991530  1
  O  O296  1  0.88452508  0.11593678  0.63231965  1
  O  O297  1  0.88202033  0.63584122  0.13029673  1
  O  O298  1  0.87089792  0.63514414  0.62410427  1
  O  O299  1  0.25318309  0.25495877  0.11762252  1
  O  O300  1  0.25761946  0.24358213  0.61531640  1
  O  O301  1  0.27197928  0.74000697  0.11843708  1
  O  O302  1  0.26100508  0.75126327  0.61817561  1
  O  O303  1  0.75698499  0.25897116  0.11570708  1
  O  O304  1  0.74591034  0.25819048  0.61408062  1
  O  O305  1  0.75828139  0.75549266  0.11634854  1
  O  O306  1  0.75414821  0.76720208  0.62648545  1
  O  O307  1  0.25177516  0.23838646  0.37805231  1
  O  O308  1  0.24520232  0.24751841  0.87978599  1
  O  O309  1  0.23777242  0.75371631  0.38001432  1
  O  O310  1  0.24109160  0.74018971  0.87049080  1
  O  O311  1  0.74288230  0.24629099  0.38505050  1
  O  O312  1  0.75610843  0.25026542  0.88973832  1
  O  O313  1  0.71612198  0.75225813  0.37924401  1
  O  O314  1  0.74373471  0.74448011  0.88081032  1
  O  O315  1  0.01196267  0.12725708  0.00512478  1
  O  O316  1  -0.00330939  0.11586699  0.50617070  1
  O  O317  1  -0.00132569  0.61840970  0.01367388  1
  O  O318  1  0.01349275  0.62274580  0.50880469  1
  O  O319  1  0.50612707  0.12095164  0.00492100  1
  O  O320  1  0.51011771  0.13459406  0.50005918  1
  O  O321  1  0.51264475  0.62561170  0.01001365  1
  O  O322  1  0.50804510  0.61175953  0.50912032  1
  O  O323  1  0.49930867  0.38737114  0.50294205  1
  O  O324  1  0.50526376  0.36939606  0.98528340  1
  O  O325  1  0.58157587  0.86005812  0.47303213  1
  O  O326  1  0.50006300  0.88773122  1.00472313  1
  O  O327  1  0.99256162  0.36890851  0.49066415  1
  O  O328  1  0.99383979  0.38242388  1.00192746  1
  O  O329  1  0.99261749  0.88855096  0.49666539  1
  O  O330  1  1.00434100  0.87622417  0.98195974  1
  O  O331  1  0.49142704  0.49667130  0.38623652  1
  O  O332  1  0.49266089  0.48561751  0.86927356  1
  O  O333  1  0.48220481  1.00578475  0.37380673  1
  O  O334  1  0.49150970  1.00281018  0.88366455  1
  O  O335  1  0.99586863  0.48723678  0.37870186  1
  O  O336  1  0.99250788  0.49980578  0.88571252  1
  O  O337  1  0.98825954  1.00183123  0.38140791  1
  O  O338  1  0.99026669  0.99170685  0.87734569  1
  O  O339  1  0.00710632  0.00822829  0.12133592  1
  O  O340  1  0.00216305  0.00408421  0.61747878  1
  O  O341  1  -0.00225610  0.51015208  0.11627704  1
  O  O342  1  0.02416918  0.48109693  0.61227106  1
  O  O343  1  0.50345533  0.00950635  0.11761519  1
  O  O344  1  0.51689254  -0.00871721  0.62479264  1
  O  O345  1  0.49437896  0.51200392  0.12647561  1
  O  O346  1  0.50460125  0.50288944  0.62309211  1
  O  O347  1  0.23699235  0.37067807  0.24393778  1
  O  O348  1  0.24705032  0.38538488  0.75489903  1
  O  O349  1  0.23656337  0.88580390  0.25135680  1
  O  O350  1  0.23876921  0.88475852  0.74301280  1
  O  O351  1  0.74192717  0.37434230  0.24083371  1
  O  O352  1  0.74332738  0.37427357  0.74623220  1
  O  O353  1  0.74400985  0.88246635  0.23649142  1
  O  O354  1  0.73803078  0.87426258  0.74445381  1
  O  O355  1  0.24626248  0.11817907  0.26242104  1
  O  O356  1  0.24630107  0.11006773  0.74822614  1
  O  O357  1  0.24142393  0.61265272  0.23716055  1
  O  O358  1  0.25917365  0.61410572  0.75686682  1
  O  O359  1  0.75132213  0.12153950  0.25387482  1
  O  O360  1  0.76625261  0.13685064  0.75139540  1
  O  O361  1  0.75607990  0.62592586  0.25153475  1
  O  O362  1  0.74094881  0.62039193  0.76549232  1
  O  O363  1  0.36119185  0.11474926  0.37728272  1
  O  O364  1  0.37032804  0.11085225  0.86732633  1
  O  O365  1  0.38001872  0.61221692  0.37140522  1
  O  O366  1  0.37255531  0.61747763  0.86859441  1
  O  O367  1  0.86624151  0.11919188  0.36868219  1
  O  O368  1  0.87519841  0.11538036  0.86812333  1
  O  O369  1  0.87333878  0.62971531  0.36810802  1
  O  O370  1  0.86370582  0.61756290  0.88350889  1
  O  O371  1  0.13618215  0.37302037  0.13282267  1
  O  O372  1  0.13273512  0.37554933  0.63572760  1
  O  O373  1  0.11883922  0.88822994  0.13054029  1
  O  O374  1  0.11946534  0.88410853  0.62974970  1
  O  O375  1  0.63468987  0.37031483  0.13371736  1
  O  O376  1  0.63394528  0.38002015  0.63505216  1
  O  O377  1  0.63114693  0.88459278  0.12801665  1
  O  O378  1  0.63453888  0.88273850  0.63550399  1
  O  O379  1  0.11710365  0.25722322  0.25034291  1
  O  O380  1  0.11927342  0.25358394  0.75157208  1
  O  O381  1  0.12243065  0.76180530  0.25796196  1
  O  O382  1  0.13002170  0.75902842  0.75022115  1
  O  O383  1  0.61586327  0.25761806  0.25514922  1
  O  O384  1  0.61845149  0.25920532  0.74675831  1
  O  O385  1  0.62344025  0.76589486  0.23420403  1
  O  O386  1  0.61971268  0.75632893  0.75970030  1
  O  O387  1  0.38597817  0.25409870  0.24541083  1
  O  O388  1  0.38174518  0.24713123  0.74034155  1
  O  O389  1  0.37673394  0.74560654  0.24191838  1
  O  O390  1  0.38295064  0.74597311  0.74626331  1
  O  O391  1  0.87816821  0.24612084  0.24405543  1
  O  O392  1  0.88905214  0.24546784  0.75608219  1
  O  O393  1  0.87271483  0.74277445  0.24339038  1
  O  O394  1  0.86732908  0.75491601  0.72957542  1
  O  O395  1  0.37993611  0.50136161  0.49579378  1
  O  O396  1  0.37382208  0.49946818  0.98516977  1
  O  O397  1  0.37153740  0.99615536  0.49274151  1
  O  O398  1  0.38261859  0.99857126  0.99115717  1
  O  O399  1  0.87783469  0.48539814  0.50002359  1
  O  O400  1  0.87971145  0.49449319  0.99394133  1
  O  O401  1  0.87663381  1.00079311  0.48785821  1
  O  O402  1  0.87892173  1.00573638  0.98417768  1
  O  O403  1  0.12472551  0.00734927  0.00575153  1
  O  O404  1  0.11477935  -0.00007258  0.50623253  1
  O  O405  1  0.11497584  0.49424448  -0.00766201  1
  O  O406  1  0.13167508  0.50804457  0.50469886  1
  O  O407  1  0.61829642  0.00733785  0.00414854  1
  O  O408  1  0.62926997  0.01550820  0.51546675  1
  O  O409  1  0.63010182  0.51497148  -0.00180070  1
  O  O410  1  0.61836542  0.50246742  0.50959871  1
  O  O411  1  0.35824447  0.36923677  0.13012579  1
  O  O412  1  0.37316573  0.35766614  0.62302797  1
  O  O413  1  0.38175596  0.86126246  0.12488184  1
  O  O414  1  0.37742539  0.86011333  0.62779627  1
  O  O415  1  0.87017226  0.37266105  0.11667748  1
  O  O416  1  0.86494355  0.37899923  0.62122513  1
  O  O417  1  0.87382920  0.86423207  0.12844229  1
  O  O418  1  0.86075412  0.87984789  0.62364524  1
  O  O419  1  0.13738577  0.12509960  0.37692314  1
  O  O420  1  0.12442196  0.12927557  0.88121360  1
  O  O421  1  0.12033746  0.63473855  0.38330610  1
  O  O422  1  0.13425262  0.63338455  0.86441160  1
  O  O423  1  0.62786110  0.13020586  0.38375395  1
  O  O424  1  0.62819238  0.12136948  0.88725208  1
  O  O425  1  0.62379194  0.61278315  0.39321135  1
  O  O426  1  0.62924475  0.63166821  0.88697123  1
