# generated using pymatgen
data_V85Zn86O256
_symmetry_space_group_name_H-M   'P 1'
_cell_length_a   16.95290419
_cell_length_b   16.95166373
_cell_length_c   16.94293882
_cell_angle_alpha   90.08299910
_cell_angle_beta   89.96021819
_cell_angle_gamma   90.02390333
_symmetry_Int_Tables_number   1
_chemical_formula_structural   V85Zn86O256
_chemical_formula_sum   'V85 Zn86 O256'
_cell_volume   4869.05388649
_cell_formula_units_Z   1
loop_
 _symmetry_equiv_pos_site_id
 _symmetry_equiv_pos_as_xyz
  1  'x, y, z'
loop_
 _atom_site_type_symbol
 _atom_site_label
 _atom_site_symmetry_multiplicity
 _atom_site_fract_x
 _atom_site_fract_y
 _atom_site_fract_z
 _atom_site_occupancy
  V  V0  1  0.62249093  -0.00198545  0.12939431  1
  V  V1  1  0.87128811  0.00043798  0.37712844  1
  V  V2  1  0.13283868  0.49698999  0.62563651  1
  V  V3  1  0.86957549  0.62776309  0.24982846  1
  V  V4  1  0.25331655  0.27053118  0.50618724  1
  V  V5  1  0.62647728  0.49968344  0.59923670  1
  V  V6  1  0.87679785  0.24972655  0.62301195  1
  V  V7  1  0.24862001  0.00174216  0.25014453  1
  V  V8  1  0.00001800  0.62169241  0.62137436  1
  V  V9  1  0.00743665  0.86452390  0.87606914  1
  V  V10  1  0.62300405  0.63100426  -0.00082249  1
  V  V11  1  0.75058689  0.24826446  0.49541417  1
  V  V12  1  0.25179374  0.37814415  0.12149985  1
  V  V13  1  0.87442094  0.62337349  0.75029695  1
  V  V14  1  0.50531113  0.61937161  0.61163021  1
  V  V15  1  0.37621345  0.62456037  0.24983303  1
  V  V16  1  0.25143487  0.62602449  0.37213221  1
  V  V17  1  0.00013317  0.00021399  0.00200669  1
  V  V18  1  0.61957456  0.12554184  0.50829782  1
  V  V19  1  0.87442388  0.87754451  0.50328700  1
  V  V20  1  0.12352709  0.62426217  0.49815595  1
  V  V21  1  0.13809265  0.12232490  0.49414021  1
  V  V22  1  0.38042600  0.51578534  0.87464097  1
  V  V23  1  0.62901194  0.75657306  0.86456073  1
  V  V24  1  0.12910167  0.24705663  0.37240752  1
  V  V25  1  0.12104291  0.37576264  0.25332520  1
  V  V26  1  0.25128076  0.74988411  0.49970206  1
  V  V27  1  0.37009745  0.12905795  0.25530236  1
  V  V28  1  -0.00204888  0.37448062  0.87643651  1
  V  V29  1  0.49702383  0.00567933  0.50873354  1
  V  V30  1  0.74506397  0.11797254  0.37461412  1
  V  V31  1  0.12553661  0.50332131  0.12091339  1
  V  V32  1  0.55700212  0.44805289  -0.05260382  1
  V  V33  1  0.00438635  0.24903289  0.74888511  1
  V  V34  1  0.62816169  0.74896219  0.38891684  1
  V  V35  1  0.50227145  0.62143787  0.12431724  1
  V  V36  1  0.36898263  0.00606253  0.38012966  1
  V  V37  1  0.23459845  0.62867689  0.86911951  1
  V  V38  1  0.62336112  -0.00272526  0.63329519  1
  V  V39  1  0.12445999  0.75158083  0.37514376  1
  V  V40  1  0.12318549  -0.00194402  0.62240550  1
  V  V41  1  0.62995453  0.49505977  0.12929069  1
  V  V42  1  0.74087692  0.49648615  0.75028641  1
  V  V43  1  0.38109729  0.00179774  0.87750608  1
  V  V44  1  0.50357220  0.87592241  0.86997888  1
  V  V45  1  0.12507862  0.25072448  0.87394985  1
  V  V46  1  0.25219243  0.50114942  0.24703454  1
  V  V47  1  0.37942955  0.87514147  -0.00038708  1
  V  V48  1  0.13259739  0.37722075  0.74917157  1
  V  V49  1  0.50535179  0.75244424  0.25198526  1
  V  V50  1  0.12293649  0.12650571  0.00269286  1
  V  V51  1  -0.00683790  0.25259215  0.24891631  1
  V  V52  1  0.37619125  0.75016580  0.12408790  1
  V  V53  1  0.00143954  0.62815649  0.12010904  1
  V  V54  1  0.74994269  0.87861138  0.13816670  1
  V  V55  1  0.25249660  0.25216473  -0.00400855  1
  V  V56  1  0.87095606  0.74726942  0.61892895  1
  V  V57  1  0.49983436  0.74555328  0.74733727  1
  V  V58  1  0.23908281  0.74430579  -0.00135740  1
  V  V59  1  0.00059873  0.88245034  0.38079278  1
  V  V60  1  0.86905381  0.49542823  0.87524926  1
  V  V61  1  0.25457529  -0.00074471  0.75100882  1
  V  V62  1  0.88209740  0.49319909  0.37594425  1
  V  V63  1  0.00414429  0.12269311  0.61422285  1
  V  V64  1  0.37854159  0.49697113  0.38662645  1
  V  V65  1  0.37526606  0.87597181  0.50251771  1
  V  V66  1  0.74580244  0.87058167  0.62985073  1
  V  V67  1  -0.00060004  0.75488699  0.24978124  1
  V  V68  1  0.49735140  0.37622913  0.39748294  1
  V  V69  1  0.74834302  0.62666858  0.39246147  1
  V  V70  1  0.37544071  0.25327877  0.11968155  1
  V  V71  1  0.74775060  0.37214175  0.62630539  1
  V  V72  1  0.00391604  0.50198267  -0.00171651  1
  V  V73  1  0.74814952  0.76226809  -0.00062082  1
  V  V74  1  0.49597056  0.25522251  0.25236166  1
  V  V75  1  0.37550496  0.74078223  0.63006930  1
  V  V76  1  0.86642268  0.36910390  0.02155211  1
  V  V77  1  0.51416249  0.26410677  0.75984197  1
  V  V78  1  0.37779576  0.37888070  -0.01435683  1
  V  V79  1  0.87117622  0.12473616  0.24701232  1
  V  V80  1  0.87593249  -0.00285094  0.87449188  1
  V  V81  1  0.24951081  0.87272702  0.62701327  1
  V  V82  1  0.25057311  0.12466608  0.87394277  1
  V  V83  1  0.87546332  0.12299124  0.74944320  1
  V  V84  1  0.49557689  0.11824457  0.11232464  1
  Zn  Zn85  1  0.12668996  0.87799841  0.24927741  1
  Zn  Zn86  1  0.12891012  0.86813852  0.75599532  1
  Zn  Zn87  1  0.87335043  0.75275925  0.12289763  1
  Zn  Zn88  1  0.00596221  0.48657062  0.49330979  1
  Zn  Zn89  1  0.87464704  0.87549885  0.00181791  1
  Zn  Zn90  1  0.61833268  0.24791064  0.37876164  1
  Zn  Zn91  1  0.62954899  0.12459695  -0.00113544  1
  Zn  Zn92  1  0.24908420  0.87586811  0.12401647  1
  Zn  Zn93  1  0.12606413  0.00006969  0.12622313  1
  Zn  Zn94  1  0.00613810  0.74570608  0.75236903  1
  Zn  Zn95  1  0.88339973  0.36836057  0.49404064  1
  Zn  Zn96  1  0.74759619  -0.00222277  0.75196008  1
  Zn  Zn97  1  0.38759682  0.24786312  0.63537303  1
  Zn  Zn98  1  0.75271931  0.13482512  0.88337235  1
  Zn  Zn99  1  0.26614364  0.50492906  0.74256320  1
  Zn  Zn100  1  0.75172951  0.49653882  0.24775820  1
  Zn  Zn101  1  0.74980265  0.24797517  0.02507405  1
  Zn  Zn102  1  0.50187848  0.87744430  0.37784161  1
  Zn  Zn103  1  0.62954154  0.88095156  0.25949770  1
  Zn  Zn104  1  0.62873903  0.36565291  0.24678728  1
  Zn  Zn105  1  0.75096747  0.62848478  0.87624202  1
  Zn  Zn106  1  -0.00645947  0.12917887  0.12390498  1
  Zn  Zn107  1  0.18828594  0.18845317  0.18498697  1
  Zn  Zn108  1  0.21966827  0.17709353  0.67311321  1
  Zn  Zn109  1  0.18522548  0.68973386  0.18411334  1
  Zn  Zn110  1  0.18578222  0.68675689  0.69071896  1
  Zn  Zn111  1  0.68042992  0.18125491  0.19214885  1
  Zn  Zn112  1  0.68591628  0.18685936  0.69110299  1
  Zn  Zn113  1  0.68649808  0.69150378  0.18866152  1
  Zn  Zn114  1  0.68818783  0.68229848  0.68209648  1
  Zn  Zn115  1  0.31021885  0.31529586  0.31662178  1
  Zn  Zn116  1  0.33934364  0.34148559  0.77452776  1
  Zn  Zn117  1  0.31553864  0.81656096  0.31275720  1
  Zn  Zn118  1  0.31328462  0.80933039  0.81322944  1
  Zn  Zn119  1  0.80383551  0.31618564  0.21281618  1
  Zn  Zn120  1  0.81053763  0.31214590  0.81328228  1
  Zn  Zn121  1  0.81291942  0.80947095  0.31741390  1
  Zn  Zn122  1  0.81904367  0.81404588  0.80968549  1
  Zn  Zn123  1  0.18522194  0.44053563  0.43207235  1
  Zn  Zn124  1  0.19039543  0.44199789  0.93254859  1
  Zn  Zn125  1  0.18826331  0.93856508  0.43808157  1
  Zn  Zn126  1  0.18984709  0.93623927  0.94130262  1
  Zn  Zn127  1  0.70398546  0.42047689  0.41168462  1
  Zn  Zn128  1  0.63505501  0.27457005  0.88229230  1
  Zn  Zn129  1  0.68816360  0.93479679  0.44614754  1
  Zn  Zn130  1  0.67425915  0.96097654  0.93192276  1
  Zn  Zn131  1  0.31356068  0.06192827  0.06112055  1
  Zn  Zn132  1  0.31608772  0.07155232  0.56879857  1
  Zn  Zn133  1  0.31548720  0.56419611  0.05571271  1
  Zn  Zn134  1  0.31323034  0.56481114  0.56245274  1
  Zn  Zn135  1  0.80781983  0.05781662  0.06468524  1
  Zn  Zn136  1  0.81153164  0.05887227  0.56144888  1
  Zn  Zn137  1  0.81132139  0.56390463  0.05913036  1
  Zn  Zn138  1  0.81404919  0.55708266  0.56131279  1
  Zn  Zn139  1  0.43764541  0.43864772  0.18535545  1
  Zn  Zn140  1  0.44979657  0.43129372  0.68198133  1
  Zn  Zn141  1  0.43499978  0.93739322  0.19101733  1
  Zn  Zn142  1  0.43695527  0.93566104  0.69131406  1
  Zn  Zn143  1  0.94151533  0.44294895  0.19158072  1
  Zn  Zn144  1  0.93899856  0.43550302  0.68448763  1
  Zn  Zn145  1  0.93423064  0.94082986  0.18928205  1
  Zn  Zn146  1  0.94158929  0.93588545  0.68894336  1
  Zn  Zn147  1  0.05938786  0.06526619  0.31422069  1
  Zn  Zn148  1  0.06397703  0.05875886  0.81069866  1
  Zn  Zn149  1  0.06132795  0.56595777  0.30717103  1
  Zn  Zn150  1  0.05974133  0.56111169  0.81027532  1
  Zn  Zn151  1  0.55571843  0.06352751  0.31450777  1
  Zn  Zn152  1  0.56894132  0.07145782  0.81599995  1
  Zn  Zn153  1  0.56306488  0.56151861  0.31825499  1
  Zn  Zn154  1  0.56412390  0.57031881  0.80646889  1
  Zn  Zn155  1  0.43046780  0.19027705  0.44276457  1
  Zn  Zn156  1  0.44036603  0.19299799  0.88401341  1
  Zn  Zn157  1  0.43847256  0.68751440  0.43748071  1
  Zn  Zn158  1  0.44013254  0.69273135  0.93949403  1
  Zn  Zn159  1  0.94107343  0.19096222  0.43174651  1
  Zn  Zn160  1  0.93273513  0.18908905  0.93848796  1
  Zn  Zn161  1  0.93671090  0.68831367  0.43787907  1
  Zn  Zn162  1  0.93414958  0.68708891  0.93933350  1
  Zn  Zn163  1  0.05946048  0.31416718  0.06575767  1
  Zn  Zn164  1  0.06772600  0.31124296  0.56135227  1
  Zn  Zn165  1  0.06420944  0.81747148  0.06515327  1
  Zn  Zn166  1  0.06038550  0.81040700  0.56510997  1
  Zn  Zn167  1  0.56442067  0.30358695  0.06246305  1
  Zn  Zn168  1  0.56303855  0.30715406  0.57596130  1
  Zn  Zn169  1  0.56400348  0.81699758  0.06200999  1
  Zn  Zn170  1  0.56027786  0.81549801  0.56373221  1
  O  O171  1  0.12391340  0.12350171  0.11218224  1
  O  O172  1  0.12269786  0.11705621  0.61836513  1
  O  O173  1  0.10954502  0.61900943  0.13105269  1
  O  O174  1  0.11712082  0.61845971  0.61930992  1
  O  O175  1  0.60779333  0.11634640  0.12927522  1
  O  O176  1  0.63284610  0.11428287  0.61399231  1
  O  O177  1  0.62027040  0.62220710  0.11879664  1
  O  O178  1  0.62274882  0.60857487  0.62150002  1
  O  O179  1  0.38760463  0.38420343  0.37061182  1
  O  O180  1  0.36953550  0.38943751  0.88394959  1
  O  O181  1  0.37653582  0.88381677  0.38648623  1
  O  O182  1  0.38272664  0.87832818  0.88036712  1
  O  O183  1  0.87491169  0.39550005  0.37195953  1
  O  O184  1  0.88349872  0.38269991  0.87710013  1
  O  O185  1  0.87898510  0.87938941  0.38322267  1
  O  O186  1  0.89064974  0.87931227  0.87782756  1
  O  O187  1  0.26220102  -0.00259034  0.36996467  1
  O  O188  1  0.25641262  0.00270493  0.87000324  1
  O  O189  1  0.25660573  0.50738697  0.36574061  1
  O  O190  1  0.26115164  0.51795449  0.87767846  1
  O  O191  1  0.75739339  0.00594287  0.38393629  1
  O  O192  1  0.77227699  -0.01784320  0.87028965  1
  O  O193  1  0.76098308  0.51662801  0.37358012  1
  O  O194  1  0.76460567  0.50444725  0.86624481  1
  O  O195  1  0.24532477  0.49968101  0.12625498  1
  O  O196  1  0.23796438  0.50950677  0.62848058  1
  O  O197  1  0.25172934  0.99877977  0.13611437  1
  O  O198  1  0.24346008  0.99430909  0.63368150  1
  O  O199  1  0.73344860  0.50659517  0.12525657  1
  O  O200  1  0.74315238  0.49345825  0.62810936  1
  O  O201  1  0.73810931  0.98916799  0.12831850  1
  O  O202  1  0.74125888  0.99074812  0.62533535  1
  O  O203  1  0.01038448  0.36793503  0.24508346  1
  O  O204  1  0.00641664  0.36973036  0.75695708  1
  O  O205  1  -0.00004030  0.86872241  0.25804350  1
  O  O206  1  0.00200604  0.87392133  0.76620679  1
  O  O207  1  0.49790363  0.36133850  0.24680607  1
  O  O208  1  0.51403094  0.36639132  0.75314454  1
  O  O209  1  0.49506293  0.86106287  0.25591260  1
  O  O210  1  0.49729583  0.86112944  0.75816983  1
  O  O211  1  0.48495629  0.13563544  0.24843913  1
  O  O212  1  0.49791875  0.14641364  0.78619553  1
  O  O213  1  0.49691227  0.63526576  0.24624556  1
  O  O214  1  0.50525361  0.63910191  0.73689874  1
  O  O215  1  0.98951394  0.13203751  0.24995341  1
  O  O216  1  0.99468051  0.12919852  0.74270641  1
  O  O217  1  0.98973516  0.63487573  0.24366378  1
  O  O218  1  0.98882601  0.62272287  0.74196046  1
  O  O219  1  0.36952883  0.26220146  0.00118668  1
  O  O220  1  0.35606787  0.24797068  0.50746665  1
  O  O221  1  0.36867957  0.75505918  0.00717115  1
  O  O222  1  0.37092939  0.75541858  0.50735604  1
  O  O223  1  0.88006822  0.26649349  0.00460183  1
  O  O224  1  0.86759296  0.24447415  0.50566122  1
  O  O225  1  0.86221914  0.75270048  0.00182745  1
  O  O226  1  0.87783240  0.75563654  0.51261762  1
  O  O227  1  0.12954350  0.24329789  0.48739358  1
  O  O228  1  0.12846692  0.24535016  0.99509829  1
  O  O229  1  0.13080179  0.74440287  0.49466434  1
  O  O230  1  0.14083900  0.75316020  1.00445636  1
  O  O231  1  0.63021059  0.24053644  0.50344152  1
  O  O232  1  0.63154957  0.24281132  0.99890665  1
  O  O233  1  0.62010490  0.75031593  0.48759892  1
  O  O234  1  0.63090819  0.74804750  0.99032863  1
  O  O235  1  0.49262210  0.24032343  0.13298177  1
  O  O236  1  0.50405272  0.24605077  0.64864313  1
  O  O237  1  0.49813764  0.74300132  0.13360721  1
  O  O238  1  0.49571649  0.74443937  0.62928678  1
  O  O239  1  1.00641508  0.24619467  0.14195049  1
  O  O240  1  0.99893176  0.24022546  0.63168216  1
  O  O241  1  0.99815640  0.74551477  0.13108875  1
  O  O242  1  0.99220694  0.73560066  0.62448515  1
  O  O243  1  0.01446738  0.24702846  0.36092702  1
  O  O244  1  0.00483803  0.25482874  0.86956926  1
  O  O245  1  0.00306116  0.75833108  0.36788604  1
  O  O246  1  -0.00202200  0.76178026  0.87835804  1
  O  O247  1  0.49193908  0.26234065  0.37169242  1
  O  O248  1  0.52063263  0.27119092  0.87616268  1
  O  O249  1  0.51203011  0.74817435  0.36983457  1
  O  O250  1  0.50730864  0.75479301  0.86562703  1
  O  O251  1  0.23894789  0.13244277  0.49908931  1
  O  O252  1  0.24089352  0.12901030  0.99442206  1
  O  O253  1  0.24384739  0.63168842  0.49229208  1
  O  O254  1  0.25216238  0.63761155  0.99088193  1
  O  O255  1  0.74218690  0.12754804  0.49529140  1
  O  O256  1  0.75290445  0.13130424  1.00295847  1
  O  O257  1  0.75423853  0.62817484  0.49032677  1
  O  O258  1  0.73886462  0.63701151  0.99981331  1
  O  O259  1  0.25748112  0.37353611  0.00186947  1
  O  O260  1  0.25037745  0.36904160  0.49117760  1
  O  O261  1  0.26010904  0.86116254  -0.00251314  1
  O  O262  1  0.25586941  0.86866289  0.50634424  1
  O  O263  1  0.77060618  0.37445392  0.00455307  1
  O  O264  1  0.75775104  0.36338165  0.50172997  1
  O  O265  1  0.74619756  0.86799912  0.00677807  1
  O  O266  1  0.76554239  0.87648505  0.51219621  1
  O  O267  1  0.12955763  0.49406357  0.24352545  1
  O  O268  1  0.12281526  0.49440770  0.74079445  1
  O  O269  1  0.13900832  1.00502008  0.25336549  1
  O  O270  1  0.13597531  0.99374450  0.74306044  1
  O  O271  1  0.62482127  0.50548612  0.23589773  1
  O  O272  1  0.64046224  0.50610573  0.74896427  1
  O  O273  1  0.60916561  0.99474607  0.24002152  1
  O  O274  1  0.62475383  1.00290563  0.73598259  1
  O  O275  1  0.36800885  0.00763154  0.26012380  1
  O  O276  1  0.36192111  -0.00405179  0.75896705  1
  O  O277  1  0.37012786  0.50754712  0.25376670  1
  O  O278  1  0.38086554  0.49586556  0.77037724  1
  O  O279  1  0.88026337  0.00774131  0.26833174  1
  O  O280  1  0.88154321  0.00820215  0.75660494  1
  O  O281  1  0.87504520  0.51165334  0.25905729  1
  O  O282  1  0.87157214  0.50524655  0.75538747  1
  O  O283  1  0.12874498  0.37032943  0.35885150  1
  O  O284  1  0.11587234  0.37324847  0.87115967  1
  O  O285  1  0.11699333  0.86948501  0.37487827  1
  O  O286  1  0.11071025  0.88114862  0.87751161  1
  O  O287  1  0.60495824  0.37122346  0.37581021  1
  O  O288  1  0.62408082  0.39970201  0.89671803  1
  O  O289  1  0.62507868  0.86339705  0.37765406  1
  O  O290  1  0.61197746  0.87153888  0.88065585  1
  O  O291  1  0.38203533  0.13088465  0.12922315  1
  O  O292  1  0.33009843  0.14925946  0.64523322  1
  O  O293  1  0.38390083  0.62983837  0.12798670  1
  O  O294  1  0.38482339  0.63284395  0.62208186  1
  O  O295  1  0.87296572  0.11342909  0.14458330  1
  O  O296  1  0.88544967  0.12687633  0.62874165  1
  O  O297  1  0.88370167  0.62612790  0.13171467  1
  O  O298  1  0.87986666  0.62789697  0.62865378  1
  O  O299  1  0.25589200  0.25733609  0.11617999  1
  O  O300  1  0.22199401  0.26754215  0.60318541  1
  O  O301  1  0.25645474  0.74865659  0.11408630  1
  O  O302  1  0.25904649  0.74995850  0.61978327  1
  O  O303  1  0.74418723  0.25503176  0.14031038  1
  O  O304  1  0.75364578  0.25535206  0.61791654  1
  O  O305  1  0.74855093  0.76012234  0.11725313  1
  O  O306  1  0.75886412  0.75552637  0.62833533  1
  O  O307  1  0.23711561  0.25458432  0.38246687  1
  O  O308  1  0.24140580  0.23910220  0.88159843  1
  O  O309  1  0.24597231  0.74583369  0.37855805  1
  O  O310  1  0.25477467  0.73758335  0.88466184  1
  O  O311  1  0.74308161  0.23765849  0.39144060  1
  O  O312  1  0.74769883  0.25025815  0.87974116  1
  O  O313  1  0.73887411  0.73967378  0.37389099  1
  O  O314  1  0.74403778  0.75420727  0.87923553  1
  O  O315  1  0.00499881  0.11910339  0.00137178  1
  O  O316  1  0.00910891  0.13121230  0.51159908  1
  O  O317  1  -0.00691111  0.61623150  0.00872484  1
  O  O318  1  0.00796633  0.62423633  0.50538413  1
  O  O319  1  0.49743904  0.12775742  0.01409092  1
  O  O320  1  0.50576701  0.11846469  0.49974882  1
  O  O321  1  0.51419453  0.63794045  0.01037611  1
  O  O322  1  0.50023495  0.62777264  0.51213706  1
  O  O323  1  0.49785943  0.36781015  0.49544657  1
  O  O324  1  0.49575535  0.38288324  1.00321683  1
  O  O325  1  0.49049794  0.88497625  0.50012758  1
  O  O326  1  0.48686504  0.86425235  0.98900830  1
  O  O327  1  0.99643337  0.37381886  0.50263042  1
  O  O328  1  0.99289602  0.38377340  0.99661223  1
  O  O329  1  0.98831881  0.86791707  0.49239054  1
  O  O330  1  0.99949296  0.88217835  0.99248726  1
  O  O331  1  0.49284731  0.48642117  0.37264999  1
  O  O332  1  0.49917477  0.50715653  0.88113940  1
  O  O333  1  0.48685586  0.99934261  0.38799272  1
  O  O334  1  0.48661665  0.98965914  0.86725031  1
  O  O335  1  0.98622429  0.51157791  0.37441971  1
  O  O336  1  0.99108998  0.49676251  0.88196652  1
  O  O337  1  0.99544370  0.98676477  0.37444327  1
  O  O338  1  0.99469213  0.99388718  0.88438297  1
  O  O339  1  0.00083801  0.00170928  0.11260586  1
  O  O340  1  0.01511220  0.00700123  0.63112233  1
  O  O341  1  0.00425420  0.50859793  0.11745379  1
  O  O342  1  0.00507645  0.51139579  0.62180153  1
  O  O343  1  0.49557641  0.01406563  0.13023106  1
  O  O344  1  0.50434494  -0.00479351  0.61691436  1
  O  O345  1  0.50700466  0.51669290  0.13086800  1
  O  O346  1  0.51832939  0.50375214  0.62405936  1
  O  O347  1  0.24514539  0.38269275  0.24137624  1
  O  O348  1  0.23364822  0.38769891  0.76552073  1
  O  O349  1  0.25051807  0.88677448  0.24913574  1
  O  O350  1  0.25018409  0.88064562  0.74513655  1
  O  O351  1  0.73819645  0.38523194  0.27613584  1
  O  O352  1  0.75795765  0.38458379  0.73755274  1
  O  O353  1  0.74990699  0.86878841  0.24163845  1
  O  O354  1  0.75953642  0.87837228  0.73415022  1
  O  O355  1  0.26256759  0.11989080  0.24340637  1
  O  O356  1  0.23562189  0.11391861  0.76919462  1
  O  O357  1  0.25485622  0.62177853  0.25273234  1
  O  O358  1  0.25088544  0.62438411  0.76511746  1
  O  O359  1  0.75432579  0.12695935  0.26888930  1
  O  O360  1  0.76686100  0.11984562  0.74763034  1
  O  O361  1  0.76274157  0.62752382  0.25011238  1
  O  O362  1  0.76215810  0.61734385  0.74887957  1
  O  O363  1  0.37605310  0.11858064  0.36742208  1
  O  O364  1  0.36068115  0.11161141  0.89117061  1
  O  O365  1  0.37168346  0.61988182  0.36843856  1
  O  O366  1  0.37449174  0.61808275  0.88096732  1
  O  O367  1  0.86753166  0.11664686  0.37454557  1
  O  O368  1  0.87589467  0.11602908  0.86645123  1
  O  O369  1  0.86338784  0.62790393  0.36875812  1
  O  O370  1  0.87442171  0.61806201  0.86635704  1
  O  O371  1  0.13193681  0.38277764  0.13160367  1
  O  O372  1  0.11645648  0.38836641  0.63633851  1
  O  O373  1  0.13025438  0.88162353  0.13108072  1
  O  O374  1  0.13194919  0.88246000  0.62148991  1
  O  O375  1  0.61449545  0.39316859  0.12634799  1
  O  O376  1  0.63894387  0.38654731  0.61834340  1
  O  O377  1  0.63063816  0.87885345  0.13294704  1
  O  O378  1  0.63526604  0.88265905  0.61780688  1
  O  O379  1  0.12356638  0.25695095  0.25398315  1
  O  O380  1  0.12022932  0.25914323  0.75656682  1
  O  O381  1  0.11346902  0.75063590  0.25575704  1
  O  O382  1  0.11855312  0.75593185  0.74390950  1
  O  O383  1  0.60829492  0.24620557  0.25956481  1
  O  O384  1  0.62268368  0.24526750  0.76188382  1
  O  O385  1  0.61734077  0.75291201  0.26014648  1
  O  O386  1  0.62287506  0.74643057  0.76004173  1
  O  O387  1  0.37386367  0.24542734  0.24298835  1
  O  O388  1  0.40161551  0.24959081  0.77994585  1
  O  O389  1  0.38088923  0.74383973  0.24462036  1
  O  O390  1  0.38294959  0.75264333  0.73784054  1
  O  O391  1  0.88390862  0.24070824  0.25817922  1
  O  O392  1  0.88384479  0.24250062  0.74285454  1
  O  O393  1  0.88527873  0.74582531  0.24898961  1
  O  O394  1  0.88047592  0.73989554  0.74010617  1
  O  O395  1  0.37035288  0.50360431  0.48566378  1
  O  O396  1  0.37781136  0.49492157  0.98798732  1
  O  O397  1  0.37706124  1.00071729  0.49967680  1
  O  O398  1  0.36769212  0.98611325  0.99040546  1
  O  O399  1  0.87899321  0.50165485  0.48565986  1
  O  O400  1  0.88145196  0.49131741  0.99459532  1
  O  O401  1  0.87766704  0.99171224  0.49080030  1
  O  O402  1  0.88415914  0.99876900  0.99279525  1
  O  O403  1  0.11857472  0.00923065  0.00010041  1
  O  O404  1  0.13117217  0.00862530  0.50918075  1
  O  O405  1  0.11152664  0.49533216  0.00343209  1
  O  O406  1  0.12492156  0.50703794  0.50574206  1
  O  O407  1  0.61497614  -0.00436779  0.02537369  1
  O  O408  1  0.61400988  0.00467840  0.50811866  1
  O  O409  1  0.61464391  0.51192058  0.01176961  1
  O  O410  1  0.63616865  0.49533895  0.50278458  1
  O  O411  1  0.37020904  0.37435193  0.11334223  1
  O  O412  1  0.36665430  0.35985114  0.66177670  1
  O  O413  1  0.37453195  0.86839779  0.11708437  1
  O  O414  1  0.36900430  0.86660068  0.61999375  1
  O  O415  1  0.87227314  0.37952844  0.12621092  1
  O  O416  1  0.86577230  0.36727732  0.62187149  1
  O  O417  1  0.86461234  0.87581698  0.12300173  1
  O  O418  1  0.87513750  0.86716924  0.62026944  1
  O  O419  1  0.12223611  0.13259662  0.38328315  1
  O  O420  1  0.12778571  0.12767186  0.88611005  1
  O  O421  1  0.13027241  0.63146182  0.37734589  1
  O  O422  1  0.13609778  0.62049858  0.87474940  1
  O  O423  1  0.62919365  0.12145704  0.38781272  1
  O  O424  1  0.64977752  0.07519780  0.89199453  1
  O  O425  1  0.64000228  0.63234262  0.37200047  1
  O  O426  1  0.62787233  0.63677933  0.88254395  1
