# generated using pymatgen
data_V85Zn86O256
_symmetry_space_group_name_H-M   'P 1'
_cell_length_a   16.93420644
_cell_length_b   16.93486109
_cell_length_c   16.94034913
_cell_angle_alpha   90.02842461
_cell_angle_beta   89.96352393
_cell_angle_gamma   89.91792643
_symmetry_Int_Tables_number   1
_chemical_formula_structural   V85Zn86O256
_chemical_formula_sum   'V85 Zn86 O256'
_cell_volume   4858.12022376
_cell_formula_units_Z   1
loop_
 _symmetry_equiv_pos_site_id
 _symmetry_equiv_pos_as_xyz
  1  'x, y, z'
loop_
 _atom_site_type_symbol
 _atom_site_label
 _atom_site_symmetry_multiplicity
 _atom_site_fract_x
 _atom_site_fract_y
 _atom_site_fract_z
 _atom_site_occupancy
  V  V0  1  0.62662908  0.62077634  -0.00258311  1
  V  V1  1  0.25466051  0.62415526  0.37211655  1
  V  V2  1  0.50090030  0.37693464  0.37657327  1
  V  V3  1  0.24830158  0.49787233  0.25014088  1
  V  V4  1  0.37648407  0.87203940  0.00031513  1
  V  V5  1  0.12115268  -0.00190553  0.12171523  1
  V  V6  1  0.00045536  0.24974061  0.74888959  1
  V  V7  1  0.25300861  0.37229978  0.11783612  1
  V  V8  1  0.50337750  0.87366807  0.37185522  1
  V  V9  1  0.24944764  0.12941569  0.37290087  1
  V  V10  1  0.87426046  0.11889389  0.24550246  1
  V  V11  1  -0.01235007  0.25151213  0.23204368  1
  V  V12  1  0.37767117  0.25149934  0.12061294  1
  V  V13  1  0.89019354  0.88308554  0.49556584  1
  V  V14  1  0.37263133  0.00426784  0.87587844  1
  V  V15  1  0.12607715  0.36243508  0.25300102  1
  V  V16  1  0.86677978  0.49858360  0.87790121  1
  V  V17  1  0.75017602  0.62100469  0.37702106  1
  V  V18  1  0.62458064  0.24015018  0.38136967  1
  V  V19  1  0.25003178  0.74747388  -0.00009859  1
  V  V20  1  0.74810710  -0.00554851  0.26471705  1
  V  V21  1  0.37817119  0.24990546  0.62502049  1
  V  V22  1  0.12225955  0.49674820  0.12450175  1
  V  V23  1  0.62447895  0.73995242  0.86952446  1
  V  V24  1  0.12979608  0.24134798  0.87259401  1
  V  V25  1  0.75167670  0.36669317  0.11829906  1
  V  V26  1  -0.00259006  0.62689861  0.62536285  1
  V  V27  1  0.62214970  0.37325973  0.75499920  1
  V  V28  1  0.12855161  0.11938414  -0.00041666  1
  V  V29  1  0.25008050  0.37718172  0.63163246  1
  V  V30  1  0.12518691  0.13088591  0.49889573  1
  V  V31  1  0.12518138  0.00013500  0.62546047  1
  V  V32  1  0.50227887  0.12131794  0.12076268  1
  V  V33  1  0.37549789  0.00009810  0.37458093  1
  V  V34  1  0.87038778  0.11950249  0.76250798  1
  V  V35  1  0.12450910  0.62200797  -0.00285845  1
  V  V36  1  0.74991478  0.37685960  0.62599351  1
  V  V37  1  0.12290542  0.62438614  0.49967451  1
  V  V38  1  0.25190905  0.75017374  0.50356577  1
  V  V39  1  0.24917815  0.25315003  0.49587873  1
  V  V40  1  0.24777992  -0.00304634  0.24980241  1
  V  V41  1  0.63285790  0.37801743  0.25185061  1
  V  V42  1  0.49733843  0.50849150  0.50242177  1
  V  V43  1  0.50646165  -0.00285892  0.00432840  1
  V  V44  1  0.00360112  0.36637075  0.37558500  1
  V  V45  1  -0.00445722  0.49773458  0.00019813  1
  V  V46  1  0.37474618  0.12397283  0.75119419  1
  V  V47  1  0.37695624  0.87321946  0.50307761  1
  V  V48  1  0.50144200  0.86838414  0.86959122  1
  V  V49  1  0.12536716  0.87633239  0.75249713  1
  V  V50  1  0.62809050  0.75234289  0.37213274  1
  V  V51  1  0.12739047  0.75050646  0.87393657  1
  V  V52  1  0.87314753  0.62477051  0.75320435  1
  V  V53  1  0.06390502  0.92045019  0.30608863  1
  V  V54  1  0.12051119  0.74982152  0.37166676  1
  V  V55  1  0.63237612  0.24703951  0.89249009  1
  V  V56  1  0.24791848  0.87159547  0.13075149  1
  V  V57  1  0.00222746  0.75002467  0.24719310  1
  V  V58  1  0.75321276  0.76030726  0.50653727  1
  V  V59  1  0.63283696  -0.00575294  0.62779593  1
  V  V60  1  0.25600474  0.87294015  0.62927197  1
  V  V61  1  0.87090347  0.62414423  0.24858636  1
  V  V62  1  -0.01263581  0.87800316  0.87896557  1
  V  V63  1  0.75171962  0.74851666  -0.00651583  1
  V  V64  1  0.61829823  0.50606187  0.62550259  1
  V  V65  1  -0.00110420  0.37305024  0.87431500  1
  V  V66  1  0.74719576  0.24379998  0.50286874  1
  V  V67  1  0.48444305  0.37993945  0.88192743  1
  V  V68  1  0.50905222  0.12757419  0.62355276  1
  V  V69  1  0.62868805  0.50640592  0.12988852  1
  V  V70  1  0.25856101  0.60653519  0.86817363  1
  V  V71  1  -0.00236361  0.12335934  0.62361654  1
  V  V72  1  0.37953760  0.61931363  0.73457747  1
  V  V73  1  0.87307047  0.75546423  0.11843406  1
  V  V74  1  0.68238331  0.05241409  0.07295615  1
  V  V75  1  0.74749376  0.50326108  0.75327274  1
  V  V76  1  0.48788204  0.50191878  0.00579238  1
  V  V77  1  0.87428122  0.37486287  0.50077655  1
  V  V78  1  0.25824431  0.24442315  -0.00666421  1
  V  V79  1  0.12635759  0.50074032  0.63298362  1
  V  V80  1  -0.01588380  0.00110655  -0.00069217  1
  V  V81  1  0.50059506  0.74111666  0.24475330  1
  V  V82  1  0.50033044  0.25010171  0.24941557  1
  V  V83  1  0.87366754  0.49848182  0.37143000  1
  V  V84  1  0.50691516  0.00817430  0.49705315  1
  Zn  Zn85  1  0.63674493  0.86658458  0.74262702  1
  Zn  Zn86  1  0.50210648  0.24781391  0.75866609  1
  Zn  Zn87  1  0.86848208  0.75873616  0.63154897  1
  Zn  Zn88  1  0.00014507  0.49953373  0.49846180  1
  Zn  Zn89  1  0.38239177  0.74279359  0.12075589  1
  Zn  Zn90  1  0.37408884  0.12350537  0.24741872  1
  Zn  Zn91  1  -0.00278716  0.62402427  0.12308559  1
  Zn  Zn92  1  -0.00180411  0.75194957  0.75056541  1
  Zn  Zn93  1  0.37965184  0.61842050  0.24278306  1
  Zn  Zn94  1  0.62203692  0.63023906  0.50398917  1
  Zn  Zn95  1  0.37585338  0.37736009  0.50112788  1
  Zn  Zn96  1  0.37497497  0.49819675  0.37399211  1
  Zn  Zn97  1  0.76522138  -0.01253524  0.76263135  1
  Zn  Zn98  1  0.76027426  0.12177802  0.38234686  1
  Zn  Zn99  1  0.74694014  0.87874497  0.11583225  1
  Zn  Zn100  1  0.24900809  0.00581340  0.75576517  1
  Zn  Zn101  1  0.12829446  0.37839954  0.75426218  1
  Zn  Zn102  1  0.87341367  0.24981733  0.62678390  1
  Zn  Zn103  1  0.62165156  0.88011685  0.23804547  1
  Zn  Zn104  1  0.00114560  0.00245880  0.48143421  1
  Zn  Zn105  1  0.49446901  0.74615159  0.73242076  1
  Zn  Zn106  1  0.87238230  0.36183497  0.00218536  1
  Zn  Zn107  1  0.18533431  0.18538914  0.18294208  1
  Zn  Zn108  1  0.19035369  0.18803442  0.68653241  1
  Zn  Zn109  1  0.18589043  0.68519901  0.18469402  1
  Zn  Zn110  1  0.18941289  0.68662502  0.69063195  1
  Zn  Zn111  1  0.68900498  0.18767801  0.19873245  1
  Zn  Zn112  1  0.68813454  0.18785971  0.69085044  1
  Zn  Zn113  1  0.68874579  0.68898651  0.18647561  1
  Zn  Zn114  1  0.68585619  0.68559067  0.68891351  1
  Zn  Zn115  1  0.31627850  0.31212230  0.30989373  1
  Zn  Zn116  1  0.31399419  0.31165187  0.81100109  1
  Zn  Zn117  1  0.31551751  0.80979154  0.31467206  1
  Zn  Zn118  1  0.31550165  0.80695371  0.81080845  1
  Zn  Zn119  1  0.81038861  0.31188909  0.31417846  1
  Zn  Zn120  1  0.81185008  0.30875723  0.81686563  1
  Zn  Zn121  1  0.81749179  0.81349168  0.31513541  1
  Zn  Zn122  1  0.80719061  0.80785147  0.81314639  1
  Zn  Zn123  1  0.18399574  0.43744494  0.44002010  1
  Zn  Zn124  1  0.18604588  0.43084512  0.93815597  1
  Zn  Zn125  1  0.19012071  0.94129032  0.44280062  1
  Zn  Zn126  1  0.19072214  0.93467854  0.93771726  1
  Zn  Zn127  1  0.68659152  0.43744298  0.43986682  1
  Zn  Zn128  1  0.68310095  0.43487998  0.93929129  1
  Zn  Zn129  1  0.68654343  0.93726814  0.44064895  1
  Zn  Zn130  1  0.69468073  0.92692766  0.92871104  1
  Zn  Zn131  1  0.31368743  0.06222081  0.06168067  1
  Zn  Zn132  1  0.31449497  0.06189451  0.56330290  1
  Zn  Zn133  1  0.30960141  0.56587540  0.06446467  1
  Zn  Zn134  1  0.30723461  0.55657366  0.55903744  1
  Zn  Zn135  1  0.81380032  0.18986438  0.06070877  1
  Zn  Zn136  1  0.81606884  0.05850334  0.56368098  1
  Zn  Zn137  1  0.80706403  0.56228215  0.06446792  1
  Zn  Zn138  1  0.81111402  0.56381000  0.56167456  1
  Zn  Zn139  1  0.43858988  0.43639240  0.18553649  1
  Zn  Zn140  1  0.43411932  0.44131519  0.69251710  1
  Zn  Zn141  1  0.43534935  0.93495530  0.18706537  1
  Zn  Zn142  1  0.44288636  0.93953810  0.68745427  1
  Zn  Zn143  1  0.93405821  0.43708827  0.18893662  1
  Zn  Zn144  1  0.93847283  0.43872544  0.68744862  1
  Zn  Zn145  1  0.92584756  0.94375325  0.17514171  1
  Zn  Zn146  1  0.93731494  0.93543806  0.68388587  1
  Zn  Zn147  1  0.06606909  0.08837707  0.30790894  1
  Zn  Zn148  1  0.05903787  0.06110351  0.81393595  1
  Zn  Zn149  1  0.06056394  0.56022714  0.31191307  1
  Zn  Zn150  1  0.05986957  0.56314301  0.81377558  1
  Zn  Zn151  1  0.56476949  0.06376013  0.30824153  1
  Zn  Zn152  1  0.60286667  0.04502239  0.83531197  1
  Zn  Zn153  1  0.56563481  0.56303747  0.31622671  1
  Zn  Zn154  1  0.55297747  0.56017956  0.81406455  1
  Zn  Zn155  1  0.43537095  0.18899652  0.43799639  1
  Zn  Zn156  1  0.44840214  0.18508515  0.93550728  1
  Zn  Zn157  1  0.43501384  0.68871096  0.55917414  1
  Zn  Zn158  1  0.43793305  0.68205747  0.93617026  1
  Zn  Zn159  1  0.93573445  0.19006288  0.43380096  1
  Zn  Zn160  1  0.94375503  0.18246959  0.93769879  1
  Zn  Zn161  1  0.93624484  0.69171892  0.43759948  1
  Zn  Zn162  1  0.93782174  0.68598071  0.93412507  1
  Zn  Zn163  1  0.06584238  0.31259076  0.05718762  1
  Zn  Zn164  1  0.06331628  0.31329571  0.56332149  1
  Zn  Zn165  1  0.06105798  0.81518585  0.06145561  1
  Zn  Zn166  1  0.06189205  0.81246585  0.56307560  1
  Zn  Zn167  1  0.56258389  0.31752181  0.06223033  1
  Zn  Zn168  1  0.56356688  0.31841433  0.56328814  1
  Zn  Zn169  1  0.56933988  0.81259452  0.06120945  1
  Zn  Zn170  1  0.56631213  0.81729027  0.55735746  1
  O  O171  1  0.12849922  0.10880909  0.11688692  1
  O  O172  1  0.11859627  0.11994842  0.61986435  1
  O  O173  1  0.12206976  0.61459555  0.11593653  1
  O  O174  1  0.11978790  0.61925800  0.62188206  1
  O  O175  1  0.62063823  0.11851452  0.12983856  1
  O  O176  1  0.61260922  0.12121193  0.62899831  1
  O  O177  1  0.62676908  0.61170465  0.12144989  1
  O  O178  1  0.62745586  0.61026017  0.62349937  1
  O  O179  1  0.38952566  0.37469168  0.37439037  1
  O  O180  1  0.38572197  0.37719442  0.87265757  1
  O  O181  1  0.38253014  0.88008956  0.38165407  1
  O  O182  1  0.38054539  0.87924516  0.88473599  1
  O  O183  1  0.87963516  0.38200854  0.37902112  1
  O  O184  1  0.88075308  0.38296658  0.87618741  1
  O  O185  1  0.87876287  0.86410811  0.39610469  1
  O  O186  1  0.88973281  0.86651664  0.87485689  1
  O  O187  1  0.25334102  0.00741512  0.36904933  1
  O  O188  1  0.26859712  -0.00412743  0.87612511  1
  O  O189  1  0.24700472  0.50481503  0.36707748  1
  O  O190  1  0.24239050  0.50864052  0.87592515  1
  O  O191  1  0.75155177  0.00180710  0.36880467  1
  O  O192  1  0.70958772  0.01000819  0.85920871  1
  O  O193  1  0.75688116  0.51048759  0.37980788  1
  O  O194  1  0.75846381  0.49364270  0.86936621  1
  O  O195  1  0.24434524  0.48880026  0.12952845  1
  O  O196  1  0.23938644  0.48890809  0.62019449  1
  O  O197  1  0.24522470  0.99296751  0.13191836  1
  O  O198  1  0.23945013  0.99333620  0.62445386  1
  O  O199  1  0.73378540  0.49067407  0.12496199  1
  O  O200  1  0.74360823  0.49468693  0.63206400  1
  O  O201  1  0.74570911  1.00038396  0.13534587  1
  O  O202  1  0.73369393  1.01150679  0.62871372  1
  O  O203  1  0.00549629  0.36768955  0.25351406  1
  O  O204  1  0.00194062  0.36503155  0.75399360  1
  O  O205  1  -0.00406126  0.86925847  0.24413363  1
  O  O206  1  0.00607426  0.87544440  0.76208664  1
  O  O207  1  0.50892219  0.36949504  0.25585425  1
  O  O208  1  0.50565797  0.37891454  0.76427630  1
  O  O209  1  0.50055274  0.87149379  0.26042362  1
  O  O210  1  0.49537531  0.87038989  0.76325509  1
  O  O211  1  0.49973425  0.13028293  0.23792307  1
  O  O212  1  0.48644602  0.13063484  0.73478815  1
  O  O213  1  0.50000726  0.63821213  0.25737871  1
  O  O214  1  0.48494892  0.62351033  0.74715979  1
  O  O215  1  0.99259060  0.14306408  0.24506881  1
  O  O216  1  0.99555120  0.13091953  0.74210294  1
  O  O217  1  0.98940283  0.63185175  0.24912378  1
  O  O218  1  0.99146467  0.62529873  0.74297714  1
  O  O219  1  0.36607972  0.24127677  0.00459740  1
  O  O220  1  0.36808424  0.25290368  0.50978138  1
  O  O221  1  0.36975533  0.75643393  -0.00119917  1
  O  O222  1  0.35880357  0.75557415  0.49630874  1
  O  O223  1  0.87893184  0.24959285  -0.00448444  1
  O  O224  1  0.86839625  0.26012291  0.50146205  1
  O  O225  1  0.86541848  0.73475551  0.00745157  1
  O  O226  1  0.86500977  0.75422049  0.50406893  1
  O  O227  1  0.13388002  0.23906450  0.50625404  1
  O  O228  1  0.13264476  0.24041041  0.99333679  1
  O  O229  1  0.13237783  0.74682470  0.49070279  1
  O  O230  1  0.12856096  0.74345883  0.99346756  1
  O  O231  1  0.63439593  0.25848789  0.49292652  1
  O  O232  1  0.62489510  0.25268125  0.99251887  1
  O  O233  1  0.63748027  0.75106408  0.49091754  1
  O  O234  1  0.62863197  0.73778850  0.99269443  1
  O  O235  1  0.49486125  0.24395042  0.12562578  1
  O  O236  1  0.49282742  0.24500013  0.62087135  1
  O  O237  1  0.50250860  0.75505620  0.14197524  1
  O  O238  1  0.49549189  0.75964054  0.61872519  1
  O  O239  1  0.99826005  0.26017948  0.13383988  1
  O  O240  1  1.00187439  0.24265867  0.63416096  1
  O  O241  1  0.99426742  0.74691431  0.12949158  1
  O  O242  1  1.00149711  0.73676901  0.62766809  1
  O  O243  1  -0.00145144  0.26315615  0.36430508  1
  O  O244  1  0.00961221  0.25188577  0.86547730  1
  O  O245  1  0.01257677  0.74739264  0.36715775  1
  O  O246  1  0.01094594  0.75981460  0.87730308  1
  O  O247  1  0.50609288  0.25636029  0.37311462  1
  O  O248  1  0.50335158  0.26876917  0.87804540  1
  O  O249  1  0.51590540  0.76007854  0.36724908  1
  O  O250  1  0.50543433  0.75490831  0.87677854  1
  O  O251  1  0.24548925  0.13212041  0.49504837  1
  O  O252  1  0.24002710  0.13165174  1.00269449  1
  O  O253  1  0.24327187  0.63171548  0.49184344  1
  O  O254  1  0.24284552  0.62719805  0.98795505  1
  O  O255  1  0.75910352  0.13959918  0.50102276  1
  O  O256  1  0.73922348  0.11134104  1.01828881  1
  O  O257  1  0.75123641  0.63563478  0.48990835  1
  O  O258  1  0.73436397  0.62885464  1.00244707  1
  O  O259  1  0.24536732  0.36308095  0.01154486  1
  O  O260  1  0.25027563  0.36714797  0.50685163  1
  O  O261  1  0.25887506  0.86942723  0.00838053  1
  O  O262  1  0.25350628  0.86879413  0.50781724  1
  O  O263  1  0.74915653  0.37674809  0.01505948  1
  O  O264  1  0.75571056  0.36887366  0.50576147  1
  O  O265  1  0.74858402  0.85463040  -0.00324981  1
  O  O266  1  0.75774306  0.86322741  0.49731798  1
  O  O267  1  0.13166821  0.48879288  0.24463415  1
  O  O268  1  0.11889926  0.49848962  0.73766196  1
  O  O269  1  0.12416451  0.99508270  0.24409892  1
  O  O270  1  0.12891301  0.99659519  0.74376457  1
  O  O271  1  0.61720533  0.49361240  0.23813638  1
  O  O272  1  0.62900925  0.49368014  0.74745680  1
  O  O273  1  0.64275732  0.99791767  0.25632451  1
  O  O274  1  0.60695971  0.99345112  0.72954955  1
  O  O275  1  0.36716346  0.00174945  0.25641310  1
  O  O276  1  0.37724487  0.00663082  0.75891776  1
  O  O277  1  0.36074938  0.49577841  0.25057216  1
  O  O278  1  0.37096142  0.51822686  0.74872412  1
  O  O279  1  0.86458894  0.00807230  0.24735288  1
  O  O280  1  0.87863887  0.01465726  0.74358899  1
  O  O281  1  0.87845221  0.50822292  0.26300090  1
  O  O282  1  0.86663350  0.50233803  0.75718396  1
  O  O283  1  0.11696190  0.37867352  0.36481913  1
  O  O284  1  0.11806418  0.36140803  0.87418057  1
  O  O285  1  0.13099035  0.86825952  0.37078196  1
  O  O286  1  0.12295559  0.86776362  0.87025462  1
  O  O287  1  0.61703764  0.37190673  0.36898194  1
  O  O288  1  0.61786190  0.36809212  0.87010228  1
  O  O289  1  0.62002404  0.86948042  0.37096520  1
  O  O290  1  0.61518354  0.85642646  0.87321986  1
  O  O291  1  0.38294335  0.13368163  0.12546580  1
  O  O292  1  0.38211604  0.13279925  0.62627686  1
  O  O293  1  0.36634006  0.63191628  0.13221091  1
  O  O294  1  0.36616560  0.62549979  0.62962448  1
  O  O295  1  0.86851901  0.13520802  0.14622112  1
  O  O296  1  0.89012152  0.12717454  0.62486151  1
  O  O297  1  0.87461539  0.62890026  0.13457994  1
  O  O298  1  0.88185664  0.62281516  0.63532808  1
  O  O299  1  0.25754766  0.25290344  0.11798978  1
  O  O300  1  0.25693419  0.25477433  0.61436253  1
  O  O301  1  0.24619703  0.75737787  0.11743022  1
  O  O302  1  0.24040462  0.76082997  0.61546079  1
  O  O303  1  0.74377687  0.26256611  0.12834600  1
  O  O304  1  0.75016192  0.25832390  0.61942847  1
  O  O305  1  0.75803035  0.74634268  0.11538205  1
  O  O306  1  0.74873548  0.74275144  0.60904128  1
  O  O307  1  0.25795018  0.24534802  0.38697659  1
  O  O308  1  0.24394823  0.25466225  0.88331517  1
  O  O309  1  0.23935708  0.74327722  0.37718947  1
  O  O310  1  0.23919922  0.74702137  0.88138348  1
  O  O311  1  0.74068894  0.25152638  0.38436430  1
  O  O312  1  0.73173097  0.25132096  0.87162420  1
  O  O313  1  0.74378348  0.74544038  0.38111681  1
  O  O314  1  0.73911877  0.74241708  0.88099190  1
  O  O315  1  0.01475016  0.10838176  -0.00649074  1
  O  O316  1  0.00796550  0.12585662  0.50343558  1
  O  O317  1  0.00508730  0.61158114  -0.00259029  1
  O  O318  1  0.00463829  0.62519961  0.50701353  1
  O  O319  1  0.50039821  0.11471221  0.01243586  1
  O  O320  1  0.49402487  0.11520300  0.50524794  1
  O  O321  1  0.50857628  0.60952647  -0.00227301  1
  O  O322  1  0.50054642  0.61278848  0.49798518  1
  O  O323  1  0.49994839  0.38415016  0.49062038  1
  O  O324  1  0.50085123  0.38629871  0.99096143  1
  O  O325  1  0.49749911  0.88562859  0.48640965  1
  O  O326  1  0.49316883  0.87716832  0.99448083  1
  O  O327  1  0.99417231  0.37414636  0.49228371  1
  O  O328  1  0.99736019  0.38479663  0.99499376  1
  O  O329  1  0.99648350  0.88026636  0.49716935  1
  O  O330  1  1.00354880  0.88520385  0.98751867  1
  O  O331  1  0.50014505  0.49333607  0.38200476  1
  O  O332  1  0.50455030  0.48855969  0.89082197  1
  O  O333  1  0.49773162  0.99711992  0.37854714  1
  O  O334  1  0.50108846  0.98973525  0.88891128  1
  O  O335  1  0.99236763  0.48879143  0.37572662  1
  O  O336  1  0.99190916  0.49325154  0.88098392  1
  O  O337  1  1.01901751  0.99678435  0.36394874  1
  O  O338  1  1.00318113  0.98689990  0.88473115  1
  O  O339  1  0.00793765  -0.00921715  0.10878323  1
  O  O340  1  0.01336064  0.00777980  0.62399308  1
  O  O341  1  0.00231346  0.49890787  0.11692016  1
  O  O342  1  0.00521790  0.51069369  0.62213152  1
  O  O343  1  0.49317666  0.00502217  0.11400075  1
  O  O344  1  0.50329596  0.00849903  0.61314984  1
  O  O345  1  0.51252840  0.48981797  0.11338095  1
  O  O346  1  0.50717948  0.49032201  0.61534449  1
  O  O347  1  0.24281882  0.37587887  0.24272120  1
  O  O348  1  0.24613679  0.36679043  0.73585098  1
  O  O349  1  0.25639445  0.87583107  0.23718992  1
  O  O350  1  0.24605464  0.87628452  0.74351904  1
  O  O351  1  0.73719297  0.37266803  0.24469312  1
  O  O352  1  0.74360895  0.38466334  0.74695906  1
  O  O353  1  0.75609378  0.88846580  0.25137289  1
  O  O354  1  0.75035658  0.87589751  0.74765099  1
  O  O355  1  0.24808975  0.12057927  0.25798629  1
  O  O356  1  0.26747234  0.12328950  0.74159440  1
  O  O357  1  0.24132369  0.61217043  0.25605957  1
  O  O358  1  0.25611547  0.62703846  0.76315803  1
  O  O359  1  0.75637032  0.11371491  0.25737857  1
  O  O360  1  0.76968060  0.12882048  0.74472137  1
  O  O361  1  0.76270446  0.63333032  0.26175343  1
  O  O362  1  0.75674570  0.61075199  0.74614128  1
  O  O363  1  0.36419358  0.11995267  0.37406581  1
  O  O364  1  0.38655062  0.11543119  0.86551635  1
  O  O365  1  0.35667947  0.62151642  0.36536939  1
  O  O366  1  0.36000060  0.61966980  0.87681807  1
  O  O367  1  0.87519749  0.13511943  0.35562482  1
  O  O368  1  0.88181263  0.12200863  0.86054150  1
  O  O369  1  0.87085678  0.61876121  0.37068511  1
  O  O370  1  0.88110795  0.61299598  0.86144194  1
  O  O371  1  0.13339587  0.37724472  0.13127926  1
  O  O372  1  0.13102726  0.38316038  0.62594507  1
  O  O373  1  0.13553632  0.88601351  0.11835148  1
  O  O374  1  0.13107323  0.88280989  0.63059670  1
  O  O375  1  0.63260239  0.38157327  0.13253454  1
  O  O376  1  0.62973880  0.38598526  0.63427507  1
  O  O377  1  0.63343798  0.87359558  0.12654387  1
  O  O378  1  0.62647022  0.89024107  0.62177513  1
  O  O379  1  0.11518314  0.25803813  0.24407454  1
  O  O380  1  0.11862725  0.24758552  0.75631778  1
  O  O381  1  0.11123479  0.74637059  0.25340887  1
  O  O382  1  0.12237258  0.75565759  0.75900632  1
  O  O383  1  0.61892582  0.25841066  0.26041971  1
  O  O384  1  0.62090923  0.26624915  0.74599615  1
  O  O385  1  0.61825130  0.75179066  0.25587847  1
  O  O386  1  0.61721707  0.74726573  0.75524101  1
  O  O387  1  0.38254518  0.24588685  0.24037195  1
  O  O388  1  0.37801759  0.24517274  0.73927901  1
  O  O389  1  0.39298201  0.75082047  0.25324530  1
  O  O390  1  0.37642530  0.72797944  0.75812367  1
  O  O391  1  0.88515431  0.25343800  0.24871967  1
  O  O392  1  0.88565092  0.24199890  0.74912469  1
  O  O393  1  0.88454679  0.74410773  0.24427705  1
  O  O394  1  0.87702550  0.73818307  0.74888001  1
  O  O395  1  0.38185281  0.49656226  0.49510685  1
  O  O396  1  0.38908027  0.50113323  1.00945532  1
  O  O397  1  0.38245043  0.99386281  0.49339921  1
  O  O398  1  0.38346170  0.99290741  0.99480215  1
  O  O399  1  0.87596732  0.49361418  0.48977708  1
  O  O400  1  0.87870929  0.50001754  0.99264588  1
  O  O401  1  0.88201802  0.98947649  0.49885693  1
  O  O402  1  0.88932392  1.00658775  1.00478687  1
  O  O403  1  0.12848165  0.00529544  0.00489011  1
  O  O404  1  0.12438049  0.01322082  0.50699844  1
  O  O405  1  0.11562912  0.50018953  0.00404641  1
  O  O406  1  0.12160981  0.50764713  0.50999664  1
  O  O407  1  0.62195528  -0.00513163  0.00655311  1
  O  O408  1  0.61656742  -0.00006915  0.50981269  1
  O  O409  1  0.62003771  0.50398233  0.01041227  1
  O  O410  1  0.61735324  0.50118882  0.50891163  1
  O  O411  1  0.36784620  0.36053719  0.12895305  1
  O  O412  1  0.36853217  0.36752116  0.62500613  1
  O  O413  1  0.36910465  0.87019075  0.11372841  1
  O  O414  1  0.36243351  0.88445845  0.62025274  1
  O  O415  1  0.85422053  0.38370483  0.12646986  1
  O  O416  1  0.86951038  0.37520488  0.61844738  1
  O  O417  1  0.86863704  0.85903113  0.12344271  1
  O  O418  1  0.88355275  0.87058949  0.60725874  1
  O  O419  1  0.14011627  0.12807259  0.38430299  1
  O  O420  1  0.12471666  0.13379073  0.88011325  1
  O  O421  1  0.13002713  0.63108907  0.37859665  1
  O  O422  1  0.13126811  0.63175274  0.87689778  1
  O  O423  1  0.62661495  0.13805589  0.37396040  1
  O  O424  1  0.60026065  0.15345041  0.86697165  1
  O  O425  1  0.63451024  0.63288206  0.37795062  1
  O  O426  1  0.61701127  0.63118468  0.88178908  1
