# generated using pymatgen
data_V85Zn86O256
_symmetry_space_group_name_H-M   'P 1'
_cell_length_a   16.96241912
_cell_length_b   16.94752382
_cell_length_c   16.96421411
_cell_angle_alpha   90.00760495
_cell_angle_beta   89.96390931
_cell_angle_gamma   89.91635969
_symmetry_Int_Tables_number   1
_chemical_formula_structural   V85Zn86O256
_chemical_formula_sum   'V85 Zn86 O256'
_cell_volume   4876.71342177
_cell_formula_units_Z   1
loop_
 _symmetry_equiv_pos_site_id
 _symmetry_equiv_pos_as_xyz
  1  'x, y, z'
loop_
 _atom_site_type_symbol
 _atom_site_label
 _atom_site_symmetry_multiplicity
 _atom_site_fract_x
 _atom_site_fract_y
 _atom_site_fract_z
 _atom_site_occupancy
  V  V0  1  0.86721356  -0.00412139  0.86323901  1
  V  V1  1  0.50078440  0.37270749  0.38289363  1
  V  V2  1  0.74812577  0.62373524  0.87434088  1
  V  V3  1  0.87560723  0.75458370  0.12638195  1
  V  V4  1  0.49228263  0.12245458  0.12792920  1
  V  V5  1  0.00168151  0.74861159  0.75095197  1
  V  V6  1  0.61700333  0.86849367  0.25232315  1
  V  V7  1  0.37214793  0.87919588  0.50230130  1
  V  V8  1  0.12027476  0.00407208  0.62402103  1
  V  V9  1  0.00000507  0.37758385  0.37696273  1
  V  V10  1  0.25280567  0.74805800  0.00803426  1
  V  V11  1  0.87142769  0.37452665  0.50786816  1
  V  V12  1  -0.00443450  0.25359735  0.23455737  1
  V  V13  1  0.37483107  0.87174539  0.00887803  1
  V  V14  1  0.75151748  0.12451038  0.86280657  1
  V  V15  1  0.63413175  0.87695933  0.74164041  1
  V  V16  1  0.87194553  0.36893885  0.00735913  1
  V  V17  1  0.12554827  0.62210106  0.00006864  1
  V  V18  1  0.37161294  0.25704306  0.12301760  1
  V  V19  1  0.24786442  0.12876445  0.36997880  1
  V  V20  1  0.11510259  0.12829910  0.50342859  1
  V  V21  1  0.37499223  0.00843139  0.36673626  1
  V  V22  1  0.74950175  0.75030355  -0.00014695  1
  V  V23  1  0.62573024  0.50009284  0.12761617  1
  V  V24  1  0.87230381  0.76011110  0.62330573  1
  V  V25  1  0.49987049  0.49789262  0.00176163  1
  V  V26  1  0.74889782  0.48849091  0.74662268  1
  V  V27  1  0.12702307  0.62496888  0.49679691  1
  V  V28  1  0.50549924  0.36880161  0.87324241  1
  V  V29  1  0.25142174  0.00076380  0.74925105  1
  V  V30  1  0.12568683  0.75899959  0.37336953  1
  V  V31  1  0.50079114  -0.00048864  0.00142090  1
  V  V32  1  0.37663167  0.00230080  0.87565255  1
  V  V33  1  0.87247736  0.88616257  -0.00042645  1
  V  V34  1  0.25613185  0.24973536  0.50701550  1
  V  V35  1  0.75291796  0.24505181  0.49910359  1
  V  V36  1  0.63934255  0.61741707  0.49725520  1
  V  V37  1  0.62689012  -0.00057263  0.12751706  1
  V  V38  1  0.62579126  0.37214320  0.25163871  1
  V  V39  1  -0.00168564  0.62688419  0.12712696  1
  V  V40  1  -0.01257359  -0.00234621  0.49972953  1
  V  V41  1  0.25771953  0.37625037  0.62614457  1
  V  V42  1  0.00305928  0.75270042  0.24954346  1
  V  V43  1  0.87617924  0.49592210  0.87718638  1
  V  V44  1  0.62212536  0.62531308  0.00103506  1
  V  V45  1  0.86581140  0.62676552  0.25513549  1
  V  V46  1  0.37704946  0.13246046  0.74348030  1
  V  V47  1  0.49715201  0.24350374  0.25234969  1
  V  V48  1  0.49658274  0.00036000  0.50033670  1
  V  V49  1  0.48200673  0.84843862  0.36428686  1
  V  V50  1  0.63015743  0.12147426  0.49004459  1
  V  V51  1  0.50160269  0.61895330  0.61062589  1
  V  V52  1  0.62430892  0.75032207  0.87231687  1
  V  V53  1  0.37404940  0.62292188  0.74754025  1
  V  V54  1  0.24992762  0.75103055  0.49903199  1
  V  V55  1  0.87183042  0.62454760  0.74941233  1
  V  V56  1  0.63644724  -0.00315066  0.62410617  1
  V  V57  1  0.24950119  0.87521042  0.62552916  1
  V  V58  1  0.26285436  0.50780723  0.24600166  1
  V  V59  1  0.63308366  0.74306697  0.37529721  1
  V  V60  1  0.00272000  0.27753490  0.74785369  1
  V  V61  1  0.19812116  0.45063912  0.79976409  1
  V  V62  1  0.74530751  0.87439301  0.12660066  1
  V  V63  1  -0.00034304  0.87818328  0.87721593  1
  V  V64  1  0.12731626  0.74940657  0.88009681  1
  V  V65  1  0.38169047  0.49955132  0.87005678  1
  V  V66  1  0.62696180  0.48973606  0.62085851  1
  V  V67  1  0.48794171  0.63464143  0.13897194  1
  V  V68  1  0.13404352  0.38074702  0.25101171  1
  V  V69  1  0.75364475  0.76202091  0.50494291  1
  V  V70  1  0.12508144  0.25533085  0.37732079  1
  V  V71  1  0.38008790  0.50223750  0.38353374  1
  V  V72  1  0.75037915  0.00355978  0.26842891  1
  V  V73  1  0.23736462  0.00096042  0.25024997  1
  V  V74  1  0.12820642  0.49721634  0.13019566  1
  V  V75  1  0.24193435  0.13219164  0.88301224  1
  V  V76  1  0.50050479  0.74953064  0.74440098  1
  V  V77  1  0.50005318  0.87485203  0.87259415  1
  V  V78  1  0.86675734  0.50269628  0.37683492  1
  V  V79  1  0.00108351  0.62581544  0.62328184  1
  V  V80  1  0.24033815  0.87823733  0.12953985  1
  V  V81  1  0.74828663  0.24556080  0.00712572  1
  V  V82  1  -0.01525535  0.87562768  0.38205609  1
  V  V83  1  0.13094174  0.49613204  0.62315418  1
  V  V84  1  -0.00378470  0.49470896  0.00115379  1
  Zn  Zn85  1  0.86506280  0.13610962  0.24993658  1
  Zn  Zn86  1  0.37591179  0.74680548  0.62123888  1
  Zn  Zn87  1  0.62974842  0.12283369  0.00010875  1
  Zn  Zn88  1  0.62597599  0.24600368  0.87131375  1
  Zn  Zn89  1  0.38346389  0.37033194  0.50700408  1
  Zn  Zn90  1  0.25645243  0.62786990  0.37014225  1
  Zn  Zn91  1  0.11932659  0.26945233  0.86669025  1
  Zn  Zn92  1  0.07054037  0.93113596  0.20965370  1
  Zn  Zn93  1  -0.00035067  0.50012670  0.49995546  1
  Zn  Zn94  1  0.49826755  0.12985603  0.61942566  1
  Zn  Zn95  1  0.07021460  0.07478386  0.05530773  1
  Zn  Zn96  1  0.88091063  0.23937326  0.62354200  1
  Zn  Zn97  1  0.36662051  0.37388626  0.00307496  1
  Zn  Zn98  1  0.62986406  0.36525300  0.74440541  1
  Zn  Zn99  1  0.74704988  0.50159107  0.25396476  1
  Zn  Zn100  1  0.25286223  0.62659610  0.87198543  1
  Zn  Zn101  1  0.12773436  0.87215219  0.75006756  1
  Zn  Zn102  1  0.50348754  0.25192340  0.73874653  1
  Zn  Zn103  1  0.63477278  0.24160069  0.36905238  1
  Zn  Zn104  1  0.75062966  0.36776783  0.13145249  1
  Zn  Zn105  1  0.21383527  0.24187194  0.03016762  1
  Zn  Zn106  1  0.88876832  0.11751123  0.73503360  1
  Zn  Zn107  1  0.17214182  0.18272915  0.19274907  1
  Zn  Zn108  1  0.18148905  0.19087202  0.69060027  1
  Zn  Zn109  1  0.18782041  0.68652200  0.18690435  1
  Zn  Zn110  1  0.18906828  0.68623921  0.68601108  1
  Zn  Zn111  1  0.68702170  0.18077487  0.18649738  1
  Zn  Zn112  1  0.68848517  0.18686624  0.68053384  1
  Zn  Zn113  1  0.68243556  0.68672725  0.18791081  1
  Zn  Zn114  1  0.68731399  0.68324213  0.68310278  1
  Zn  Zn115  1  0.31561204  0.31399532  0.31089598  1
  Zn  Zn116  1  0.31807810  0.30996000  0.82208362  1
  Zn  Zn117  1  0.31111666  0.81675489  0.31359636  1
  Zn  Zn118  1  0.31514647  0.81230063  0.81481998  1
  Zn  Zn119  1  0.81340928  0.31262344  0.31815656  1
  Zn  Zn120  1  0.82044122  0.30758575  0.81671839  1
  Zn  Zn121  1  0.80833989  0.81615143  0.31265599  1
  Zn  Zn122  1  0.81200834  0.81043262  0.80974128  1
  Zn  Zn123  1  0.19471504  0.43916018  0.43808525  1
  Zn  Zn124  1  0.16088879  0.39712500  0.98254691  1
  Zn  Zn125  1  0.18357022  0.94226996  0.43625167  1
  Zn  Zn126  1  0.19161351  0.93870822  0.93493037  1
  Zn  Zn127  1  0.68912435  0.43129939  0.43833532  1
  Zn  Zn128  1  0.68868938  0.43571335  0.93777803  1
  Zn  Zn129  1  0.67902819  0.92940086  0.43872987  1
  Zn  Zn130  1  0.68682310  0.93946264  0.93521795  1
  Zn  Zn131  1  0.30866772  0.06344700  0.06508727  1
  Zn  Zn132  1  0.30636639  0.06529305  0.56070817  1
  Zn  Zn133  1  0.31366242  0.56094333  0.06093462  1
  Zn  Zn134  1  0.31254562  0.56051306  0.56062053  1
  Zn  Zn135  1  0.87248873  0.11362250  0.03351660  1
  Zn  Zn136  1  0.81089986  0.06358118  0.56068419  1
  Zn  Zn137  1  0.81000943  0.56372333  0.06654259  1
  Zn  Zn138  1  0.81279707  0.56272678  0.56433535  1
  Zn  Zn139  1  0.44313726  0.43653232  0.19121489  1
  Zn  Zn140  1  0.44329273  0.43648208  0.68727509  1
  Zn  Zn141  1  0.43228002  0.93827598  0.18891791  1
  Zn  Zn142  1  0.44082072  0.94013010  0.68589497  1
  Zn  Zn143  1  0.93926731  0.43650811  0.18836070  1
  Zn  Zn144  1  0.93611872  0.44225370  0.68287856  1
  Zn  Zn145  1  0.90556651  0.98962601  0.15543639  1
  Zn  Zn146  1  0.94052988  0.93599691  0.68576938  1
  Zn  Zn147  1  0.02922203  0.08230301  0.32641670  1
  Zn  Zn148  1  0.06555548  0.05730945  0.81226924  1
  Zn  Zn149  1  0.05949063  0.56511950  0.31458439  1
  Zn  Zn150  1  0.05733654  0.56510288  0.81678522  1
  Zn  Zn151  1  0.55871536  0.05637825  0.31225494  1
  Zn  Zn152  1  0.56551885  0.06273035  0.80972619  1
  Zn  Zn153  1  0.56042671  0.56209536  0.31507239  1
  Zn  Zn154  1  0.56285107  0.56086626  0.80763614  1
  Zn  Zn155  1  0.43809811  0.18723610  0.43795296  1
  Zn  Zn156  1  0.43843649  0.18441748  0.93875901  1
  Zn  Zn157  1  0.43419524  0.69228967  0.42518715  1
  Zn  Zn158  1  0.43825806  0.68621357  0.93924044  1
  Zn  Zn159  1  0.93163682  0.18740312  0.42991584  1
  Zn  Zn160  1  0.96372138  0.17034619  0.89024329  1
  Zn  Zn161  1  0.93606568  0.68801228  0.43840311  1
  Zn  Zn162  1  0.93685386  0.68777039  0.94040853  1
  Zn  Zn163  1  0.03935265  0.23464828  0.04298490  1
  Zn  Zn164  1  0.06220404  0.31379339  0.56714886  1
  Zn  Zn165  1  0.06097315  0.90815483  0.05026461  1
  Zn  Zn166  1  0.06272653  0.81465526  0.56284819  1
  Zn  Zn167  1  0.56394163  0.30984320  0.06213818  1
  Zn  Zn168  1  0.56583550  0.30372919  0.56327542  1
  Zn  Zn169  1  0.55907000  0.81003329  0.06327768  1
  Zn  Zn170  1  0.56129855  0.80975948  0.55605101  1
  O  O171  1  0.13003795  0.16701545  0.09072789  1
  O  O172  1  0.13272622  0.11415780  0.61714685  1
  O  O173  1  0.11806414  0.61849996  0.11949055  1
  O  O174  1  0.12384362  0.61932669  0.61492709  1
  O  O175  1  0.61533483  0.11323321  0.12210073  1
  O  O176  1  0.62384071  0.10976723  0.61360527  1
  O  O177  1  0.61659227  0.61834253  0.11912922  1
  O  O178  1  0.61966884  0.61608434  0.61542759  1
  O  O179  1  0.38396488  0.38093373  0.37788595  1
  O  O180  1  0.38811217  0.38253362  0.87703596  1
  O  O181  1  0.36912227  0.89367942  0.38981700  1
  O  O182  1  0.37977938  0.88549882  0.88201196  1
  O  O183  1  0.88381517  0.38400564  0.38174968  1
  O  O184  1  0.86543793  0.39042258  0.89033568  1
  O  O185  1  0.88670415  0.86782170  0.37979581  1
  O  O186  1  0.87770237  0.87639158  0.87846708  1
  O  O187  1  0.25498581  0.00934724  0.37143115  1
  O  O188  1  0.25965647  0.00567546  0.86763076  1
  O  O189  1  0.26423256  0.50170621  0.36803883  1
  O  O190  1  0.26087467  0.50316918  0.86444675  1
  O  O191  1  0.73888758  -0.00745133  0.36654009  1
  O  O192  1  0.75599080  0.00957116  0.87610358  1
  O  O193  1  0.76303879  0.49573134  0.37326140  1
  O  O194  1  0.75427794  0.50734484  0.86900270  1
  O  O195  1  0.24236874  0.50625541  0.13415652  1
  O  O196  1  0.24314491  0.49353627  0.62405098  1
  O  O197  1  0.25239047  0.99376599  0.13750403  1
  O  O198  1  0.24255276  0.99510878  0.63186327  1
  O  O199  1  0.73410393  0.50188598  0.12850936  1
  O  O200  1  0.74201067  0.50589875  0.63658051  1
  O  O201  1  0.73161149  0.98925576  0.13378745  1
  O  O202  1  0.73419221  0.99379380  0.61616319  1
  O  O203  1  0.01052914  0.37571361  0.25907175  1
  O  O204  1  0.00550456  0.37766970  0.74365985  1
  O  O205  1  0.00074407  0.86140185  0.26716441  1
  O  O206  1  0.00197770  0.86071962  0.75687703  1
  O  O207  1  0.51103596  0.36656341  0.25801187  1
  O  O208  1  0.50449074  0.37231111  0.75989454  1
  O  O209  1  0.50701421  0.88064408  0.25687142  1
  O  O210  1  0.50430005  0.86706052  0.75331280  1
  O  O211  1  0.50509275  0.13161289  0.24245543  1
  O  O212  1  0.48472259  0.12040989  0.74976418  1
  O  O213  1  0.50194785  0.62270243  0.23773250  1
  O  O214  1  0.49448501  0.63288672  0.74113371  1
  O  O215  1  1.02537738  0.15537164  0.23392194  1
  O  O216  1  0.99219240  0.13443481  0.78150704  1
  O  O217  1  0.99025175  0.63501923  0.24821110  1
  O  O218  1  0.99482775  0.63433439  0.74599416  1
  O  O219  1  0.38775547  0.24956669  0.01938946  1
  O  O220  1  0.35946752  0.24923539  0.49732854  1
  O  O221  1  0.36507136  0.76030008  -0.00970255  1
  O  O222  1  0.36737208  0.76096841  0.49897174  1
  O  O223  1  0.86748994  0.26765023  -0.00004764  1
  O  O224  1  0.87025006  0.25555778  0.49777064  1
  O  O225  1  0.86579220  0.75481896  0.00691524  1
  O  O226  1  0.86150337  0.74270409  0.50813558  1
  O  O227  1  0.13137089  0.24541966  0.49664988  1
  O  O228  1  0.11617453  0.28734887  0.97915660  1
  O  O229  1  0.13041351  0.74373600  0.49529941  1
  O  O230  1  0.13523372  0.74327232  0.98811666  1
  O  O231  1  0.63672527  0.23903152  0.49587499  1
  O  O232  1  0.63445695  0.24562949  0.99451817  1
  O  O233  1  0.64150860  0.74081046  0.50256578  1
  O  O234  1  0.62969957  0.74647860  0.99273714  1
  O  O235  1  0.49805723  0.24024315  0.13288864  1
  O  O236  1  0.49735174  0.24320856  0.62489592  1
  O  O237  1  0.49970307  0.73389007  0.12082963  1
  O  O238  1  0.49841677  0.74199684  0.62973193  1
  O  O239  1  0.99445276  0.27816280  0.13854883  1
  O  O240  1  1.00006970  0.25413767  0.63937307  1
  O  O241  1  0.99122289  0.74558403  0.13800771  1
  O  O242  1  0.99702667  0.74507548  0.63257706  1
  O  O243  1  0.00752002  0.26651239  0.37043461  1
  O  O244  1  -0.00068461  0.27282851  0.85730146  1
  O  O245  1  0.00547592  0.75786900  0.37422671  1
  O  O246  1  0.00666626  0.75180910  0.86838878  1
  O  O247  1  0.50215780  0.25450739  0.36735731  1
  O  O248  1  0.50195619  0.25738554  0.87491841  1
  O  O249  1  0.52812084  0.75504450  0.40678197  1
  O  O250  1  0.50587432  0.75399800  0.86644749  1
  O  O251  1  0.23921646  0.13157956  0.49169822  1
  O  O252  1  0.26183908  0.13259731  0.98513185  1
  O  O253  1  0.24381161  0.63240293  0.49700613  1
  O  O254  1  0.24493070  0.63177904  0.99783773  1
  O  O255  1  0.74263304  0.13109622  0.49551895  1
  O  O256  1  0.75896027  0.13565244  0.99288790  1
  O  O257  1  0.74197203  0.63147929  0.50221135  1
  O  O258  1  0.74184285  0.63037355  0.99541859  1
  O  O259  1  0.25834423  0.34799644  0.00147141  1
  O  O260  1  0.25181578  0.36645261  0.50974515  1
  O  O261  1  0.25671397  0.86879550  0.00786146  1
  O  O262  1  0.25443306  0.87329705  0.50464088  1
  O  O263  1  0.75624128  0.36858721  0.00355401  1
  O  O264  1  0.76020702  0.36102765  0.49494348  1
  O  O265  1  0.75414232  0.86940075  0.00365897  1
  O  O266  1  0.74538856  0.86060475  0.50351998  1
  O  O267  1  0.13229798  0.50040578  0.24802723  1
  O  O268  1  0.13450253  0.51235674  0.74342094  1
  O  O269  1  0.13609345  1.00444016  0.26565947  1
  O  O270  1  0.13443378  0.99684444  0.74263423  1
  O  O271  1  0.62466972  0.49213884  0.24440974  1
  O  O272  1  0.63430925  0.49825754  0.74107359  1
  O  O273  1  0.62747542  0.98932159  0.24549101  1
  O  O274  1  0.61866299  0.99243192  0.73253957  1
  O  O275  1  0.36594154  -0.00053175  0.26313450  1
  O  O276  1  0.36950078  0.00352781  0.75788966  1
  O  O277  1  0.36645142  0.49088207  0.25831205  1
  O  O278  1  0.38669896  0.50894157  0.76191106  1
  O  O279  1  0.84774987  -0.02019666  0.25608124  1
  O  O280  1  0.87696176  -0.00485817  0.75978038  1
  O  O281  1  0.87396061  0.50879277  0.25761737  1
  O  O282  1  0.86866933  0.50442298  0.75724104  1
  O  O283  1  0.11983556  0.37688626  0.37170656  1
  O  O284  1  0.13773133  0.40134445  0.86127874  1
  O  O285  1  0.12241609  0.86155400  0.37989306  1
  O  O286  1  0.11706373  0.86493812  0.87233960  1
  O  O287  1  0.61800664  0.37233179  0.36739729  1
  O  O288  1  0.61428826  0.37543750  0.87394750  1
  O  O289  1  0.61130600  0.86523724  0.36701163  1
  O  O290  1  0.61784850  0.87080206  0.86583723  1
  O  O291  1  0.38844181  0.12855170  0.12348279  1
  O  O292  1  0.37112776  0.11643312  0.64145819  1
  O  O293  1  0.38948971  0.61883137  0.12306327  1
  O  O294  1  0.38435825  0.62273243  0.62925838  1
  O  O295  1  0.87302321  0.09778567  0.14313456  1
  O  O296  1  0.87640879  0.12413725  0.62496322  1
  O  O297  1  0.87998930  0.63173024  0.13313180  1
  O  O298  1  0.88280010  0.62996856  0.63210498  1
  O  O299  1  0.27227766  0.23986698  0.13762661  1
  O  O300  1  0.24236903  0.26121425  0.61844269  1
  O  O301  1  0.24828218  0.75596671  0.11430725  1
  O  O302  1  0.25330719  0.75776012  0.61918928  1
  O  O303  1  0.74489155  0.24909780  0.11309005  1
  O  O304  1  0.75481210  0.24596545  0.60563760  1
  O  O305  1  0.75336135  0.75610190  0.12108467  1
  O  O306  1  0.75888629  0.74491720  0.61546558  1
  O  O307  1  0.24448258  0.24591485  0.37999513  1
  O  O308  1  0.24278965  0.23527828  0.86488584  1
  O  O309  1  0.24178367  0.74775490  0.37884222  1
  O  O310  1  0.24280675  0.75076310  0.88235196  1
  O  O311  1  0.75097702  0.24810636  0.38839449  1
  O  O312  1  0.75161385  0.23776219  0.88235559  1
  O  O313  1  0.74180373  0.75428455  0.38825322  1
  O  O314  1  0.74337022  0.74355989  0.87872217  1
  O  O315  1  -0.01745529  0.14088764  -0.00020414  1
  O  O316  1  0.01156311  0.11728304  0.49564212  1
  O  O317  1  0.00526399  0.61849308  0.00701550  1
  O  O318  1  0.00924472  0.62517012  0.50629271  1
  O  O319  1  0.50337095  0.11420809  0.00706773  1
  O  O320  1  0.50543997  0.11487997  0.49850938  1
  O  O321  1  0.50501478  0.61322918  0.00254683  1
  O  O322  1  0.50743815  0.62953881  0.50934245  1
  O  O323  1  0.50216636  0.36710197  0.48640582  1
  O  O324  1  0.50095065  0.38695807  0.99555346  1
  O  O325  1  0.48778060  0.87922552  0.49087978  1
  O  O326  1  0.49222234  0.87874808  0.99457989  1
  O  O327  1  0.99415270  0.37744319  0.49265545  1
  O  O328  1  0.98204100  0.39230042  1.00432605  1
  O  O329  1  1.00247138  0.87967010  0.49022173  1
  O  O330  1  0.98258801  0.85770038  0.98678347  1
  O  O331  1  0.48714186  0.48889762  0.36799592  1
  O  O332  1  0.49725519  0.49540888  0.88213676  1
  O  O333  1  0.48908384  0.99163582  0.38267916  1
  O  O334  1  0.49398246  0.99585833  0.87950142  1
  O  O335  1  0.99299996  0.49147942  0.37686896  1
  O  O336  1  0.98749439  0.50810536  0.88684295  1
  O  O337  1  1.00977625  0.98057598  0.38503450  1
  O  O338  1  0.99276643  0.98155113  0.87007392  1
  O  O339  1  0.01551836  -0.01241910  0.12591592  1
  O  O340  1  0.01374653  -0.00943130  0.61680457  1
  O  O341  1  0.00499801  0.50916218  0.12165772  1
  O  O342  1  0.01101795  0.50969174  0.62324364  1
  O  O343  1  0.50528549  0.00319561  0.12331721  1
  O  O344  1  0.50178219  0.00215721  0.60965833  1
  O  O345  1  0.50866796  0.50465202  0.11892312  1
  O  O346  1  0.51254655  0.50895206  0.62877109  1
  O  O347  1  0.23938377  0.38675534  0.25705362  1
  O  O348  1  0.25341250  0.37865419  0.74793067  1
  O  O349  1  0.25604626  0.88407151  0.24117464  1
  O  O350  1  0.25258460  0.88590477  0.74697330  1
  O  O351  1  0.73806359  0.37442578  0.25054272  1
  O  O352  1  0.75080250  0.38604812  0.75795939  1
  O  O353  1  0.73261893  0.87644297  0.24681891  1
  O  O354  1  0.73287726  0.86650459  0.75008877  1
  O  O355  1  0.24170063  0.12073911  0.26356746  1
  O  O356  1  0.25835365  0.11586238  0.75648415  1
  O  O357  1  0.24822411  0.61388666  0.25332860  1
  O  O358  1  0.27034293  0.63449620  0.74950801  1
  O  O359  1  0.74524058  0.10883374  0.25524275  1
  O  O360  1  0.75568241  0.12976254  0.76159860  1
  O  O361  1  0.76226720  0.62552269  0.24679751  1
  O  O362  1  0.75404386  0.61898070  0.75615244  1
  O  O363  1  0.36196569  0.11849021  0.38162011  1
  O  O364  1  0.36927071  0.11601770  0.86746914  1
  O  O365  1  0.37674024  0.60667069  0.37856274  1
  O  O366  1  0.37730575  0.61715523  0.86719266  1
  O  O367  1  0.91913829  0.11441584  0.34863608  1
  O  O368  1  0.86195639  0.11048457  0.87666462  1
  O  O369  1  0.88199134  0.61572336  0.36695995  1
  O  O370  1  0.86840967  0.61821076  0.87027394  1
  O  O371  1  0.12274994  0.39408864  0.13753852  1
  O  O372  1  0.13484188  0.39100326  0.62078356  1
  O  O373  1  0.13746735  0.86785120  0.13165001  1
  O  O374  1  0.13359802  0.88122287  0.62823029  1
  O  O375  1  0.62405097  0.38257666  0.13361709  1
  O  O376  1  0.62312825  0.38647872  0.62309900  1
  O  O377  1  0.62340376  0.87720699  0.13330952  1
  O  O378  1  0.61455201  0.88657656  0.62848458  1
  O  O379  1  0.12206853  0.26769676  0.25858972  1
  O  O380  1  0.11012526  0.25220333  0.75271653  1
  O  O381  1  0.11414095  0.74015287  0.26098747  1
  O  O382  1  0.11930152  0.74644820  0.76015938  1
  O  O383  1  0.61752887  0.25454786  0.25011712  1
  O  O384  1  0.62393413  0.24837327  0.75228353  1
  O  O385  1  0.62740943  0.75463707  0.26288706  1
  O  O386  1  0.61523306  0.75328524  0.74962590  1
  O  O387  1  0.39054373  0.25469617  0.24213123  1
  O  O388  1  0.37597291  0.23390298  0.75542501  1
  O  O389  1  0.41499302  0.77249788  0.32443054  1
  O  O390  1  0.38770528  0.74598811  0.74837840  1
  O  O391  1  0.89088169  0.25508348  0.25351896  1
  O  O392  1  0.88931422  0.25619889  0.74406121  1
  O  O393  1  0.87877314  0.74595015  0.24703089  1
  O  O394  1  0.88235249  0.74339567  0.74501436  1
  O  O395  1  0.37243607  0.49253194  0.48652468  1
  O  O396  1  0.38271683  0.49812327  0.98852307  1
  O  O397  1  0.37881895  0.99803679  0.49606858  1
  O  O398  1  0.37844146  0.99325904  0.99299957  1
  O  O399  1  0.87582958  0.49422604  0.49395523  1
  O  O400  1  0.87691476  0.50185255  0.99384900  1
  O  O401  1  0.88878486  0.99964366  0.50222973  1
  O  O402  1  0.87453916  0.98809675  0.98613504  1
  O  O403  1  0.11857464  -0.00986233  -0.00163134  1
  O  O404  1  0.12109763  0.00875483  0.50777272  1
  O  O405  1  0.11454244  0.49962684  0.01070802  1
  O  O406  1  0.12644687  0.50905227  0.50586512  1
  O  O407  1  0.61792035  -0.00402873  0.01042700  1
  O  O408  1  0.61566759  0.00074322  0.50559391  1
  O  O409  1  0.61855161  0.50394559  0.00735679  1
  O  O410  1  0.63355846  0.50606147  0.50681301  1
  O  O411  1  0.38498654  0.36098877  0.12526189  1
  O  O412  1  0.36277521  0.38337094  0.62475415  1
  O  O413  1  0.36796473  0.87799198  0.11321356  1
  O  O414  1  0.37006723  0.87709544  0.61470771  1
  O  O415  1  0.86573237  0.39070723  0.11094684  1
  O  O416  1  0.87723997  0.37694003  0.60940678  1
  O  O417  1  0.86488765  0.87686137  0.11490968  1
  O  O418  1  0.87857023  0.85907829  0.62933826  1
  O  O419  1  0.12749351  0.13528928  0.38417806  1
  O  O420  1  0.14288246  0.11758253  0.87686510  1
  O  O421  1  0.12316301  0.63216263  0.38768622  1
  O  O422  1  0.12892873  0.63034612  0.88205575  1
  O  O423  1  0.61755145  0.12101563  0.38704917  1
  O  O424  1  0.64000664  0.11923592  0.87852290  1
  O  O425  1  0.62303239  0.62899194  0.38535556  1
  O  O426  1  0.62729440  0.63055036  0.87978799  1
