# generated using pymatgen
data_V85Zn86O256
_symmetry_space_group_name_H-M   'P 1'
_cell_length_a   16.92566137
_cell_length_b   16.92402506
_cell_length_c   16.92607663
_cell_angle_alpha   90.00711600
_cell_angle_beta   90.00429915
_cell_angle_gamma   90.00014525
_symmetry_Int_Tables_number   1
_chemical_formula_structural   V85Zn86O256
_chemical_formula_sum   'V85 Zn86 O256'
_cell_volume   4848.47996680
_cell_formula_units_Z   1
loop_
 _symmetry_equiv_pos_site_id
 _symmetry_equiv_pos_as_xyz
  1  'x, y, z'
loop_
 _atom_site_type_symbol
 _atom_site_label
 _atom_site_symmetry_multiplicity
 _atom_site_fract_x
 _atom_site_fract_y
 _atom_site_fract_z
 _atom_site_occupancy
  V  V0  1  0.62288925  0.14015829  0.49688486  1
  V  V1  1  0.37987003  0.74498868  0.62104139  1
  V  V2  1  0.75278967  0.14011039  0.38273554  1
  V  V3  1  0.12654151  0.87382311  0.75213515  1
  V  V4  1  0.62564749  0.35858601  0.25553601  1
  V  V5  1  0.62396018  0.74727155  0.37467079  1
  V  V6  1  0.37763654  0.88189575  0.50186317  1
  V  V7  1  0.12493455  0.37985573  0.26375423  1
  V  V8  1  0.13479519  0.38252229  0.74922267  1
  V  V9  1  0.62501336  0.24851841  0.87301341  1
  V  V10  1  0.01057001  0.62412155  0.62159739  1
  V  V11  1  0.37748312  0.00129526  0.36761395  1
  V  V12  1  0.37007894  0.50040275  0.87371456  1
  V  V13  1  0.87543664  0.12472471  0.74836957  1
  V  V14  1  0.87633131  0.49868767  0.36708889  1
  V  V15  1  0.87177244  0.25014234  0.61961263  1
  V  V16  1  0.75015311  0.61798788  0.36975458  1
  V  V17  1  0.49726923  0.00479028  -0.00438059  1
  V  V18  1  0.75141499  0.75064237  0.00288390  1
  V  V19  1  0.62537432  0.87309730  0.24977718  1
  V  V20  1  0.50181155  0.87905342  0.38047253  1
  V  V21  1  -0.01509639  0.74989275  0.22747862  1
  V  V22  1  0.00635034  0.25332450  0.26931420  1
  V  V23  1  0.25514667  0.00510840  0.75322082  1
  V  V24  1  0.50173361  0.75100436  0.25031840  1
  V  V25  1  0.87617394  0.74911925  0.62325045  1
  V  V26  1  0.50132288  0.36225779  0.37180121  1
  V  V27  1  0.24655264  0.62270666  0.37750795  1
  V  V28  1  0.25140879  0.87479419  0.62501827  1
  V  V29  1  0.62305847  0.87577964  0.75100008  1
  V  V30  1  0.24089651  0.75148769  -0.00543258  1
  V  V31  1  0.75022099  0.74619535  0.50055258  1
  V  V32  1  0.49667014  0.49452699  0.49878234  1
  V  V33  1  0.37457899  0.24953465  0.61614628  1
  V  V34  1  0.87459932  0.62328881  0.74868655  1
  V  V35  1  0.49048450  0.13361786  0.14254933  1
  V  V36  1  0.25501393  0.13289596  0.37065300  1
  V  V37  1  0.49825111  0.74389578  0.75016057  1
  V  V38  1  0.00537685  0.87212147  0.87673988  1
  V  V39  1  0.62034753  -0.00179788  0.61412492  1
  V  V40  1  0.61995382  0.50316607  0.62573664  1
  V  V41  1  0.87586252  -0.00070453  0.87506016  1
  V  V42  1  0.24158828  0.62553974  0.87375058  1
  V  V43  1  0.75014156  0.37556539  0.12970092  1
  V  V44  1  0.62647909  0.37434396  0.74820767  1
  V  V45  1  0.00454133  0.74919636  0.75484743  1
  V  V46  1  0.87918913  0.37672327  0.49545494  1
  V  V47  1  0.37617508  0.49118519  0.37426829  1
  V  V48  1  0.74873882  -0.00108008  0.75007776  1
  V  V49  1  0.23899714  -0.00391157  0.25640462  1
  V  V50  1  0.00338828  0.25169614  0.74928480  1
  V  V51  1  0.75746809  0.87695912  0.12471769  1
  V  V52  1  0.12570613  0.00275006  0.62157516  1
  V  V53  1  0.87884422  0.11989885  0.25569422  1
  V  V54  1  0.32148148  0.31395754  0.08365754  1
  V  V55  1  0.12051467  0.75233585  0.35769148  1
  V  V56  1  0.87875056  0.87800292  0.49039501  1
  V  V57  1  0.00360887  0.13468392  0.12646998  1
  V  V58  1  0.00841013  0.50145581  0.49637156  1
  V  V59  1  0.61862421  0.61941731  -0.00161503  1
  V  V60  1  0.49566215  0.37505431  0.87355167  1
  V  V61  1  0.62555238  0.49843815  0.13361827  1
  V  V62  1  0.24304311  0.87254443  0.13326700  1
  V  V63  1  0.13996607  0.24423042  0.87989165  1
  V  V64  1  0.12871329  0.13743837  0.49479141  1
  V  V65  1  0.74564650  0.62357274  0.87305627  1
  V  V66  1  0.00302861  0.50166433  0.00732648  1
  V  V67  1  0.61682999  0.62455384  0.50297917  1
  V  V68  1  0.62371619  0.00314686  0.12600069  1
  V  V69  1  0.75148664  0.24798522  -0.00121125  1
  V  V70  1  0.47038167  0.46871809  0.02148891  1
  V  V71  1  0.37404901  0.87827234  -0.00556000  1
  V  V72  1  0.87710206  0.37273948  -0.00271028  1
  V  V73  1  0.00383892  0.37506870  0.87524876  1
  V  V74  1  0.00028546  0.00405400  0.00438708  1
  V  V75  1  0.00226112  0.12595241  0.62362518  1
  V  V76  1  0.37558408  0.62228922  0.25030763  1
  V  V77  1  0.50273840  0.62792519  0.12457883  1
  V  V78  1  0.37095915  0.62039925  0.74610398  1
  V  V79  1  0.75313429  -0.00117144  0.26260336  1
  V  V80  1  0.37677794  0.12658069  0.75577619  1
  V  V81  1  0.74821124  0.37195503  0.61847787  1
  V  V82  1  0.37435882  0.75182689  0.12393163  1
  V  V83  1  0.25663439  0.38158161  0.61755848  1
  V  V84  1  0.23945344  0.74712042  0.50031173  1
  Zn  Zn85  1  0.25443168  0.25899658  0.48814705  1
  Zn  Zn86  1  0.87517123  0.24933836  0.13007072  1
  Zn  Zn87  1  0.14197720  0.13073018  0.00512959  1
  Zn  Zn88  1  0.11644928  0.63094532  0.00346350  1
  Zn  Zn89  1  0.25073805  0.49499317  0.24653069  1
  Zn  Zn90  1  0.87725866  0.86976600  0.00261846  1
  Zn  Zn91  1  0.50013757  0.24724866  0.74613103  1
  Zn  Zn92  1  0.74818346  0.49979438  0.74866098  1
  Zn  Zn93  1  -0.00369645  0.00208811  0.49352675  1
  Zn  Zn94  1  0.75229548  0.87406775  0.62568502  1
  Zn  Zn95  1  0.00647796  0.88094031  0.36428250  1
  Zn  Zn96  1  0.62221154  0.12653809  0.00236899  1
  Zn  Zn97  1  0.62005029  0.75046285  0.87546951  1
  Zn  Zn98  1  0.13121741  0.50066370  0.12958379  1
  Zn  Zn99  1  0.88672158  0.61240578  0.22978945  1
  Zn  Zn100  1  0.87339056  0.49768997  0.87120699  1
  Zn  Zn101  1  0.31762899  0.05910761  0.91840183  1
  Zn  Zn102  1  0.13281568  0.50417818  0.62458427  1
  Zn  Zn103  1  0.49499522  0.87880844  0.87311433  1
  Zn  Zn104  1  0.74991351  0.12410147  0.87598733  1
  Zn  Zn105  1  0.12127858  -0.00077819  0.13109601  1
  Zn  Zn106  1  0.49685750  0.12164824  0.61961341  1
  Zn  Zn107  1  0.18685520  0.18510954  0.19469852  1
  Zn  Zn108  1  0.19247293  0.19239037  0.68840554  1
  Zn  Zn109  1  0.18559622  0.67822266  0.18363129  1
  Zn  Zn110  1  0.19056546  0.69006472  0.69072831  1
  Zn  Zn111  1  0.68983894  0.18466065  0.18864916  1
  Zn  Zn112  1  0.68836921  0.18538852  0.68520956  1
  Zn  Zn113  1  0.72420864  0.66742257  0.16705476  1
  Zn  Zn114  1  0.68579876  0.68697990  0.68631168  1
  Zn  Zn115  1  0.31891328  0.30954499  0.29301485  1
  Zn  Zn116  1  0.31504842  0.31371440  0.80738080  1
  Zn  Zn117  1  0.31334276  0.81067272  0.31433541  1
  Zn  Zn118  1  0.31185935  0.81156234  0.81270643  1
  Zn  Zn119  1  0.81610526  0.31333567  0.31092565  1
  Zn  Zn120  1  0.81227377  0.31227930  0.80864579  1
  Zn  Zn121  1  0.81178699  0.80652748  0.31143894  1
  Zn  Zn122  1  0.81216907  0.81068370  0.81411774  1
  Zn  Zn123  1  0.18327500  0.43479040  0.43238085  1
  Zn  Zn124  1  0.19532323  0.43179801  0.94389001  1
  Zn  Zn125  1  0.18724220  0.93689857  0.43791981  1
  Zn  Zn126  1  0.18502867  0.94067981  0.94297371  1
  Zn  Zn127  1  0.68877491  0.43483156  0.43678740  1
  Zn  Zn128  1  0.68298852  0.43825642  0.94081430  1
  Zn  Zn129  1  0.69236916  0.93324457  0.43948069  1
  Zn  Zn130  1  0.68494997  0.93828473  0.93739516  1
  Zn  Zn131  1  0.31287337  0.06741817  0.08406710  1
  Zn  Zn132  1  0.31170646  0.06544740  0.56145542  1
  Zn  Zn133  1  0.30406118  0.56373184  0.06492839  1
  Zn  Zn134  1  0.31487029  0.56157936  0.55895394  1
  Zn  Zn135  1  0.81524061  0.06254179  0.06641927  1
  Zn  Zn136  1  0.80797442  0.06052177  0.56271699  1
  Zn  Zn137  1  0.81357716  0.55546340  0.05688043  1
  Zn  Zn138  1  0.81080863  0.55962562  0.55911779  1
  Zn  Zn139  1  0.42746324  0.41868936  0.19191251  1
  Zn  Zn140  1  0.43687264  0.43672082  0.68775604  1
  Zn  Zn141  1  0.43688187  0.93934519  0.18575352  1
  Zn  Zn142  1  0.43860775  0.93875896  0.68795693  1
  Zn  Zn143  1  0.94555838  0.42762039  0.18495037  1
  Zn  Zn144  1  0.93998301  0.43836086  0.68539282  1
  Zn  Zn145  1  0.93958848  0.93719034  0.19182306  1
  Zn  Zn146  1  0.93950679  0.93672069  0.68523489  1
  Zn  Zn147  1  0.06323920  0.06288305  0.31967254  1
  Zn  Zn148  1  0.06467978  0.06254989  0.81221891  1
  Zn  Zn149  1  0.06050445  0.56986208  0.31325767  1
  Zn  Zn150  1  0.06157967  0.55981023  0.81359233  1
  Zn  Zn151  1  0.56721609  0.06179833  0.31841842  1
  Zn  Zn152  1  0.55991600  0.06435583  0.81117362  1
  Zn  Zn153  1  0.56289230  0.55903637  0.31247585  1
  Zn  Zn154  1  0.55547558  0.55940089  0.81425449  1
  Zn  Zn155  1  0.43873079  0.18336088  0.43765897  1
  Zn  Zn156  1  0.43836858  0.19511334  0.94772502  1
  Zn  Zn157  1  0.43541635  0.68617266  0.43787143  1
  Zn  Zn158  1  0.43262016  0.68830794  0.93517103  1
  Zn  Zn159  1  0.93374300  0.18208948  0.44186175  1
  Zn  Zn160  1  0.94222658  0.18854937  0.93711945  1
  Zn  Zn161  1  0.93945477  0.68340365  0.43421799  1
  Zn  Zn162  1  0.93332627  0.68656695  0.93688254  1
  Zn  Zn163  1  0.15225062  0.31747071  0.07390720  1
  Zn  Zn164  1  0.06415499  0.31680006  0.56184655  1
  Zn  Zn165  1  0.06289745  0.81472538  0.06298386  1
  Zn  Zn166  1  0.06113069  0.81290614  0.56446639  1
  Zn  Zn167  1  0.56496965  0.30649998  0.06520026  1
  Zn  Zn168  1  0.55807718  0.31364062  0.56105071  1
  Zn  Zn169  1  0.56604810  0.81395941  0.06072256  1
  Zn  Zn170  1  0.56076188  0.81266431  0.56460452  1
  O  O171  1  0.11669570  0.11987287  0.12509868  1
  O  O172  1  0.12341848  0.12030026  0.62051372  1
  O  O173  1  0.12592954  0.61602252  0.11556434  1
  O  O174  1  0.11451612  0.62415541  0.63266977  1
  O  O175  1  0.62542657  0.11244747  0.12523061  1
  O  O176  1  0.62840880  0.11571492  0.61175443  1
  O  O177  1  0.62593662  0.61564025  0.11746983  1
  O  O178  1  0.62677132  0.61488994  0.61704996  1
  O  O179  1  0.38298222  0.38533818  0.36371011  1
  O  O180  1  0.38328192  0.38448495  0.87076757  1
  O  O181  1  0.38260187  0.87772563  0.38325782  1
  O  O182  1  0.37454212  0.87292530  0.88942390  1
  O  O183  1  0.86882947  0.38176063  0.38750934  1
  O  O184  1  0.88219188  0.37385509  0.87934388  1
  O  O185  1  0.87573085  0.86700695  0.38875884  1
  O  O186  1  0.88288639  0.88598356  0.87369825  1
  O  O187  1  0.25802530  0.00297165  0.37146029  1
  O  O188  1  0.24694086  -0.01004701  0.85753819  1
  O  O189  1  0.25835772  0.50691639  0.37579268  1
  O  O190  1  0.26267886  0.50553809  0.88367891  1
  O  O191  1  0.74716817  0.00220145  0.36481163  1
  O  O192  1  0.75796749  0.00129034  0.86985804  1
  O  O193  1  0.76213271  0.50692295  0.38444402  1
  O  O194  1  0.74830245  0.51104850  0.87339803  1
  O  O195  1  0.24917066  0.49870253  0.13298864  1
  O  O196  1  0.25180065  0.48750773  0.62086970  1
  O  O197  1  0.25028031  0.98925927  0.14188588  1
  O  O198  1  0.24458962  0.99500705  0.63243179  1
  O  O199  1  0.73834675  0.48108896  0.11258176  1
  O  O200  1  0.73709290  0.49322262  0.62479451  1
  O  O201  1  0.74277553  0.99536733  0.13308052  1
  O  O202  1  0.73970520  0.99636634  0.63321043  1
  O  O203  1  -0.00325017  0.35706304  0.25828683  1
  O  O204  1  0.00683406  0.36999498  0.75495060  1
  O  O205  1  -0.00353082  0.85662920  0.24962307  1
  O  O206  1  0.00582366  0.87164044  0.75713029  1
  O  O207  1  0.51726042  0.37943037  0.25761169  1
  O  O208  1  0.50697321  0.37330722  0.75993370  1
  O  O209  1  0.50490783  0.87090105  0.25707737  1
  O  O210  1  0.50515627  0.86613203  0.75080835  1
  O  O211  1  0.50838884  0.11858087  0.24116835  1
  O  O212  1  0.49187107  0.12602833  0.74256352  1
  O  O213  1  0.49635834  0.63025326  0.24454855  1
  O  O214  1  0.49082496  0.63678242  0.75363410  1
  O  O215  1  0.99490232  0.12879037  0.24813241  1
  O  O216  1  0.99504712  0.12979585  0.74290878  1
  O  O217  1  0.99713003  0.64447820  0.25198438  1
  O  O218  1  0.99241717  0.62830520  0.74564078  1
  O  O219  1  0.37306967  0.25570083  0.02071905  1
  O  O220  1  0.37348551  0.24517965  0.51194443  1
  O  O221  1  0.36759177  0.75746606  0.00667485  1
  O  O222  1  0.36868817  0.75666504  0.50565326  1
  O  O223  1  0.87045052  0.25893463  -0.00009636  1
  O  O224  1  0.88200182  0.25878053  0.51231399  1
  O  O225  1  0.85654814  0.75050836  -0.00561305  1
  O  O226  1  0.87239448  0.75403926  0.50676122  1
  O  O227  1  0.12933675  0.24032165  0.50372746  1
  O  O228  1  0.12180156  0.24863735  0.98432229  1
  O  O229  1  0.13791772  0.75052135  0.50430932  1
  O  O230  1  0.13693401  0.75245451  0.99908162  1
  O  O231  1  0.62862163  0.23833918  0.50496551  1
  O  O232  1  0.63516206  0.24840928  0.99099748  1
  O  O233  1  0.62759384  0.74234478  0.49762194  1
  O  O234  1  0.63277961  0.74283083  0.99556459  1
  O  O235  1  0.50958501  0.23204987  0.12732084  1
  O  O236  1  0.48998375  0.24986504  0.62630517  1
  O  O237  1  0.49650764  0.74727941  0.13007575  1
  O  O238  1  0.48679585  0.75248971  0.63111727  1
  O  O239  1  0.99711694  0.23666698  0.13612712  1
  O  O240  1  0.99519673  0.24573318  0.63067601  1
  O  O241  1  0.99387941  0.75103124  0.12783659  1
  O  O242  1  0.99379203  0.74225220  0.63165435  1
  O  O243  1  -0.00027898  0.23920397  0.36706621  1
  O  O244  1  0.00458910  0.26108108  0.86862432  1
  O  O245  1  0.01553272  0.75095038  0.37691008  1
  O  O246  1  -0.00761995  0.76130318  0.86948059  1
  O  O247  1  0.49092509  0.26291338  0.37505134  1
  O  O248  1  0.50767306  0.25706605  0.87435170  1
  O  O249  1  0.50349565  0.75871762  0.37152450  1
  O  O250  1  0.49945193  0.75464461  0.86479943  1
  O  O251  1  0.24457774  0.12925563  0.49085159  1
  O  O252  1  0.24896761  0.09631353  0.99820671  1
  O  O253  1  0.25877682  0.63363899  0.48676438  1
  O  O254  1  0.25089356  0.63690453  0.98996811  1
  O  O255  1  0.74392560  0.12210120  0.48913955  1
  O  O256  1  0.75227440  0.13746328  0.99969695  1
  O  O257  1  0.73907939  0.62859089  0.49434293  1
  O  O258  1  0.73670175  0.62887751  0.99102233  1
  O  O259  1  0.25068186  0.36825959  0.02250541  1
  O  O260  1  0.24487727  0.37431369  0.51218769  1
  O  O261  1  0.25629706  0.87109715  0.00629452  1
  O  O262  1  0.25793498  0.86676684  0.50586206  1
  O  O263  1  0.75525545  0.36493638  0.00279134  1
  O  O264  1  0.75864897  0.37878117  0.51221849  1
  O  O265  1  0.74926104  0.86894920  0.00581782  1
  O  O266  1  0.76145702  0.86491749  0.50340209  1
  O  O267  1  0.12107080  0.49137799  0.25701408  1
  O  O268  1  0.12112144  0.48591378  0.74729191  1
  O  O269  1  0.13555488  0.99599200  0.25382811  1
  O  O270  1  0.13107053  0.99638098  0.73914905  1
  O  O271  1  0.62364151  0.49553987  0.23639234  1
  O  O272  1  0.62239189  0.49478140  0.74175933  1
  O  O273  1  0.63378501  0.99324616  0.24570308  1
  O  O274  1  0.62893396  0.99391309  0.74354997  1
  O  O275  1  0.36703623  -0.01023945  0.26428514  1
  O  O276  1  0.36777152  0.01027286  0.74487340  1
  O  O277  1  0.37671610  0.50590116  0.25775581  1
  O  O278  1  0.38317176  0.51191129  0.75784468  1
  O  O279  1  0.86758016  0.01135875  0.24784139  1
  O  O280  1  0.87045946  0.00332072  0.75477556  1
  O  O281  1  0.88618335  0.49627774  0.26282085  1
  O  O282  1  0.87258396  0.51208969  0.74788032  1
  O  O283  1  0.11154943  0.37611687  0.36536031  1
  O  O284  1  0.12188488  0.36828821  0.86919038  1
  O  O285  1  0.12833695  0.85524258  0.38077893  1
  O  O286  1  0.11209049  0.88228850  0.86936762  1
  O  O287  1  0.62131314  0.37851179  0.36203251  1
  O  O288  1  0.62294109  0.36620191  0.86716630  1
  O  O289  1  0.61852811  0.86990539  0.37317428  1
  O  O290  1  0.62258757  0.87425768  0.86120306  1
  O  O291  1  0.39013778  0.12431682  0.13977970  1
  O  O292  1  0.37642093  0.13219931  0.63069692  1
  O  O293  1  0.38141917  0.63393137  0.13109932  1
  O  O294  1  0.36967902  0.63267148  0.63300826  1
  O  O295  1  0.88039646  0.12723793  0.13780775  1
  O  O296  1  0.87912292  0.13196795  0.62618053  1
  O  O297  1  0.82927934  0.62899903  0.13563842  1
  O  O298  1  0.87912404  0.63281987  0.62997313  1
  O  O299  1  0.24058984  0.25143606  0.11805560  1
  O  O300  1  0.25817628  0.26136282  0.62123979  1
  O  O301  1  0.25583351  0.75583573  0.11952336  1
  O  O302  1  0.26004499  0.75394575  0.61837905  1
  O  O303  1  0.75028292  0.25793586  0.11699629  1
  O  O304  1  0.76056020  0.25823746  0.62932193  1
  O  O305  1  0.73361769  0.76786418  0.11380251  1
  O  O306  1  0.75886573  0.74891341  0.61902386  1
  O  O307  1  0.26941594  0.23740194  0.36841659  1
  O  O308  1  0.23867932  0.25413331  0.87169920  1
  O  O309  1  0.24234877  0.74433219  0.38118297  1
  O  O310  1  0.25492843  0.74062025  0.88334986  1
  O  O311  1  0.75195581  0.23822499  0.37524902  1
  O  O312  1  0.74377042  0.24913494  0.88052196  1
  O  O313  1  0.74284584  0.74268208  0.38251480  1
  O  O314  1  0.74434280  0.73861959  0.87828828  1
  O  O315  1  -0.00154402  0.11989030  0.01074927  1
  O  O316  1  0.00969789  0.12306475  0.50706670  1
  O  O317  1  -0.00166621  0.60575493  -0.01477930  1
  O  O318  1  -0.00618334  0.61674999  0.51269717  1
  O  O319  1  0.50042598  0.11817091  0.01163337  1
  O  O320  1  0.51848690  0.12446037  0.49945489  1
  O  O321  1  0.51153105  0.63439798  0.00588795  1
  O  O322  1  0.51044630  0.61687507  0.49533539  1
  O  O323  1  0.50883486  0.38524315  0.48631813  1
  O  O324  1  0.51620601  0.37519016  0.98386695  1
  O  O325  1  0.49120303  0.86938601  0.49182904  1
  O  O326  1  0.49148516  0.88360897  1.00163542  1
  O  O327  1  0.98929644  0.38673882  0.50820270  1
  O  O328  1  0.98939520  0.38368148  0.99048836  1
  O  O329  1  0.98610623  0.87297197  0.50189504  1
  O  O330  1  0.99629736  0.88167779  0.99310435  1
  O  O331  1  0.49398873  0.49347212  0.38077648  1
  O  O332  1  0.48987546  0.49080379  0.88483282  1
  O  O333  1  0.49450414  0.98693299  0.37238385  1
  O  O334  1  0.50622112  0.99944009  0.89074394  1
  O  O335  1  0.99016743  0.51273466  0.38840413  1
  O  O336  1  0.99712502  0.48575870  0.87633562  1
  O  O337  1  1.00391933  0.99234833  0.38114348  1
  O  O338  1  0.99324813  0.99541660  0.88017060  1
  O  O339  1  -0.00171149  0.00761449  0.11949822  1
  O  O340  1  0.00928285  0.00694614  0.62217581  1
  O  O341  1  -0.00980696  0.50152930  0.10805624  1
  O  O342  1  0.00211694  0.50925762  0.61797419  1
  O  O343  1  0.50707452  0.00582172  0.11856103  1
  O  O344  1  0.51630891  0.00028112  0.62690915  1
  O  O345  1  0.50607959  0.50879501  0.12081979  1
  O  O346  1  0.51118004  0.49054486  0.61518372  1
  O  O347  1  0.22838674  0.37636882  0.26362468  1
  O  O348  1  0.24388487  0.37283348  0.73664053  1
  O  O349  1  0.25438145  0.87856950  0.24314337  1
  O  O350  1  0.24651531  0.87908686  0.74226070  1
  O  O351  1  0.74002340  0.37130238  0.24221319  1
  O  O352  1  0.74543503  0.37848507  0.73845898  1
  O  O353  1  0.74663232  0.88059546  0.24508599  1
  O  O354  1  0.74166259  0.87878389  0.74842805  1
  O  O355  1  0.24849664  0.11220670  0.25998968  1
  O  O356  1  0.25983962  0.11635126  0.74611152  1
  O  O357  1  0.25911715  0.62684668  0.26260890  1
  O  O358  1  0.26019535  0.62917115  0.75855574  1
  O  O359  1  0.75586436  0.11946956  0.26235077  1
  O  O360  1  0.75793133  0.11758993  0.75162283  1
  O  O361  1  0.73596674  0.62243425  0.27070824  1
  O  O362  1  0.75548039  0.62421759  0.75560294  1
  O  O363  1  0.36973456  0.10975735  0.38305966  1
  O  O364  1  0.38308847  0.13336068  0.86257780  1
  O  O365  1  0.37138549  0.61594019  0.36850040  1
  O  O366  1  0.36759766  0.62044824  0.86403342  1
  O  O367  1  0.86117971  0.12309170  0.37330055  1
  O  O368  1  0.87743179  0.11428491  0.86854798  1
  O  O369  1  0.86492125  0.61679580  0.37356071  1
  O  O370  1  0.86429672  0.62290104  0.86496327  1
  O  O371  1  0.10509864  0.38479383  0.15020860  1
  O  O372  1  0.13797432  0.37508544  0.63262617  1
  O  O373  1  0.13924790  0.87948650  0.12017782  1
  O  O374  1  0.12981784  0.88395479  0.62955298  1
  O  O375  1  0.62906256  0.37754080  0.13526257  1
  O  O376  1  0.63142252  0.37892507  0.62816396  1
  O  O377  1  0.62936316  0.88767491  0.13029397  1
  O  O378  1  0.62614883  0.88223356  0.63336095  1
  O  O379  1  0.11167300  0.25669560  0.25208268  1
  O  O380  1  0.12125602  0.25877069  0.75774713  1
  O  O381  1  0.11941933  0.74953912  0.25600183  1
  O  O382  1  0.11836891  0.76215982  0.74527446  1
  O  O383  1  0.62810173  0.25996989  0.25106228  1
  O  O384  1  0.62459963  0.25457040  0.75581912  1
  O  O385  1  0.61883502  0.75715890  0.25864529  1
  O  O386  1  0.61525626  0.75684947  0.74722300  1
  O  O387  1  0.36085395  0.32026772  0.18683023  1
  O  O388  1  0.37569758  0.24162369  0.73915652  1
  O  O389  1  0.38214137  0.74385737  0.24536408  1
  O  O390  1  0.38008119  0.74446651  0.74140597  1
  O  O391  1  0.88415565  0.23828898  0.25253388  1
  O  O392  1  0.88209283  0.24533524  0.74007914  1
  O  O393  1  0.88291956  0.74575383  0.24666756  1
  O  O394  1  0.87941662  0.74047246  0.74336052  1
  O  O395  1  0.38880716  0.50372538  0.49122249  1
  O  O396  1  0.38624956  0.52608128  0.98635938  1
  O  O397  1  0.36920040  0.98634487  0.49379065  1
  O  O398  1  0.38201237  0.99438182  1.00210290  1
  O  O399  1  0.88245329  0.49272313  0.49554857  1
  O  O400  1  0.87936128  0.48805329  0.99265848  1
  O  O401  1  0.87354132  0.98059764  0.50994281  1
  O  O402  1  0.88292132  0.99922638  0.99171191  1
  O  O403  1  0.10780051  0.00281562  0.00054405  1
  O  O404  1  0.12996936  0.00692007  0.51283178  1
  O  O405  1  0.10838591  0.49185525  -0.00140595  1
  O  O406  1  0.11222721  0.49715226  0.50277762  1
  O  O407  1  0.61877248  0.00231004  0.00911966  1
  O  O408  1  0.63174892  -0.00069614  0.51246124  1
  O  O409  1  0.61367090  0.50534861  0.00898491  1
  O  O410  1  0.61783609  0.50613390  0.50506712  1
  O  O411  1  0.40222980  0.40692598  0.07816862  1
  O  O412  1  0.36351668  0.36874602  0.62932622  1
  O  O413  1  0.36740909  0.86978837  0.11682535  1
  O  O414  1  0.37165988  0.86921967  0.61876203  1
  O  O415  1  0.86694981  0.37107542  0.11690091  1
  O  O416  1  0.86817445  0.36965380  0.61987759  1
  O  O417  1  0.86075054  0.88233607  0.12269172  1
  O  O418  1  0.87589290  0.86024497  0.62197877  1
  O  O419  1  0.14000133  0.12208709  0.38508740  1
  O  O420  1  0.12130321  0.14145777  0.87344900  1
  O  O421  1  0.13535590  0.63960956  0.37377585  1
  O  O422  1  0.13821232  0.61802467  0.87738144  1
  O  O423  1  0.63757411  0.12041127  0.38903583  1
  O  O424  1  0.62622359  0.13758247  0.87611416  1
  O  O425  1  0.62707176  0.62710447  0.38533309  1
  O  O426  1  0.62765730  0.62371326  0.88057341  1
