# generated using pymatgen
data_V85Zn86O256
_symmetry_space_group_name_H-M   'P 1'
_cell_length_a   16.93128253
_cell_length_b   16.94749231
_cell_length_c   16.92661910
_cell_angle_alpha   89.98998390
_cell_angle_beta   89.96990731
_cell_angle_gamma   89.97318026
_symmetry_Int_Tables_number   1
_chemical_formula_structural   V85Zn86O256
_chemical_formula_sum   'V85 Zn86 O256'
_cell_volume   4856.96987429
_cell_formula_units_Z   1
loop_
 _symmetry_equiv_pos_site_id
 _symmetry_equiv_pos_as_xyz
  1  'x, y, z'
loop_
 _atom_site_type_symbol
 _atom_site_label
 _atom_site_symmetry_multiplicity
 _atom_site_fract_x
 _atom_site_fract_y
 _atom_site_fract_z
 _atom_site_occupancy
  V  V0  1  0.50355333  0.10915681  0.12025009  1
  V  V1  1  0.87138758  0.87724874  0.50138283  1
  V  V2  1  0.12745055  0.11743267  0.00095961  1
  V  V3  1  0.00470211  0.11820169  0.12611127  1
  V  V4  1  0.62485790  0.37248999  0.25551943  1
  V  V5  1  0.88651870  0.50025202  0.87954964  1
  V  V6  1  0.00697515  0.00856571  0.50199904  1
  V  V7  1  -0.00122925  0.87772610  0.37642651  1
  V  V8  1  0.37472272  0.74878681  0.62521165  1
  V  V9  1  0.88129533  0.00439786  0.87557454  1
  V  V10  1  -0.00087325  0.86628313  0.86975137  1
  V  V11  1  0.88891705  0.37847968  -0.00242321  1
  V  V12  1  0.37873947  0.24799660  0.12348276  1
  V  V13  1  0.87208119  0.62600880  0.24844570  1
  V  V14  1  0.24632028  0.61554543  0.87972413  1
  V  V15  1  0.63091366  0.36960808  0.74823519  1
  V  V16  1  0.86590672  0.25414796  0.62668349  1
  V  V17  1  0.74208844  0.13013854  0.87466405  1
  V  V18  1  -0.00003857  0.62530448  0.64013123  1
  V  V19  1  0.87243699  0.38095233  0.50756052  1
  V  V20  1  0.50056550  0.87637945  0.87546791  1
  V  V21  1  0.50531778  0.12780047  0.62334044  1
  V  V22  1  0.36784731  0.75290775  0.12478778  1
  V  V23  1  0.75036101  -0.00149374  0.74602244  1
  V  V24  1  -0.00408107  0.75209680  0.24661795  1
  V  V25  1  0.50370627  0.39236786  0.87781709  1
  V  V26  1  0.74473643  0.00054031  0.25890468  1
  V  V27  1  0.12725199  0.23737086  0.38506896  1
  V  V28  1  0.25329739  0.24833149  -0.00267439  1
  V  V29  1  0.86842052  0.62918856  0.75743968  1
  V  V30  1  0.69045456  0.93427738  0.07581576  1
  V  V31  1  0.50269991  0.75694232  0.74881405  1
  V  V32  1  0.37631763  0.49267763  0.38005795  1
  V  V33  1  0.24968286  0.87599237  0.62283925  1
  V  V34  1  0.25703182  0.23409609  0.49903585  1
  V  V35  1  0.74990817  0.37492016  0.12340344  1
  V  V36  1  0.87861290  0.75080367  0.62882515  1
  V  V37  1  0.74658233  0.62703612  0.37778350  1
  V  V38  1  0.37810960  0.00104314  0.87750462  1
  V  V39  1  0.87762540  0.12961623  0.75056575  1
  V  V40  1  0.63032212  0.12828980  0.48595824  1
  V  V41  1  0.00161732  0.25691257  0.74917927  1
  V  V42  1  0.12103867  0.25162479  0.87529836  1
  V  V43  1  0.62067060  0.49814614  0.11642150  1
  V  V44  1  0.50474460  0.24732115  0.25239936  1
  V  V45  1  0.38027200  0.38604393  -0.00489995  1
  V  V46  1  0.24380292  0.75068517  -0.00350092  1
  V  V47  1  0.74187960  0.25172647  -0.00237086  1
  V  V48  1  0.12650695  0.87861110  0.23190772  1
  V  V49  1  0.50090525  0.49664957  0.50256481  1
  V  V50  1  0.37250124  0.87882010  0.00242111  1
  V  V51  1  0.12678652  0.37172632  0.25317274  1
  V  V52  1  0.50324554  0.62303508  0.62562338  1
  V  V53  1  0.37554873  0.62424530  0.25054171  1
  V  V54  1  0.00271992  0.37639698  0.38250879  1
  V  V55  1  0.62511060  -0.00535259  0.62686122  1
  V  V56  1  0.86371191  0.75084461  0.12484770  1
  V  V57  1  0.12062357  0.87089906  0.74744001  1
  V  V58  1  0.37524371  0.12575703  0.74863005  1
  V  V59  1  0.74794629  0.25107124  0.48534039  1
  V  V60  1  0.37000077  0.12289403  0.25877259  1
  V  V61  1  0.87812303  0.25047418  0.12384414  1
  V  V62  1  0.24750591  0.74720501  0.50152001  1
  V  V63  1  0.62350620  0.87801144  0.25783499  1
  V  V64  1  0.50514286  0.24825412  0.76341977  1
  V  V65  1  0.86920988  0.12560181  0.25553477  1
  V  V66  1  0.25208208  0.49746808  0.25093179  1
  V  V67  1  0.12830988  0.37937897  0.75189423  1
  V  V68  1  0.88489866  0.50163781  0.37757426  1
  V  V69  1  0.74806873  0.49944478  0.25151629  1
  V  V70  1  0.25860616  0.37744055  0.61358019  1
  V  V71  1  0.24372464  0.00154657  0.24324310  1
  V  V72  1  0.50153503  0.36867419  0.38236629  1
  V  V73  1  0.11062892  0.62191866  0.49704453  1
  V  V74  1  0.75052640  0.49799191  0.75267113  1
  V  V75  1  0.63005729  0.74560943  0.87245852  1
  V  V76  1  0.87547357  0.87819472  0.00508285  1
  V  V77  1  0.12052466  0.49794628  0.62155762  1
  V  V78  1  0.50047357  -0.00571233  0.48912920  1
  V  V79  1  0.25204529  0.37490060  0.12585189  1
  V  V80  1  0.37592542  0.61816863  0.75743524  1
  V  V81  1  0.49784165  0.75440172  0.25577053  1
  V  V82  1  0.49725904  0.62054150  0.11658075  1
  V  V83  1  0.24753137  0.62237955  0.37829247  1
  V  V84  1  0.12215559  0.74940811  0.37525863  1
  Zn  Zn85  1  0.62613906  0.61736441  -0.00710590  1
  Zn  Zn86  1  0.00183109  0.24623021  0.25372586  1
  Zn  Zn87  1  0.36517126  -0.00724408  0.37443518  1
  Zn  Zn88  1  0.74745947  0.87072907  0.62973406  1
  Zn  Zn89  1  0.00656740  0.13281541  0.62045554  1
  Zn  Zn90  1  0.38176140  0.86772083  0.49170813  1
  Zn  Zn91  1  0.61893090  0.75055969  0.37884763  1
  Zn  Zn92  1  0.63651027  0.49568338  0.62284133  1
  Zn  Zn93  1  0.12008962  0.50404998  0.10561617  1
  Zn  Zn94  1  0.62254381  0.11681882  0.00232041  1
  Zn  Zn95  1  0.38226605  0.25574893  0.62102081  1
  Zn  Zn96  1  0.00812724  -0.00426219  0.00333751  1
  Zn  Zn97  1  0.25060524  0.00025123  0.74790041  1
  Zn  Zn98  1  0.74754678  0.74911962  0.50273078  1
  Zn  Zn99  1  0.87085443  0.00757940  0.37938733  1
  Zn  Zn100  1  0.25108653  0.12403840  0.87318841  1
  Zn  Zn101  1  0.74384778  0.74433084  0.00121720  1
  Zn  Zn102  1  0.13084854  0.00837123  0.62333599  1
  Zn  Zn103  1  0.62519213  0.62588422  0.50031919  1
  Zn  Zn104  1  -0.00004001  0.61791043  0.10411047  1
  Zn  Zn105  1  0.25726260  0.49548164  0.75057539  1
  Zn  Zn106  1  0.11917532  0.74295608  0.87260448  1
  Zn  Zn107  1  0.18890979  0.18752249  0.18846774  1
  Zn  Zn108  1  0.18834371  0.18901711  0.68303625  1
  Zn  Zn109  1  0.18752264  0.68894047  0.18727220  1
  Zn  Zn110  1  0.18646343  0.68636629  0.69248417  1
  Zn  Zn111  1  0.68638405  0.18565144  0.18579587  1
  Zn  Zn112  1  0.68713717  0.18659372  0.68520942  1
  Zn  Zn113  1  0.68268938  0.68672572  0.18717947  1
  Zn  Zn114  1  0.68932495  0.68746580  0.68922333  1
  Zn  Zn115  1  0.31445990  0.30829939  0.31700911  1
  Zn  Zn116  1  0.31514346  0.31172379  0.81127877  1
  Zn  Zn117  1  0.30862210  0.81719747  0.31371846  1
  Zn  Zn118  1  0.31174727  0.80952905  0.81141317  1
  Zn  Zn119  1  0.81570409  0.31427228  0.31215757  1
  Zn  Zn120  1  0.81360708  0.31711113  0.81713096  1
  Zn  Zn121  1  0.80727244  0.81762035  0.31229235  1
  Zn  Zn122  1  0.81455073  0.81519641  0.81131310  1
  Zn  Zn123  1  0.18546865  0.43705661  0.43912457  1
  Zn  Zn124  1  0.19507272  0.43284571  0.93488116  1
  Zn  Zn125  1  0.18880957  0.93736684  0.43212516  1
  Zn  Zn126  1  0.19152514  0.93578325  0.93252175  1
  Zn  Zn127  1  0.68911737  0.43794514  0.43850821  1
  Zn  Zn128  1  0.69205423  0.43646041  0.93193810  1
  Zn  Zn129  1  0.68581693  0.93819047  0.43723332  1
  Zn  Zn130  1  0.68824257  0.93455171  0.91184793  1
  Zn  Zn131  1  0.31216025  0.05985837  0.06635036  1
  Zn  Zn132  1  0.31872262  0.06093925  0.56470140  1
  Zn  Zn133  1  0.30770420  0.56244673  0.06288721  1
  Zn  Zn134  1  0.31485993  0.56195321  0.56266760  1
  Zn  Zn135  1  0.81754147  0.06920517  0.06134153  1
  Zn  Zn136  1  0.81514661  0.06795975  0.56237047  1
  Zn  Zn137  1  0.80920049  0.56463583  0.05889674  1
  Zn  Zn138  1  0.81259421  0.56198854  0.56570515  1
  Zn  Zn139  1  0.43859903  0.43535855  0.18828361  1
  Zn  Zn140  1  0.44116059  0.43541440  0.68936343  1
  Zn  Zn141  1  0.43250380  0.93463688  0.19125017  1
  Zn  Zn142  1  0.43593734  0.93846882  0.68343564  1
  Zn  Zn143  1  0.93752946  0.43299209  0.19164901  1
  Zn  Zn144  1  0.94051806  0.44082071  0.69113584  1
  Zn  Zn145  1  0.93331842  0.93988049  0.18804851  1
  Zn  Zn146  1  0.93801171  0.93961444  0.68577724  1
  Zn  Zn147  1  0.06072703  0.05970932  0.31127259  1
  Zn  Zn148  1  0.06611749  0.06361768  0.80708753  1
  Zn  Zn149  1  0.06030673  0.56069020  0.25276125  1
  Zn  Zn150  1  0.06450564  0.56350342  0.93353338  1
  Zn  Zn151  1  0.56420296  0.06376586  0.30747574  1
  Zn  Zn152  1  0.56242934  0.06021187  0.81183381  1
  Zn  Zn153  1  0.56138591  0.56216379  0.30893661  1
  Zn  Zn154  1  0.56577206  0.56446213  0.80736407  1
  Zn  Zn155  1  0.43899003  0.18497429  0.43822433  1
  Zn  Zn156  1  0.43977530  0.18588944  0.93993047  1
  Zn  Zn157  1  0.43569563  0.68296046  0.43842712  1
  Zn  Zn158  1  0.43560287  0.68839032  0.93713383  1
  Zn  Zn159  1  0.93617120  0.19151307  0.43770529  1
  Zn  Zn160  1  0.94011582  0.19000835  0.93846053  1
  Zn  Zn161  1  0.93409776  0.68979918  0.43847612  1
  Zn  Zn162  1  0.92700125  0.68943665  0.93685617  1
  Zn  Zn163  1  0.06623043  0.30909673  0.06539610  1
  Zn  Zn164  1  0.06290412  0.31208954  0.56250838  1
  Zn  Zn165  1  0.05356246  0.80159093  0.05695638  1
  Zn  Zn166  1  0.05996674  0.81348959  0.56398871  1
  Zn  Zn167  1  0.56110686  0.31289740  0.06223002  1
  Zn  Zn168  1  0.56821631  0.31128264  0.56571124  1
  Zn  Zn169  1  0.55203989  0.80662412  0.05961047  1
  Zn  Zn170  1  0.56608988  0.81222009  0.56199807  1
  O  O171  1  0.11560153  0.13585850  0.11502530  1
  O  O172  1  0.11848132  0.12068035  0.63207094  1
  O  O173  1  0.11329586  0.61350094  0.15421045  1
  O  O174  1  0.11799513  0.61830029  0.62249774  1
  O  O175  1  0.60808902  0.12599650  0.12468147  1
  O  O176  1  0.61793995  0.11823815  0.61736080  1
  O  O177  1  0.61356468  0.61418195  0.12802385  1
  O  O178  1  0.61242212  0.62146936  0.62807996  1
  O  O179  1  0.38582972  0.38499524  0.37005560  1
  O  O180  1  0.39040959  0.37021012  0.88154781  1
  O  O181  1  0.37280796  0.87779469  0.37948847  1
  O  O182  1  0.38164223  0.88081650  0.87777959  1
  O  O183  1  0.88221136  0.38066161  0.38273275  1
  O  O184  1  0.87599477  0.38771095  0.88458488  1
  O  O185  1  0.88378479  0.87631464  0.38179742  1
  O  O186  1  0.87920310  0.88361128  0.88336472  1
  O  O187  1  0.24743256  -0.00431562  0.35638478  1
  O  O188  1  0.26474148  0.00236122  0.86895897  1
  O  O189  1  0.25990074  0.50115534  0.37452024  1
  O  O190  1  0.25489337  0.51220800  0.87125443  1
  O  O191  1  0.75162465  0.00068996  0.36375077  1
  O  O192  1  0.76262204  0.00856678  0.86690383  1
  O  O193  1  0.75639701  0.50824979  0.37014933  1
  O  O194  1  0.76084331  0.49632240  0.86152772  1
  O  O195  1  0.24691323  0.49226896  0.13430156  1
  O  O196  1  0.24615574  0.48920304  0.62331875  1
  O  O197  1  0.25207294  0.99836874  0.14097302  1
  O  O198  1  0.25173092  0.98917950  0.62467413  1
  O  O199  1  0.74387471  0.49188573  0.13268720  1
  O  O200  1  0.75341386  0.50108727  0.64289973  1
  O  O201  1  0.75133054  0.99721620  0.12958787  1
  O  O202  1  0.74411791  1.00401018  0.63090526  1
  O  O203  1  0.00864218  0.36776453  0.26359720  1
  O  O204  1  0.01133850  0.36495634  0.74538822  1
  O  O205  1  0.00240857  0.86985567  0.25646900  1
  O  O206  1  0.00668324  0.88205392  0.75768049  1
  O  O207  1  0.50603969  0.36687156  0.25857960  1
  O  O208  1  0.50385952  0.36798471  0.76196369  1
  O  O209  1  0.50884530  0.86532077  0.24247542  1
  O  O210  1  0.49070619  0.86266730  0.75435086  1
  O  O211  1  0.49457411  0.13146771  0.24094954  1
  O  O212  1  0.49682236  0.13104388  0.74424886  1
  O  O213  1  0.49195370  0.63001982  0.24130784  1
  O  O214  1  0.49357622  0.63333126  0.74442954  1
  O  O215  1  0.99365683  0.12671984  0.24243550  1
  O  O216  1  0.99368864  0.14020824  0.75349673  1
  O  O217  1  0.98590110  0.64600535  0.26639113  1
  O  O218  1  0.98597206  0.62519385  0.74005386  1
  O  O219  1  0.37291586  0.25431433  0.00799193  1
  O  O220  1  0.36214143  0.24662942  0.50034144  1
  O  O221  1  0.36683078  0.75536695  0.00687118  1
  O  O222  1  0.36742331  0.74657599  0.50737221  1
  O  O223  1  0.86923750  0.25575630  0.00791412  1
  O  O224  1  0.86581282  0.25651024  0.50589634  1
  O  O225  1  0.86523742  0.76187953  0.00547516  1
  O  O226  1  0.87234078  0.75996535  0.50794623  1
  O  O227  1  0.13441851  0.25100410  0.49112631  1
  O  O228  1  0.13196211  0.24493302  0.99166536  1
  O  O229  1  0.12766939  0.74180391  0.49694072  1
  O  O230  1  0.13993587  0.75697716  0.99715132  1
  O  O231  1  0.64068237  0.24507042  0.50449422  1
  O  O232  1  0.63937157  0.24922086  1.00613695  1
  O  O233  1  0.62873385  0.74586111  0.49610880  1
  O  O234  1  0.62198190  0.75240697  0.98458353  1
  O  O235  1  0.49054278  0.24917848  0.13287173  1
  O  O236  1  0.50093960  0.24206918  0.63172874  1
  O  O237  1  0.48807206  0.74009365  0.13312743  1
  O  O238  1  0.49675089  0.74407315  0.63065670  1
  O  O239  1  0.99093369  0.24256527  0.12812412  1
  O  O240  1  0.99009979  0.25215647  0.63164411  1
  O  O241  1  0.98575479  0.74775404  0.13403514  1
  O  O242  1  0.98716958  0.74239478  0.62109987  1
  O  O243  1  0.01186585  0.25683451  0.37731341  1
  O  O244  1  0.01321572  0.24999135  0.86874050  1
  O  O245  1  0.00197182  0.75984434  0.37098968  1
  O  O246  1  -0.00326649  0.76396078  0.87411932  1
  O  O247  1  0.49488906  0.25819969  0.36670945  1
  O  O248  1  0.50226328  0.24902650  0.86535926  1
  O  O249  1  0.49729597  0.74044573  0.35947088  1
  O  O250  1  0.50362115  0.75634577  0.86658938  1
  O  O251  1  0.25179853  0.13550307  0.50545472  1
  O  O252  1  0.24501459  0.13194905  1.00098920  1
  O  O253  1  0.24198308  0.62967826  0.49708730  1
  O  O254  1  0.25672357  0.63175537  0.98627021  1
  O  O255  1  0.74493512  0.13943059  0.50225677  1
  O  O256  1  0.74873935  0.13334904  0.99356077  1
  O  O257  1  0.74773165  0.62399547  0.49163336  1
  O  O258  1  0.73846757  0.63102569  1.00638235  1
  O  O259  1  0.26151801  0.36554712  0.00466691  1
  O  O260  1  0.24818071  0.36913661  0.51133102  1
  O  O261  1  0.26312166  0.86590279  -0.00807085  1
  O  O262  1  0.24515384  0.86550155  0.50995328  1
  O  O263  1  0.75786290  0.36824816  0.00507262  1
  O  O264  1  0.75789447  0.36346587  0.49718533  1
  O  O265  1  0.75036660  0.87970169  0.00588042  1
  O  O266  1  0.76186170  0.87670542  0.50085652  1
  O  O267  1  0.13926082  0.47993095  0.26816014  1
  O  O268  1  0.13338456  0.48619385  0.73584980  1
  O  O269  1  0.12466986  0.98586691  0.24947043  1
  O  O270  1  0.13086592  0.98767256  0.74919349  1
  O  O271  1  0.62933958  0.49082280  0.24279923  1
  O  O272  1  0.63463195  0.49284946  0.75042439  1
  O  O273  1  0.63091692  0.99230350  0.24878784  1
  O  O274  1  0.63634546  1.00888492  0.73949394  1
  O  O275  1  0.36651411  0.00720557  0.25088062  1
  O  O276  1  0.37657889  0.00980848  0.75471630  1
  O  O277  1  0.37023478  0.50290146  0.25769612  1
  O  O278  1  0.37627212  0.51420409  0.74372837  1
  O  O279  1  0.86567340  0.00819355  0.25212825  1
  O  O280  1  0.87177791  0.00966741  0.75508256  1
  O  O281  1  0.86582182  0.50306007  0.25911086  1
  O  O282  1  0.87146365  0.50440243  0.76007463  1
  O  O283  1  0.11854311  0.36635724  0.37523671  1
  O  O284  1  0.13541378  0.36498487  0.86097903  1
  O  O285  1  0.11076903  0.86830453  0.37159285  1
  O  O286  1  0.11471009  0.87461330  0.86832848  1
  O  O287  1  0.61755842  0.38009790  0.36305624  1
  O  O288  1  0.61167641  0.37795006  0.86674212  1
  O  O289  1  0.62669247  0.87082974  0.36267201  1
  O  O290  1  0.60782747  0.86648450  0.87224378  1
  O  O291  1  0.38557435  0.13174471  0.13093308  1
  O  O292  1  0.38975875  0.12613834  0.63174564  1
  O  O293  1  0.37919808  0.62861947  0.13056141  1
  O  O294  1  0.38541686  0.62999599  0.63042166  1
  O  O295  1  0.88239739  0.13429210  0.13152243  1
  O  O296  1  0.88063785  0.13646311  0.63307662  1
  O  O297  1  0.87716272  0.63243801  0.13209874  1
  O  O298  1  0.88141280  0.63193387  0.63017951  1
  O  O299  1  0.26242556  0.25437046  0.12094086  1
  O  O300  1  0.25237249  0.25987439  0.61232237  1
  O  O301  1  0.26073598  0.74140571  0.11618206  1
  O  O302  1  0.25416097  0.75270450  0.61975684  1
  O  O303  1  0.75933916  0.25429577  0.11910711  1
  O  O304  1  0.76294782  0.24900491  0.62125562  1
  O  O305  1  0.76031917  0.75072748  0.12908861  1
  O  O306  1  0.76127199  0.75183764  0.62447576  1
  O  O307  1  0.24117805  0.25331565  0.38991198  1
  O  O308  1  0.24355185  0.24694002  0.88028292  1
  O  O309  1  0.24111461  0.74327067  0.38079505  1
  O  O310  1  0.24969921  0.74063523  0.88188316  1
  O  O311  1  0.75370752  0.25116126  0.38658467  1
  O  O312  1  0.75733229  0.24061372  0.88423899  1
  O  O313  1  0.75187581  0.73583505  0.37431862  1
  O  O314  1  0.73208818  0.76232267  0.87362876  1
  O  O315  1  0.00971094  0.12485846  0.00672236  1
  O  O316  1  -0.00635211  0.11145584  0.49816802  1
  O  O317  1  0.00776794  0.63962424  -0.00559743  1
  O  O318  1  0.00851876  0.62847570  0.50716982  1
  O  O319  1  0.50281453  0.12622935  0.01485352  1
  O  O320  1  0.50844031  0.11980103  0.50685118  1
  O  O321  1  0.50202049  0.62876123  0.01291269  1
  O  O322  1  0.50165682  0.61584877  0.50863987  1
  O  O323  1  0.50677294  0.37810811  0.48984361  1
  O  O324  1  0.49671180  0.37033692  0.98514020  1
  O  O325  1  0.50206341  0.89143657  0.50526358  1
  O  O326  1  0.48433113  0.86875469  0.98865362  1
  O  O327  1  0.99146235  0.37203925  0.48949690  1
  O  O328  1  0.98762842  0.36933653  1.00723724  1
  O  O329  1  0.99037926  0.88233949  0.49417388  1
  O  O330  1  0.99133204  0.87768810  0.99122987  1
  O  O331  1  0.49497939  0.49302912  0.38124434  1
  O  O332  1  0.50083408  0.49083761  0.87230527  1
  O  O333  1  0.50319499  1.00397741  0.38827045  1
  O  O334  1  0.48998403  0.99089248  0.86932341  1
  O  O335  1  0.98768450  0.49292823  0.36643039  1
  O  O336  1  0.98501740  0.50197759  0.87016770  1
  O  O337  1  0.99603001  0.99394259  0.38416044  1
  O  O338  1  0.98949425  0.99778474  0.87560264  1
  O  O339  1  -0.00605214  0.01412456  0.12166311  1
  O  O340  1  -0.00064267  0.00105234  0.60903185  1
  O  O341  1  0.00838363  0.50928584  0.15312020  1
  O  O342  1  0.01036692  0.50919432  0.62774053  1
  O  O343  1  0.49500685  0.01141927  0.12766464  1
  O  O344  1  0.50772978  0.00809784  0.61888518  1
  O  O345  1  0.50840069  0.50701852  0.13161118  1
  O  O346  1  0.49985281  0.50611509  0.61783808  1
  O  O347  1  0.24747602  0.37580902  0.24701016  1
  O  O348  1  0.24535349  0.37213487  0.73673110  1
  O  O349  1  0.23073951  0.87564963  0.24656021  1
  O  O350  1  0.24642848  0.87337494  0.73661342  1
  O  O351  1  0.74196534  0.37684290  0.24562136  1
  O  O352  1  0.73991800  0.37941853  0.75532837  1
  O  O353  1  0.73945836  0.88595767  0.24749368  1
  O  O354  1  0.75599040  0.89393302  0.74955309  1
  O  O355  1  0.25896619  0.11826510  0.24569645  1
  O  O356  1  0.26605741  0.12777149  0.74843777  1
  O  O357  1  0.25655091  0.61879302  0.25986998  1
  O  O358  1  0.25923661  0.62399899  0.75969311  1
  O  O359  1  0.75730153  0.11517201  0.24137086  1
  O  O360  1  0.75710551  0.12169877  0.75712424  1
  O  O361  1  0.75417115  0.61987557  0.25610054  1
  O  O362  1  0.76153840  0.61741113  0.74833474  1
  O  O363  1  0.38076200  0.12127922  0.36116751  1
  O  O364  1  0.37800931  0.11769222  0.86802972  1
  O  O365  1  0.36995851  0.61211993  0.37076433  1
  O  O366  1  0.36586922  0.63063752  0.86618381  1
  O  O367  1  0.87924030  0.12871031  0.35926808  1
  O  O368  1  0.86948852  0.11995650  0.87223622  1
  O  O369  1  0.86825727  0.61748937  0.37221494  1
  O  O370  1  0.87336723  0.61445780  0.86784599  1
  O  O371  1  0.13304548  0.37116544  0.13789841  1
  O  O372  1  0.13408233  0.38031817  0.62679848  1
  O  O373  1  0.11210214  0.87065718  0.13467522  1
  O  O374  1  0.13103315  0.87767228  0.63010681  1
  O  O375  1  0.62648214  0.37989688  0.13504923  1
  O  O376  1  0.61608197  0.38006661  0.64342758  1
  O  O377  1  0.62563778  0.87292506  0.12699738  1
  O  O378  1  0.62888282  0.89016200  0.62175861  1
  O  O379  1  0.12996768  0.25833537  0.26443190  1
  O  O380  1  0.12030505  0.25701622  0.75493339  1
  O  O381  1  0.11513159  0.76155877  0.25403155  1
  O  O382  1  0.12771229  0.76507097  0.75255558  1
  O  O383  1  0.61324948  0.25651230  0.24470136  1
  O  O384  1  0.61850756  0.25618103  0.74703077  1
  O  O385  1  0.61443019  0.75789068  0.24998118  1
  O  O386  1  0.61563476  0.74752347  0.75916131  1
  O  O387  1  0.38218273  0.24301584  0.24423835  1
  O  O388  1  0.38637413  0.24218429  0.74690248  1
  O  O389  1  0.37669625  0.74625365  0.24224133  1
  O  O390  1  0.38182732  0.74084035  0.74291834  1
  O  O391  1  0.87491123  0.24498788  0.24017705  1
  O  O392  1  0.88223451  0.25270871  0.74526856  1
  O  O393  1  0.87801519  0.75134825  0.24353981  1
  O  O394  1  0.87036497  0.74165509  0.74412221  1
  O  O395  1  0.38843431  0.50221213  0.49241907  1
  O  O396  1  0.37285970  0.48456638  1.00714124  1
  O  O397  1  0.39165384  1.00254739  0.49739458  1
  O  O398  1  0.37054150  0.99183714  0.99122786  1
  O  O399  1  0.86864478  0.49076866  0.49136001  1
  O  O400  1  0.87240895  0.49385006  0.98916853  1
  O  O401  1  0.88173961  0.99411215  0.49870176  1
  O  O402  1  0.87608006  0.99495186  0.99205681  1
  O  O403  1  0.12788918  0.01366335  -0.00680384  1
  O  O404  1  0.10914758  -0.00666369  0.49861415  1
  O  O405  1  0.12495877  0.49226829  -0.00468720  1
  O  O406  1  0.12926892  0.50909454  0.51062672  1
  O  O407  1  0.63885647  -0.00895154  0.00835094  1
  O  O408  1  0.61862875  0.00822349  0.50478829  1
  O  O409  1  0.62869432  0.49414336  0.01308520  1
  O  O410  1  0.61459365  0.50050456  0.50315633  1
  O  O411  1  0.37341770  0.36610190  0.11989312  1
  O  O412  1  0.36244656  0.37451995  0.62831718  1
  O  O413  1  0.37882927  0.86379432  0.11599778  1
  O  O414  1  0.36745020  0.86692825  0.61859531  1
  O  O415  1  0.87044560  0.36812061  0.12174748  1
  O  O416  1  0.88176481  0.37176838  0.61370921  1
  O  O417  1  0.87974493  0.86975250  0.11234269  1
  O  O418  1  0.87439468  0.86836038  0.61892289  1
  O  O419  1  0.11975882  0.13973266  0.37134758  1
  O  O420  1  0.12862723  0.13323428  0.88124415  1
  O  O421  1  0.12865028  0.63000409  0.38394099  1
  O  O422  1  0.14286029  0.62626731  0.86783337  1
  O  O423  1  0.62084599  0.12627668  0.38677587  1
  O  O424  1  0.63850834  0.11507447  0.88127715  1
  O  O425  1  0.63372068  0.62466139  0.37397342  1
  O  O426  1  0.61689420  0.64122447  0.87528507  1
