# generated using pymatgen
data_V85Zn86O256
_symmetry_space_group_name_H-M   'P 1'
_cell_length_a   16.95280075
_cell_length_b   16.95829471
_cell_length_c   16.94990734
_cell_angle_alpha   90.01912719
_cell_angle_beta   89.99581948
_cell_angle_gamma   89.92430333
_symmetry_Int_Tables_number   1
_chemical_formula_structural   V85Zn86O256
_chemical_formula_sum   'V85 Zn86 O256'
_cell_volume   4872.93434309
_cell_formula_units_Z   1
loop_
 _symmetry_equiv_pos_site_id
 _symmetry_equiv_pos_as_xyz
  1  'x, y, z'
loop_
 _atom_site_type_symbol
 _atom_site_label
 _atom_site_symmetry_multiplicity
 _atom_site_fract_x
 _atom_site_fract_y
 _atom_site_fract_z
 _atom_site_occupancy
  V  V0  1  0.87576228  0.87682197  0.50486975  1
  V  V1  1  0.62516003  0.24539455  0.87555739  1
  V  V2  1  0.87620020  0.25209762  0.62317210  1
  V  V3  1  0.87852237  0.61973066  0.24515116  1
  V  V4  1  -0.05379147  0.93213332  0.32613787  1
  V  V5  1  0.37674440  0.37690080  -0.00281421  1
  V  V6  1  0.25920464  0.38045895  0.62435911  1
  V  V7  1  0.62533207  0.50096459  0.62391957  1
  V  V8  1  -0.00076296  0.25067128  0.75068966  1
  V  V9  1  0.25027037  0.61729706  0.87060048  1
  V  V10  1  0.49416894  0.75002702  0.24316857  1
  V  V11  1  -0.01532920  0.87492286  0.87915872  1
  V  V12  1  0.13246670  0.37850433  0.74900458  1
  V  V13  1  0.25444599  0.74889820  0.49627172  1
  V  V14  1  0.12815375  0.87799238  0.75493095  1
  V  V15  1  0.37642021  0.87483314  0.50084290  1
  V  V16  1  0.24935051  0.11777413  0.86964699  1
  V  V17  1  0.87023350  0.75138845  0.62732479  1
  V  V18  1  0.12507788  0.00146978  0.12236202  1
  V  V19  1  0.37576177  0.25002742  0.12937935  1
  V  V20  1  0.75325517  0.10906278  0.87660107  1
  V  V21  1  0.51383165  0.00109059  0.50044304  1
  V  V22  1  0.62999243  0.87712833  0.24696960  1
  V  V23  1  0.12390248  0.12544803  0.00332774  1
  V  V24  1  0.50073279  0.12419749  0.13044555  1
  V  V25  1  -0.00005564  0.12399344  0.62722100  1
  V  V26  1  0.62560119  0.50718050  0.12388158  1
  V  V27  1  0.12487001  0.12553794  0.50324583  1
  V  V28  1  0.49524243  0.49460226  0.49209853  1
  V  V29  1  0.25345328  -0.00035361  0.24847084  1
  V  V30  1  0.74927180  0.49616364  0.74642991  1
  V  V31  1  0.36624703  0.49557039  0.37338300  1
  V  V32  1  0.49838445  0.63454347  0.62309648  1
  V  V33  1  -0.00933103  0.00040916  -0.00361596  1
  V  V34  1  0.87971066  0.24189932  0.12699888  1
  V  V35  1  0.62206162  0.12839499  0.00170156  1
  V  V36  1  -0.00090766  -0.00461719  0.50216258  1
  V  V37  1  0.75327342  0.37516393  0.12536836  1
  V  V38  1  0.37780156  0.87270263  0.00441129  1
  V  V39  1  0.75734682  0.62239278  0.37500938  1
  V  V40  1  0.87605878  0.38094971  0.50549091  1
  V  V41  1  -0.00119391  0.24312488  0.25053062  1
  V  V42  1  0.37328921  0.12000200  0.74828665  1
  V  V43  1  0.25549883  0.74818331  0.00471378  1
  V  V44  1  0.75066971  0.75309891  0.50191854  1
  V  V45  1  0.12910629  0.50336248  0.62806435  1
  V  V46  1  0.62614644  0.36850591  0.75208733  1
  V  V47  1  -0.00534356  0.38239578  0.37666838  1
  V  V48  1  0.00026754  0.62683256  0.62660788  1
  V  V49  1  0.12834143  0.87429588  0.25606880  1
  V  V50  1  0.49974553  0.37115248  0.87018305  1
  V  V51  1  0.62072849  0.74996108  0.87450559  1
  V  V52  1  0.75606342  0.10971340  0.37771115  1
  V  V53  1  0.12022305  0.62695061  -0.00038345  1
  V  V54  1  0.62443986  0.62719894  0.49961961  1
  V  V55  1  0.50602883  0.50278650  -0.00462026  1
  V  V56  1  0.25779456  0.87111684  0.63169990  1
  V  V57  1  0.12862987  0.62653513  0.49332433  1
  V  V58  1  0.36878885  0.62601497  0.74084074  1
  V  V59  1  0.87328031  0.49961505  0.87385187  1
  V  V60  1  0.69778103  0.31554012  0.57302615  1
  V  V61  1  0.75058337  0.87490562  0.11386234  1
  V  V62  1  0.87307482  0.11240860  0.75452725  1
  V  V63  1  0.87748035  0.74779838  0.11563866  1
  V  V64  1  -0.00198745  0.74413376  0.25177149  1
  V  V65  1  0.75120634  0.49806610  0.25322699  1
  V  V66  1  0.24955539  0.12540529  0.37420025  1
  V  V67  1  0.12496176  0.25481182  0.37728196  1
  V  V68  1  0.38267494  0.25008098  0.62925646  1
  V  V69  1  0.51043507  0.12073276  0.62736572  1
  V  V70  1  0.69269099  0.94150591  0.68510296  1
  V  V71  1  0.49011218  0.62675738  0.12094175  1
  V  V72  1  0.12607911  0.24958263  0.87446203  1
  V  V73  1  0.25700167  0.25465295  0.50072907  1
  V  V74  1  0.62985435  0.00349016  0.12812799  1
  V  V75  1  0.12460966  0.75164512  0.87481547  1
  V  V76  1  0.12401867  0.37632164  0.25028017  1
  V  V77  1  0.24955758  0.37798559  0.12504463  1
  V  V78  1  0.62279343  0.75094746  0.37252085  1
  V  V79  1  0.74070284  0.62142858  0.88190430  1
  V  V80  1  0.13194437  -0.00178548  0.63031062  1
  V  V81  1  0.00022849  0.37641352  0.87324827  1
  V  V82  1  -0.00162766  0.50109772  0.00322825  1
  V  V83  1  0.49994800  0.87745147  0.86607368  1
  V  V84  1  0.12213081  0.50510609  0.12487977  1
  Zn  Zn85  1  0.50084728  0.87875521  0.37260693  1
  Zn  Zn86  1  0.75241509  0.24867277  0.00248177  1
  Zn  Zn87  1  0.24511536  0.50996982  0.25649059  1
  Zn  Zn88  1  0.61064054  0.38088890  0.27789834  1
  Zn  Zn89  1  0.37196657  -0.00337856  0.87230428  1
  Zn  Zn90  1  0.49943349  0.25481543  0.28031396  1
  Zn  Zn91  1  0.63821366  0.24335179  0.38786033  1
  Zn  Zn92  1  -0.00352221  0.50466637  0.49829700  1
  Zn  Zn93  1  0.37565995  0.12519032  0.24871164  1
  Zn  Zn94  1  0.50102449  0.75297169  0.74400985  1
  Zn  Zn95  1  0.25504834  0.86958053  0.12645263  1
  Zn  Zn96  1  0.87515834  0.10855956  0.25293162  1
  Zn  Zn97  1  0.49675545  0.00028090  -0.00283443  1
  Zn  Zn98  1  0.25020389  0.24988578  -0.00187334  1
  Zn  Zn99  1  0.37746812  -0.00105105  0.37539202  1
  Zn  Zn100  1  0.74626846  0.74584985  -0.00110515  1
  Zn  Zn101  1  0.36608932  0.63068501  0.25606347  1
  Zn  Zn102  1  0.87218235  0.62575693  0.75036359  1
  Zn  Zn103  1  0.37276542  0.49720955  0.86643036  1
  Zn  Zn104  1  0.87581008  0.37193898  -0.00120623  1
  Zn  Zn105  1  -0.00279393  0.75224223  0.75139690  1
  Zn  Zn106  1  0.12458880  0.74976337  0.37446463  1
  Zn  Zn107  1  0.18706268  0.18907092  0.18596744  1
  Zn  Zn108  1  0.19074039  0.19049726  0.68796445  1
  Zn  Zn109  1  0.18717932  0.68667144  0.18759144  1
  Zn  Zn110  1  0.18879432  0.69311432  0.68534080  1
  Zn  Zn111  1  0.70795049  0.19958403  0.22957684  1
  Zn  Zn112  1  0.68708297  0.17565024  0.69703999  1
  Zn  Zn113  1  0.68692983  0.68746659  0.18540694  1
  Zn  Zn114  1  0.68653543  0.68859666  0.69191244  1
  Zn  Zn115  1  0.31610239  0.32176853  0.31375655  1
  Zn  Zn116  1  0.31308779  0.30584476  0.80935158  1
  Zn  Zn117  1  0.31317178  0.81316933  0.31798977  1
  Zn  Zn118  1  0.31518202  0.80634643  0.81511239  1
  Zn  Zn119  1  0.81490586  0.31460142  0.31786961  1
  Zn  Zn120  1  0.81014562  0.30894262  0.81228450  1
  Zn  Zn121  1  0.80711929  0.80748410  0.30621628  1
  Zn  Zn122  1  0.80442015  0.81174234  0.80910393  1
  Zn  Zn123  1  0.18689375  0.43822652  0.44302207  1
  Zn  Zn124  1  0.18784403  0.43774903  0.93825068  1
  Zn  Zn125  1  0.18870679  0.93669186  0.43935169  1
  Zn  Zn126  1  0.18950165  0.93655247  0.93805549  1
  Zn  Zn127  1  0.68490634  0.44072586  0.43577222  1
  Zn  Zn128  1  0.68722209  0.43382521  0.94153141  1
  Zn  Zn129  1  0.69152373  0.93687471  0.43764177  1
  Zn  Zn130  1  0.67997186  0.93476665  0.93820469  1
  Zn  Zn131  1  0.31135607  0.06096468  0.05858462  1
  Zn  Zn132  1  0.31435741  0.05989598  0.56282939  1
  Zn  Zn133  1  0.31196484  0.56144566  0.06110006  1
  Zn  Zn134  1  0.31392929  0.56350820  0.55941272  1
  Zn  Zn135  1  0.80738689  0.06605473  0.06782272  1
  Zn  Zn136  1  0.81007078  0.06611494  0.55709902  1
  Zn  Zn137  1  0.81438043  0.56340770  0.06298594  1
  Zn  Zn138  1  0.81145838  0.56386240  0.56427525  1
  Zn  Zn139  1  0.43599655  0.44115663  0.19053208  1
  Zn  Zn140  1  0.44011108  0.44385828  0.68569451  1
  Zn  Zn141  1  0.43992463  0.93602786  0.18515772  1
  Zn  Zn142  1  0.43869354  0.94197218  0.68717488  1
  Zn  Zn143  1  0.93718459  0.43520418  0.18804353  1
  Zn  Zn144  1  0.93981179  0.43929307  0.68657853  1
  Zn  Zn145  1  0.94297288  0.92896475  0.15913487  1
  Zn  Zn146  1  0.93870757  0.93302838  0.68802949  1
  Zn  Zn147  1  0.07037460  0.06847278  0.30962062  1
  Zn  Zn148  1  0.06054604  0.06024720  0.81501305  1
  Zn  Zn149  1  0.06052137  0.56319671  0.31189908  1
  Zn  Zn150  1  0.06260691  0.56285426  0.81047509  1
  Zn  Zn151  1  0.56972353  0.06711831  0.31450863  1
  Zn  Zn152  1  0.56215079  0.05913839  0.80780725  1
  Zn  Zn153  1  0.56155391  0.56594342  0.31098186  1
  Zn  Zn154  1  0.56052274  0.56338818  0.80898290  1
  Zn  Zn155  1  0.43213087  0.17373350  0.44007222  1
  Zn  Zn156  1  0.43847054  0.18998176  0.93938758  1
  Zn  Zn157  1  0.43533854  0.68578754  0.43501912  1
  Zn  Zn158  1  0.43618874  0.68591101  0.93350292  1
  Zn  Zn159  1  0.92891815  0.18709941  0.43757914  1
  Zn  Zn160  1  0.93790865  0.18463102  0.93864047  1
  Zn  Zn161  1  0.93980442  0.69060081  0.43616754  1
  Zn  Zn162  1  0.93687289  0.68485718  0.93323351  1
  Zn  Zn163  1  0.06070686  0.31313885  0.06204133  1
  Zn  Zn164  1  0.06306345  0.31419237  0.56301675  1
  Zn  Zn165  1  0.06327107  0.81474138  0.06509608  1
  Zn  Zn166  1  0.06216997  0.81240527  0.56310350  1
  Zn  Zn167  1  0.56846960  0.30817781  0.13735682  1
  Zn  Zn168  1  0.52486635  0.29188669  0.49824683  1
  Zn  Zn169  1  0.56334170  0.80981264  0.05625774  1
  Zn  Zn170  1  0.56689920  0.81923598  0.56528161  1
  O  O171  1  0.13024797  0.11793108  0.11428371  1
  O  O172  1  0.12180455  0.11757925  0.62362295  1
  O  O173  1  0.12654517  0.61197683  0.11489944  1
  O  O174  1  0.12028645  0.62018166  0.62087181  1
  O  O175  1  0.61641643  0.11847603  0.11846523  1
  O  O176  1  0.60819376  0.13289640  0.62793841  1
  O  O177  1  0.61938716  0.61189412  0.12777920  1
  O  O178  1  0.61850403  0.62233740  0.61940702  1
  O  O179  1  0.38136480  0.39364180  0.37406334  1
  O  O180  1  0.38025159  0.37354958  0.87783922  1
  O  O181  1  0.38036506  0.87987734  0.38459037  1
  O  O182  1  0.38113484  0.87453280  0.88320508  1
  O  O183  1  0.88369219  0.36945877  0.39021767  1
  O  O184  1  0.88092069  0.38180202  0.87529227  1
  O  O185  1  0.87922730  0.87270162  0.37645437  1
  O  O186  1  0.88638327  0.86418270  0.87471315  1
  O  O187  1  0.24625034  0.00940697  0.36627451  1
  O  O188  1  0.24934782  0.01410048  0.87664839  1
  O  O189  1  0.26156766  0.49646241  0.37838566  1
  O  O190  1  0.24853834  0.51354692  0.87679310  1
  O  O191  1  0.75642643  0.00774122  0.38040641  1
  O  O192  1  0.74725137  0.01033389  0.88484268  1
  O  O193  1  0.74654783  0.51082380  0.36673697  1
  O  O194  1  0.75341246  0.50320185  0.87112442  1
  O  O195  1  0.24108407  0.48967334  0.12138492  1
  O  O196  1  0.24477826  0.48977038  0.61965008  1
  O  O197  1  0.24132086  0.99824640  0.13157034  1
  O  O198  1  0.23677492  0.99152111  0.61945104  1
  O  O199  1  0.74565632  0.49763425  0.13138075  1
  O  O200  1  0.74040964  0.50712555  0.63589158  1
  O  O201  1  0.74065096  0.99013218  0.12190407  1
  O  O202  1  0.74980341  1.00121649  0.62450174  1
  O  O203  1  0.00501646  0.36938877  0.25866921  1
  O  O204  1  0.01221691  0.37230149  0.75400363  1
  O  O205  1  0.00392372  0.87407435  0.25738284  1
  O  O206  1  0.00839746  0.87404285  0.76170365  1
  O  O207  1  0.50625054  0.36333499  0.22802333  1
  O  O208  1  0.50863813  0.38191068  0.76187007  1
  O  O209  1  0.51070681  0.86743142  0.24816075  1
  O  O210  1  0.48935134  0.87109881  0.76151740  1
  O  O211  1  0.49586956  0.13013111  0.24359278  1
  O  O212  1  0.49197783  0.12322120  0.73443192  1
  O  O213  1  0.49995144  0.63346027  0.23949375  1
  O  O214  1  0.49167464  0.62687745  0.73903461  1
  O  O215  1  0.99929982  0.13944383  0.25430113  1
  O  O216  1  0.99650509  0.13204385  0.74666316  1
  O  O217  1  0.99080340  0.63058701  0.24987064  1
  O  O218  1  0.99949205  0.62810739  0.73794188  1
  O  O219  1  0.37239756  0.26180983  0.00840054  1
  O  O220  1  0.36101559  0.24313302  0.50663872  1
  O  O221  1  0.36534757  0.75617309  -0.00653105  1
  O  O222  1  0.36959765  0.76272766  0.49545082  1
  O  O223  1  0.87788035  0.24993969  0.01436022  1
  O  O224  1  0.88233063  0.25980840  0.51631729  1
  O  O225  1  0.87524946  0.74079849  0.01275912  1
  O  O226  1  0.87309358  0.75715940  0.50573177  1
  O  O227  1  0.13399486  0.24454144  0.49804193  1
  O  O228  1  0.12371781  0.24222664  0.99430319  1
  O  O229  1  0.13021569  0.74320586  0.49870317  1
  O  O230  1  0.12745477  0.74234775  0.99546439  1
  O  O231  1  0.63763027  0.25779433  0.51796411  1
  O  O232  1  0.62708605  0.23518974  0.99485421  1
  O  O233  1  0.62991193  0.74767882  0.49085608  1
  O  O234  1  0.62679466  0.74678600  0.98252990  1
  O  O235  1  0.48730455  0.23404340  0.11243839  1
  O  O236  1  0.48457482  0.23623889  0.60437514  1
  O  O237  1  0.50892624  0.73867328  0.13108883  1
  O  O238  1  0.50528350  0.73871227  0.62200628  1
  O  O239  1  0.98893193  0.25785891  0.13405229  1
  O  O240  1  0.99589790  0.24415999  0.63102656  1
  O  O241  1  0.98989886  0.76132107  0.13808805  1
  O  O242  1  0.99113200  0.74302123  0.62612384  1
  O  O243  1  0.00620704  0.25933385  0.37014111  1
  O  O244  1  0.00634957  0.25644292  0.87063562  1
  O  O245  1  0.00322683  0.74795741  0.35875486  1
  O  O246  1  0.00789386  0.75714668  0.87601702  1
  O  O247  1  0.50937639  0.24249148  0.39564491  1
  O  O248  1  0.51373770  0.25796898  0.87943476  1
  O  O249  1  0.51255234  0.75017201  0.36849147  1
  O  O250  1  0.50816275  0.75411528  0.87332012  1
  O  O251  1  0.24373869  0.12938892  0.49317291  1
  O  O252  1  0.23961436  0.12823771  0.99210346  1
  O  O253  1  0.24148648  0.63664507  0.50839609  1
  O  O254  1  0.24110899  0.62863894  0.99277398  1
  O  O255  1  0.76665164  0.13351320  0.47957723  1
  O  O256  1  0.74227495  0.12843099  0.99513122  1
  O  O257  1  0.74664410  0.63090228  0.49116482  1
  O  O258  1  0.75252828  0.62198692  0.98547288  1
  O  O259  1  0.25666929  0.37382510  0.00589812  1
  O  O260  1  0.24583346  0.36570067  0.51228171  1
  O  O261  1  0.25745965  0.86489175  -0.00119839  1
  O  O262  1  0.25723866  0.87107266  0.50761475  1
  O  O263  1  0.75557480  0.36981676  0.00917013  1
  O  O264  1  0.75572284  0.37423635  0.50948927  1
  O  O265  1  0.74483039  0.86965196  0.01047260  1
  O  O266  1  0.76788094  0.86729468  0.49203719  1
  O  O267  1  0.12232709  0.49527767  0.23998968  1
  O  O268  1  0.12330556  0.49356227  0.73758560  1
  O  O269  1  0.13306968  0.99588559  0.24280881  1
  O  O270  1  0.12116587  0.98809307  0.74388987  1
  O  O271  1  0.63264562  0.49673675  0.24386770  1
  O  O272  1  0.62900514  0.48900201  0.74441415  1
  O  O273  1  0.61607329  0.99091356  0.23610694  1
  O  O274  1  0.62973544  1.00102952  0.74027803  1
  O  O275  1  0.36249632  -0.00082321  0.24935248  1
  O  O276  1  0.37502474  0.01490415  0.75239870  1
  O  O277  1  0.37164121  0.50188697  0.26182247  1
  O  O278  1  0.37878774  0.51828622  0.75082053  1
  O  O279  1  0.89797041  -0.01311529  0.25570264  1
  O  O280  1  0.88719049  0.01429954  0.74815922  1
  O  O281  1  0.86912843  0.51147068  0.24451562  1
  O  O282  1  0.86627894  0.49936671  0.75513541  1
  O  O283  1  0.11926212  0.37135938  0.37241717  1
  O  O284  1  0.12296464  0.37171151  0.86645562  1
  O  O285  1  0.12924125  0.87586095  0.36048395  1
  O  O286  1  0.12298456  0.87001954  0.86935410  1
  O  O287  1  0.62792579  0.36029704  0.38642782  1
  O  O288  1  0.61889534  0.36746003  0.87052936  1
  O  O289  1  0.62508224  0.86785446  0.36563443  1
  O  O290  1  0.61388019  0.86286675  0.87750672  1
  O  O291  1  0.37748309  0.13351976  0.12468381  1
  O  O292  1  0.37487746  0.13086827  0.63199244  1
  O  O293  1  0.38743519  0.61868462  0.12761982  1
  O  O294  1  0.38066035  0.62409951  0.63307766  1
  O  O295  1  0.87399718  0.13886951  0.13183203  1
  O  O296  1  0.88154219  0.13333445  0.63261711  1
  O  O297  1  0.87058174  0.63336366  0.13534278  1
  O  O298  1  0.88451926  0.63112363  0.62563927  1
  O  O299  1  0.25547269  0.26189263  0.12338606  1
  O  O300  1  0.25761527  0.25836086  0.61863189  1
  O  O301  1  0.24222872  0.75099876  0.10828908  1
  O  O302  1  0.24433268  0.76358656  0.61242715  1
  O  O303  1  0.76475374  0.25959131  0.13131126  1
  O  O304  1  0.75589298  0.25142276  0.63086582  1
  O  O305  1  0.75602937  0.75415324  0.12089439  1
  O  O306  1  0.76273545  0.73866229  0.61749927  1
  O  O307  1  0.24700472  0.24713000  0.38115817  1
  O  O308  1  0.24106015  0.24228276  0.87654788  1
  O  O309  1  0.24424461  0.75570786  0.39064821  1
  O  O310  1  0.24219273  0.73924632  0.88403793  1
  O  O311  1  0.74649451  0.23318471  0.34654449  1
  O  O312  1  0.73713605  0.24562145  0.87866099  1
  O  O313  1  0.73994130  0.74326309  0.37789504  1
  O  O314  1  0.74021802  0.74022664  0.87460666  1
  O  O315  1  0.01410420  0.11281309  -0.00905593  1
  O  O316  1  0.00566114  0.11790349  0.50645879  1
  O  O317  1  0.01267916  0.61648538  -0.00699057  1
  O  O318  1  0.00696925  0.62593488  0.51008734  1
  O  O319  1  0.50643523  0.12112449  0.00460312  1
  O  O320  1  0.49426531  0.10766722  0.51186338  1
  O  O321  1  0.49247940  0.61235013  0.00480215  1
  O  O322  1  0.50589988  0.62019442  0.50554973  1
  O  O323  1  0.49955174  0.39874499  0.51659809  1
  O  O324  1  0.49033907  0.38479894  0.98562030  1
  O  O325  1  0.49343779  0.88534735  0.50249970  1
  O  O326  1  0.49227741  0.87507667  0.99017470  1
  O  O327  1  0.99392598  0.37734535  0.49426882  1
  O  O328  1  1.00120279  0.38437709  0.99016300  1
  O  O329  1  0.99200910  0.88189156  0.49861060  1
  O  O330  1  1.00588627  0.88954131  0.99356265  1
  O  O331  1  0.50441537  0.50046080  0.38861064  1
  O  O332  1  0.49924442  0.49371330  0.88100624  1
  O  O333  1  0.49980202  1.00183602  0.38805370  1
  O  O334  1  0.49828706  0.99085160  0.87615088  1
  O  O335  1  1.00310725  0.48665636  0.37792117  1
  O  O336  1  0.99468827  0.49651991  0.88091712  1
  O  O337  1  1.00655371  0.99722521  0.38053923  1
  O  O338  1  1.00275886  0.99127101  0.88831432  1
  O  O339  1  0.01575654  -0.00077734  0.11165086  1
  O  O340  1  0.01174398  0.00246677  0.61890822  1
  O  O341  1  0.00731108  0.49268531  0.11147964  1
  O  O342  1  0.00920231  0.50950521  0.62329601  1
  O  O343  1  0.50345595  0.01188584  0.12308376  1
  O  O344  1  0.49737622  0.01139616  0.61609683  1
  O  O345  1  0.50745086  0.50589978  0.11707183  1
  O  O346  1  0.50608202  0.51398726  0.61730970  1
  O  O347  1  0.24200192  0.38072651  0.24129194  1
  O  O348  1  0.23884003  0.36936435  0.74182621  1
  O  O349  1  0.24544320  0.88105670  0.24761535  1
  O  O350  1  0.24333498  0.86771772  0.74323307  1
  O  O351  1  0.75654317  0.39040680  0.24535721  1
  O  O352  1  0.74073690  0.38703698  0.75824595  1
  O  O353  1  0.73507001  0.86731921  0.23831102  1
  O  O354  1  0.75389534  0.88899482  0.74781207  1
  O  O355  1  0.24822902  0.11806069  0.25695004  1
  O  O356  1  0.25767581  0.13023380  0.75847348  1
  O  O357  1  0.25267906  0.62245718  0.24685651  1
  O  O358  1  0.25916630  0.63060111  0.75434013  1
  O  O359  1  0.76033537  0.10625100  0.25779996  1
  O  O360  1  0.76144734  0.12567134  0.76338668  1
  O  O361  1  0.75551501  0.61703482  0.25532168  1
  O  O362  1  0.74864915  0.61104618  0.76094697  1
  O  O363  1  0.36002210  0.12006925  0.37032375  1
  O  O364  1  0.36703402  0.12918653  0.86788768  1
  O  O365  1  0.38686913  0.60541488  0.37140352  1
  O  O366  1  0.36549235  0.62121067  0.86577137  1
  O  O367  1  0.86965031  0.12570283  0.36679136  1
  O  O368  1  0.86529696  0.13200303  0.86705203  1
  O  O369  1  0.86309152  0.63214416  0.36708893  1
  O  O370  1  0.86769727  0.61490722  0.87071693  1
  O  O371  1  0.13121560  0.38341530  0.12671261  1
  O  O372  1  0.13206510  0.38319787  0.63092557  1
  O  O373  1  0.12792702  0.88350067  0.13674192  1
  O  O374  1  0.13066359  0.88082408  0.63385948  1
  O  O375  1  0.64448869  0.38974835  0.12017160  1
  O  O376  1  0.63444328  0.37583517  0.63228171  1
  O  O377  1  0.62879002  0.88190705  0.12740891  1
  O  O378  1  0.63909635  0.87381813  0.62910535  1
  O  O379  1  0.11897326  0.25715243  0.25467570  1
  O  O380  1  0.11896094  0.25859351  0.75334330  1
  O  O381  1  0.11600860  0.75836059  0.24777873  1
  O  O382  1  0.12235511  0.76095985  0.75563617  1
  O  O383  1  0.61493755  0.26065871  0.23567887  1
  O  O384  1  0.62991854  0.26155938  0.75715249  1
  O  O385  1  0.61819323  0.75492935  0.25544974  1
  O  O386  1  0.62092340  0.74566129  0.76603715  1
  O  O387  1  0.37563348  0.25151938  0.23861210  1
  O  O388  1  0.37466653  0.23893323  0.73816206  1
  O  O389  1  0.39075549  0.75220783  0.25679148  1
  O  O390  1  0.38051496  0.73149318  0.75475696  1
  O  O391  1  0.88651663  0.25768293  0.23929930  1
  O  O392  1  0.88162160  0.24788072  0.74102285  1
  O  O393  1  0.87978389  0.73994083  0.24329120  1
  O  O394  1  0.87519130  0.74658266  0.74094768  1
  O  O395  1  0.38738610  0.50645679  0.49040095  1
  O  O396  1  0.37976342  0.48845575  0.99661267  1
  O  O397  1  0.37898837  0.98830077  0.49873903  1
  O  O398  1  0.37476405  0.98953427  0.99439496  1
  O  O399  1  0.87664118  0.48593783  0.50981477  1
  O  O400  1  0.88461531  0.49958457  0.99383148  1
  O  O401  1  0.89120045  0.99265052  0.50723659  1
  O  O402  1  0.89296681  1.00837625  1.01133279  1
  O  O403  1  0.12392474  0.00628123  0.00661195  1
  O  O404  1  0.11673242  0.00293789  0.50720293  1
  O  O405  1  0.11823627  0.50631396  0.00410093  1
  O  O406  1  0.12349087  0.50824816  0.51233544  1
  O  O407  1  0.62150301  0.00915763  0.01082543  1
  O  O408  1  0.61195399  -0.00854998  0.50106121  1
  O  O409  1  0.61402498  0.49656966  0.00666237  1
  O  O410  1  0.61903825  0.50986889  0.50568627  1
  O  O411  1  0.36731786  0.37176390  0.11687727  1
  O  O412  1  0.36745522  0.36710204  0.63523707  1
  O  O413  1  0.37471811  0.87660904  0.10999109  1
  O  O414  1  0.36359603  0.88121673  0.62099632  1
  O  O415  1  0.86713799  0.37119674  0.12203492  1
  O  O416  1  0.88095670  0.36539392  0.62053541  1
  O  O417  1  0.86146173  0.86103068  0.12933622  1
  O  O418  1  0.88146779  0.86383020  0.61615273  1
  O  O419  1  0.13407671  0.13384483  0.38102756  1
  O  O420  1  0.13127825  0.13025451  0.87831790  1
  O  O421  1  0.12019413  0.62339237  0.39029180  1
  O  O422  1  0.13012846  0.63039097  0.87902953  1
  O  O423  1  0.64476328  0.12577424  0.37392497  1
  O  O424  1  0.62907141  0.12904487  0.87937827  1
  O  O425  1  0.63418507  0.63292689  0.37818839  1
  O  O426  1  0.63015942  0.63193885  0.87190656  1
