# generated using pymatgen
data_V85Zn86O256
_symmetry_space_group_name_H-M   'P 1'
_cell_length_a   16.95713262
_cell_length_b   16.94209486
_cell_length_c   16.94920103
_cell_angle_alpha   89.95413815
_cell_angle_beta   90.04574715
_cell_angle_gamma   90.05489111
_symmetry_Int_Tables_number   1
_chemical_formula_structural   V85Zn86O256
_chemical_formula_sum   'V85 Zn86 O256'
_cell_volume   4869.31959623
_cell_formula_units_Z   1
loop_
 _symmetry_equiv_pos_site_id
 _symmetry_equiv_pos_as_xyz
  1  'x, y, z'
loop_
 _atom_site_type_symbol
 _atom_site_label
 _atom_site_symmetry_multiplicity
 _atom_site_fract_x
 _atom_site_fract_y
 _atom_site_fract_z
 _atom_site_occupancy
  V  V0  1  0.00016486  0.62234518  0.62279485  1
  V  V1  1  0.63301830  0.50164747  0.62978231  1
  V  V2  1  0.00052376  0.11780738  0.12878914  1
  V  V3  1  0.37612376  0.37643341  0.00326537  1
  V  V4  1  0.37338803  0.87553249  0.00484650  1
  V  V5  1  0.24809454  0.75329330  0.00643041  1
  V  V6  1  0.73975960  0.13022687  0.88104561  1
  V  V7  1  0.37466152  0.49962735  0.87512394  1
  V  V8  1  0.87464990  0.86501041  -0.00284931  1
  V  V9  1  0.23778968  0.74493059  0.50237405  1
  V  V10  1  0.62398874  0.63849333  0.49510373  1
  V  V11  1  0.24691065  0.24845295  0.50302733  1
  V  V12  1  0.37458763  0.50191216  0.37634907  1
  V  V13  1  0.87510713  -0.00818353  0.38532935  1
  V  V14  1  -0.00064661  0.25421045  0.75105750  1
  V  V15  1  0.12451004  0.37384508  0.74933854  1
  V  V16  1  0.24981710  0.50178296  0.74712025  1
  V  V17  1  0.87571496  0.24912578  0.11447561  1
  V  V18  1  0.75314492  0.37871275  0.12649050  1
  V  V19  1  0.50285964  0.50626413  -0.00050197  1
  V  V20  1  0.13462300  0.87842737  0.24700361  1
  V  V21  1  0.00288863  0.75097169  0.74903746  1
  V  V22  1  0.74836773  0.87285389  0.11990394  1
  V  V23  1  0.50625049  0.74865125  0.25137159  1
  V  V24  1  0.50524479  0.12629457  0.12276333  1
  V  V25  1  0.00009069  0.87040090  0.37936091  1
  V  V26  1  0.25014448  0.37753147  0.12749862  1
  V  V27  1  0.87651275  0.12388463  0.25175258  1
  V  V28  1  0.86759239  0.61146160  0.25317522  1
  V  V29  1  0.87814902  0.38095413  0.48339768  1
  V  V30  1  0.62444487  0.25212203  0.37781854  1
  V  V31  1  0.51135974  0.00448569  -0.00236996  1
  V  V32  1  0.37349162  0.24703994  0.13361955  1
  V  V33  1  0.23742886  0.63068154  0.37689886  1
  V  V34  1  0.62672812  0.00051148  0.62275377  1
  V  V35  1  0.62878785  0.38281083  0.25150518  1
  V  V36  1  0.63950011  0.74325447  0.88240652  1
  V  V37  1  -0.00264133  0.38772087  0.88882282  1
  V  V38  1  0.37735817  -0.00011070  0.87017913  1
  V  V39  1  0.23231579  0.87628916  0.62693058  1
  V  V40  1  0.25316003  0.12044360  0.37197577  1
  V  V41  1  0.72980177  0.24922583  0.00121080  1
  V  V42  1  0.63058698  0.87324326  0.25382003  1
  V  V43  1  0.74941507  -0.00051786  0.24865372  1
  V  V44  1  0.85955275  0.50153022  0.88336477  1
  V  V45  1  0.37910638  0.37412554  0.50087680  1
  V  V46  1  0.49765439  0.24376543  0.25381446  1
  V  V47  1  0.63167799  0.87069380  0.74752875  1
  V  V48  1  0.87491736  0.12942081  0.75137472  1
  V  V49  1  0.12421205  0.12338484  0.00477882  1
  V  V50  1  0.25002006  0.50249551  0.25050290  1
  V  V51  1  0.50288459  0.62534893  0.12264103  1
  V  V52  1  0.12257097  0.25305058  0.87916429  1
  V  V53  1  0.37763377  0.86505889  0.51160349  1
  V  V54  1  0.11673362  0.25152259  0.37737270  1
  V  V55  1  0.00110523  0.74816582  0.25429952  1
  V  V56  1  0.50188589  0.87037770  0.37659893  1
  V  V57  1  0.11810441  0.37646684  0.25552027  1
  V  V58  1  0.87571278  0.00109051  0.87918268  1
  V  V59  1  0.00857892  0.87361064  0.87001005  1
  V  V60  1  0.75446516  0.62461531  0.38313047  1
  V  V61  1  0.12386113  0.11191314  0.49948470  1
  V  V62  1  0.50309195  0.36791314  0.86583724  1
  V  V63  1  0.50571192  0.87421063  0.87255028  1
  V  V64  1  0.24585457  0.62679228  0.87609045  1
  V  V65  1  0.49917887  0.37476471  0.37626584  1
  V  V66  1  0.11741390  0.50013495  0.12000315  1
  V  V67  1  0.50807375  0.13247206  0.62865119  1
  V  V68  1  0.75290575  0.25649655  0.50188846  1
  V  V69  1  0.75952416  0.87006085  0.60875318  1
  V  V70  1  0.00318579  0.49713823  0.48721973  1
  V  V71  1  0.86253192  0.61764839  0.74977632  1
  V  V72  1  0.37261339  -0.00266591  0.37385216  1
  V  V73  1  0.75120831  0.00423037  0.74701600  1
  V  V74  1  0.00137436  0.11918046  0.62349962  1
  V  V75  1  0.38102318  0.12628373  0.74833747  1
  V  V76  1  0.74996971  0.12435925  0.37437403  1
  V  V77  1  0.87223398  0.74679119  0.13003557  1
  V  V78  1  0.37227145  0.25037981  0.63059412  1
  V  V79  1  0.25023054  0.25216226  0.00080358  1
  V  V80  1  0.62531341  0.12582891  0.49916333  1
  V  V81  1  0.11499598  0.62474978  0.00002776  1
  V  V82  1  0.12343531  0.50293253  0.62104135  1
  V  V83  1  0.24722302  0.12429569  0.86922751  1
  V  V84  1  0.37694265  0.62720860  0.25217579  1
  Zn  Zn85  1  0.15144619  -0.00877479  0.12484848  1
  Zn  Zn86  1  0.64060395  0.62358290  -0.00121348  1
  Zn  Zn87  1  0.24867718  0.37456646  0.62442025  1
  Zn  Zn88  1  0.87467609  0.74632412  0.61035073  1
  Zn  Zn89  1  0.49812180  -0.00057784  0.50122798  1
  Zn  Zn90  1  0.31458551  0.06112081  0.20777025  1
  Zn  Zn91  1  0.50472170  0.50379655  0.50162463  1
  Zn  Zn92  1  0.62535803  0.36690479  0.75189852  1
  Zn  Zn93  1  0.00278642  -0.00565224  0.00483367  1
  Zn  Zn94  1  0.76111172  0.39118913  0.63986476  1
  Zn  Zn95  1  -0.00439275  0.25300755  0.25414200  1
  Zn  Zn96  1  0.37502216  0.75275727  0.12532358  1
  Zn  Zn97  1  0.12482853  0.75583722  0.87176301  1
  Zn  Zn98  1  0.62810030  0.00446897  0.12258537  1
  Zn  Zn99  1  0.23763364  -0.01210021  0.74920172  1
  Zn  Zn100  1  -0.00352349  0.62302816  0.12153266  1
  Zn  Zn101  1  0.49672975  0.74921967  0.74456617  1
  Zn  Zn102  1  0.87905697  0.25792266  0.62223659  1
  Zn  Zn103  1  0.49748471  0.63058338  0.62592403  1
  Zn  Zn104  1  0.63128915  0.50356709  0.12694172  1
  Zn  Zn105  1  -0.00082005  -0.01009607  0.50730705  1
  Zn  Zn106  1  0.37306204  0.63725863  0.73829150  1
  Zn  Zn107  1  0.18323289  0.19017274  0.18946129  1
  Zn  Zn108  1  0.17543169  0.15856589  0.69959903  1
  Zn  Zn109  1  0.18624855  0.68966259  0.18724519  1
  Zn  Zn110  1  0.18619394  0.68881546  0.68429022  1
  Zn  Zn111  1  0.68616248  0.19159856  0.18920735  1
  Zn  Zn112  1  0.70050720  0.22087006  0.70648095  1
  Zn  Zn113  1  0.69055402  0.68853065  0.18952941  1
  Zn  Zn114  1  0.68459049  0.68998828  0.68168316  1
  Zn  Zn115  1  0.30708088  0.31177584  0.31533607  1
  Zn  Zn116  1  0.31389841  0.31387247  0.81084561  1
  Zn  Zn117  1  0.31551545  0.80951666  0.31712541  1
  Zn  Zn118  1  0.30836317  0.81403517  0.81204389  1
  Zn  Zn119  1  0.81257576  0.31181608  0.31106890  1
  Zn  Zn120  1  0.81402744  0.31762075  0.82229495  1
  Zn  Zn121  1  0.81054975  0.79964785  0.42685775  1
  Zn  Zn122  1  0.81972338  0.81326897  0.80139340  1
  Zn  Zn123  1  0.18874382  0.43721762  0.43798885  1
  Zn  Zn124  1  0.18550611  0.43863759  0.93775155  1
  Zn  Zn125  1  0.18787701  0.92981416  0.43163094  1
  Zn  Zn126  1  0.18970047  0.94082034  0.94004904  1
  Zn  Zn127  1  0.69054459  0.44786354  0.43872740  1
  Zn  Zn128  1  0.68326305  0.43220926  0.94163160  1
  Zn  Zn129  1  0.68383344  0.93894359  0.43486145  1
  Zn  Zn130  1  0.69173525  0.93784092  0.93575080  1
  Zn  Zn131  1  0.32079698  0.06704354  0.04689214  1
  Zn  Zn132  1  0.31220585  0.05605354  0.56073432  1
  Zn  Zn133  1  0.31208930  0.56672066  0.06250228  1
  Zn  Zn134  1  0.31118126  0.56394237  0.56028420  1
  Zn  Zn135  1  0.81230638  0.06224335  0.06070009  1
  Zn  Zn136  1  0.81223448  0.06756548  0.56429334  1
  Zn  Zn137  1  0.81721110  0.55852656  0.06391356  1
  Zn  Zn138  1  0.81528511  0.56308602  0.55804837  1
  Zn  Zn139  1  0.44080781  0.43800232  0.18985401  1
  Zn  Zn140  1  0.43765861  0.45217723  0.68224245  1
  Zn  Zn141  1  0.44292481  0.93572332  0.18620111  1
  Zn  Zn142  1  0.44094179  0.93905789  0.68679221  1
  Zn  Zn143  1  0.93784032  0.43425130  0.18411150  1
  Zn  Zn144  1  0.93506105  0.43869590  0.68692443  1
  Zn  Zn145  1  0.93650597  0.93369054  0.19174751  1
  Zn  Zn146  1  0.93647715  0.93859391  0.68932572  1
  Zn  Zn147  1  0.06438072  0.05555604  0.31334081  1
  Zn  Zn148  1  0.05943697  0.06211846  0.81540963  1
  Zn  Zn149  1  0.06128616  0.56453317  0.30652575  1
  Zn  Zn150  1  0.06094060  0.56590301  0.80914048  1
  Zn  Zn151  1  0.55943443  0.05944149  0.31262929  1
  Zn  Zn152  1  0.56451339  0.06336988  0.80793639  1
  Zn  Zn153  1  0.56768728  0.56324515  0.31958643  1
  Zn  Zn154  1  0.56414013  0.56171420  0.80700061  1
  Zn  Zn155  1  0.43589198  0.18554597  0.44211862  1
  Zn  Zn156  1  0.43868669  0.18898853  0.94046679  1
  Zn  Zn157  1  0.43682010  0.68955901  0.43949611  1
  Zn  Zn158  1  0.42438660  0.70298767  0.90556677  1
  Zn  Zn159  1  0.93651631  0.18584343  0.43887674  1
  Zn  Zn160  1  0.93907585  0.18768329  0.93777115  1
  Zn  Zn161  1  0.94191062  0.67889269  0.43489193  1
  Zn  Zn162  1  0.81462061  0.68482314  0.93452876  1
  Zn  Zn163  1  0.06038343  0.31088118  0.06809065  1
  Zn  Zn164  1  0.06007333  0.31315763  0.56343275  1
  Zn  Zn165  1  0.06045766  0.81118685  0.06394458  1
  Zn  Zn166  1  0.05911074  0.80651018  0.56078727  1
  Zn  Zn167  1  0.56001084  0.31878639  0.06435008  1
  Zn  Zn168  1  0.57744911  0.30116478  0.59272736  1
  Zn  Zn169  1  0.56335783  0.81188757  0.06054254  1
  Zn  Zn170  1  0.56350199  0.80988678  0.56642757  1
  O  O171  1  0.11853431  0.12461287  0.11902644  1
  O  O172  1  0.11285130  0.13456700  0.60831536  1
  O  O173  1  0.12553018  0.61651034  0.11846917  1
  O  O174  1  0.11717573  0.61095919  0.62906943  1
  O  O175  1  0.60954820  0.12570365  0.13209966  1
  O  O176  1  0.61932994  0.11929674  0.61859315  1
  O  O177  1  0.61397036  0.62446838  0.12542333  1
  O  O178  1  0.62675855  0.61909108  0.61372550  1
  O  O179  1  0.37716017  0.38022935  0.38052626  1
  O  O180  1  0.37686963  0.38503281  0.88273050  1
  O  O181  1  0.38168967  0.87880118  0.38470642  1
  O  O182  1  0.38660122  0.88461934  0.87833035  1
  O  O183  1  0.87770847  0.37302524  0.38384285  1
  O  O184  1  0.88912501  0.38914941  0.87011502  1
  O  O185  1  0.88189700  0.88294688  0.37413362  1
  O  O186  1  0.87835336  0.88277221  0.88070381  1
  O  O187  1  0.25865230  0.00710592  0.37893410  1
  O  O188  1  0.26141404  0.00590688  0.87213891  1
  O  O189  1  0.25561876  0.50768585  0.37053912  1
  O  O190  1  0.25355513  0.50408920  0.86774270  1
  O  O191  1  0.75661551  0.00403278  0.36811299  1
  O  O192  1  0.76020305  0.00849880  0.86978211  1
  O  O193  1  0.74006889  0.52232705  0.36643551  1
  O  O194  1  0.76094695  0.48686084  0.87642745  1
  O  O195  1  0.24528377  0.49659999  0.13271677  1
  O  O196  1  0.24094506  0.49764290  0.63093176  1
  O  O197  1  0.26229476  1.01079006  0.12337874  1
  O  O198  1  0.25281761  0.98017218  0.62449808  1
  O  O199  1  0.75126256  0.48215059  0.12174897  1
  O  O200  1  0.74000049  0.50573157  0.62289123  1
  O  O201  1  0.74918388  0.99517309  0.13147017  1
  O  O202  1  0.74689278  0.99353772  0.62782839  1
  O  O203  1  0.01417491  0.37220383  0.24599162  1
  O  O204  1  0.00520760  0.36836525  0.75603480  1
  O  O205  1  0.00203280  0.86413480  0.25777683  1
  O  O206  1  -0.00826450  0.86614158  0.75711421  1
  O  O207  1  0.50577942  0.36351397  0.25579321  1
  O  O208  1  0.49173198  0.38470482  0.76571176  1
  O  O209  1  0.50858639  0.86800875  0.25527419  1
  O  O210  1  0.51271973  0.87845939  0.75704141  1
  O  O211  1  0.50052531  0.13797157  0.24706313  1
  O  O212  1  0.49127885  0.12415682  0.74210636  1
  O  O213  1  0.49892274  0.63160906  0.24654630  1
  O  O214  1  0.49433805  0.62842300  0.75103663  1
  O  O215  1  0.99355672  0.12492984  0.24585084  1
  O  O216  1  0.98921685  0.13228636  0.74659073  1
  O  O217  1  0.99354292  0.63390664  0.24689951  1
  O  O218  1  0.99310012  0.62823769  0.73937058  1
  O  O219  1  0.36993016  0.25514342  0.01331001  1
  O  O220  1  0.36457689  0.25476612  0.50515457  1
  O  O221  1  0.36880173  0.76021661  -0.00576201  1
  O  O222  1  0.36681118  0.76260472  0.49712131  1
  O  O223  1  0.87304989  0.24498749  0.01276253  1
  O  O224  1  0.87150866  0.26216353  0.49658992  1
  O  O225  1  0.87325858  0.76151588  0.00586360  1
  O  O226  1  0.87933090  0.74643824  0.49743132  1
  O  O227  1  0.13060449  0.24689035  0.49379714  1
  O  O228  1  0.13115286  0.24433861  1.00101374  1
  O  O229  1  0.13899133  0.75053425  0.49803573  1
  O  O230  1  0.13247192  0.74526324  0.99802178  1
  O  O231  1  0.63331595  0.24697477  0.49669094  1
  O  O232  1  0.63131126  0.24698644  1.00550764  1
  O  O233  1  0.63043236  0.73752753  0.50488867  1
  O  O234  1  0.62787524  0.75102933  0.98499717  1
  O  O235  1  0.49244496  0.24628130  0.13166254  1
  O  O236  1  0.48210485  0.23397884  0.60477034  1
  O  O237  1  0.49821353  0.74236880  0.13016185  1
  O  O238  1  0.50008522  0.74796740  0.63134776  1
  O  O239  1  0.99260111  0.23817506  0.12947513  1
  O  O240  1  0.99846354  0.24182396  0.63494378  1
  O  O241  1  0.98730567  0.75001421  0.13110908  1
  O  O242  1  0.99743392  0.73950248  0.62879979  1
  O  O243  1  0.01354665  0.24465068  0.37458057  1
  O  O244  1  0.00353115  0.25984409  0.87041337  1
  O  O245  1  -0.00270554  0.75323002  0.36093206  1
  O  O246  1  0.00373045  0.76271410  0.86455916  1
  O  O247  1  0.50135747  0.25368815  0.36989493  1
  O  O248  1  0.48942075  0.26961633  0.87950478  1
  O  O249  1  0.49578577  0.76228199  0.36659539  1
  O  O250  1  0.51934003  0.76681054  0.87676445  1
  O  O251  1  0.24210914  0.12920304  0.49503209  1
  O  O252  1  0.24409481  0.13354764  0.98995810  1
  O  O253  1  0.25236802  0.63738582  0.49366556  1
  O  O254  1  0.24468487  0.63352650  0.99292191  1
  O  O255  1  0.74437333  0.13134539  0.49185826  1
  O  O256  1  0.75153718  0.13620437  0.99468926  1
  O  O257  1  0.74503873  0.62519004  0.49038335  1
  O  O258  1  0.75232651  0.62775574  1.00629297  1
  O  O259  1  0.25517902  0.37053518  0.00704440  1
  O  O260  1  0.25967229  0.36586612  0.50091188  1
  O  O261  1  0.26132320  0.86689647  -0.00930404  1
  O  O262  1  0.25655749  0.86561933  0.50701055  1
  O  O263  1  0.74378147  0.35790431  0.01016795  1
  O  O264  1  0.76372076  0.37141105  0.49406208  1
  O  O265  1  0.75805473  0.88252004  0.01233119  1
  O  O266  1  0.74973427  0.87483248  0.50491090  1
  O  O267  1  0.13107881  0.49404845  0.24326641  1
  O  O268  1  0.13446289  0.49584267  0.74477781  1
  O  O269  1  0.12582329  0.98486772  0.24568587  1
  O  O270  1  0.14756194  1.05401624  0.75147496  1
  O  O271  1  0.61584522  0.48578404  0.24780086  1
  O  O272  1  0.62512860  0.49365222  0.73520890  1
  O  O273  1  0.62947208  0.99154461  0.24727504  1
  O  O274  1  0.63285834  0.99201400  0.74313247  1
  O  O275  1  0.38386133  -0.00652465  0.26672602  1
  O  O276  1  0.37487758  0.00759293  0.75825966  1
  O  O277  1  0.37031734  0.50460746  0.25762879  1
  O  O278  1  0.36012892  0.49518114  0.75941001  1
  O  O279  1  0.86946158  0.00911427  0.25638001  1
  O  O280  1  0.86935574  0.01047739  0.75751120  1
  O  O281  1  0.88383476  0.51384786  0.24544788  1
  O  O282  1  0.87864748  0.51135510  0.75825719  1
  O  O283  1  0.13345532  0.36461640  0.36657442  1
  O  O284  1  0.11654017  0.37121554  0.87039648  1
  O  O285  1  0.11373424  0.87725001  0.35993890  1
  O  O286  1  0.11184592  0.88263986  0.87582649  1
  O  O287  1  0.62054491  0.37044606  0.37114776  1
  O  O288  1  0.60764192  0.37782639  0.87179851  1
  O  O289  1  0.61717496  0.87778148  0.36363882  1
  O  O290  1  0.62457447  0.87268180  0.86637810  1
  O  O291  1  0.38436171  0.13329199  0.12896629  1
  O  O292  1  0.37986212  0.12795733  0.63080025  1
  O  O293  1  0.38718990  0.62554333  0.13295964  1
  O  O294  1  0.38332043  0.60544465  0.63086246  1
  O  O295  1  0.88089384  0.12876552  0.13248462  1
  O  O296  1  0.88122758  0.13117738  0.63464045  1
  O  O297  1  0.87735925  0.63060866  0.13456726  1
  O  O298  1  0.88295440  0.62166343  0.63361587  1
  O  O299  1  0.25708362  0.25453531  0.12331448  1
  O  O300  1  0.25536495  0.24751718  0.61362791  1
  O  O301  1  0.25607866  0.74405612  0.11044922  1
  O  O302  1  0.24755943  0.75898823  0.61369475  1
  O  O303  1  0.75523552  0.25066628  0.11540069  1
  O  O304  1  0.75834326  0.24326070  0.60505717  1
  O  O305  1  0.76203402  0.76090640  0.13265472  1
  O  O306  1  0.75383491  0.76832524  0.62834847  1
  O  O307  1  0.24433712  0.24200895  0.38710259  1
  O  O308  1  0.24314833  0.24738676  0.88014554  1
  O  O309  1  0.25476612  0.74259276  0.38968626  1
  O  O310  1  0.24338185  0.74146301  0.88249051  1
  O  O311  1  0.74557941  0.24420766  0.38329265  1
  O  O312  1  0.75520568  0.24460961  0.89471525  1
  O  O313  1  0.74933163  0.72697834  0.36297060  1
  O  O314  1  0.74326106  0.75718584  0.87213692  1
  O  O315  1  0.00866891  0.12334435  0.00882854  1
  O  O316  1  0.00573199  0.12245986  0.50754959  1
  O  O317  1  0.01629790  0.63018209  0.00197370  1
  O  O318  1  -0.00331454  0.60742689  0.51057456  1
  O  O319  1  0.49488454  0.11675088  0.00906260  1
  O  O320  1  0.51025916  0.12140980  0.50441655  1
  O  O321  1  0.49881033  0.61470203  0.00650568  1
  O  O322  1  0.51335213  0.62664625  0.49646029  1
  O  O323  1  0.48652710  0.37086108  0.49449119  1
  O  O324  1  0.49401117  0.38699850  0.99528825  1
  O  O325  1  0.49239150  0.87327349  0.49400362  1
  O  O326  1  0.49673821  0.88347528  0.99119550  1
  O  O327  1  0.99001121  0.38481136  0.50151301  1
  O  O328  1  1.00562612  0.37234279  0.98689262  1
  O  O329  1  1.00722773  0.87424476  0.48518126  1
  O  O330  1  0.99162135  0.87569201  0.99043802  1
  O  O331  1  0.49254683  0.49242514  0.37804713  1
  O  O332  1  0.49055793  0.49706100  0.88244848  1
  O  O333  1  0.49473184  0.98733818  0.37831590  1
  O  O334  1  0.49882493  0.99454643  0.87809348  1
  O  O335  1  1.01054339  0.50242297  0.38889298  1
  O  O336  1  1.00360374  0.48861022  0.87341209  1
  O  O337  1  0.99021818  0.98957382  0.37486543  1
  O  O338  1  0.98864292  0.99575662  0.87518989  1
  O  O339  1  -0.00493577  0.01219794  0.12580362  1
  O  O340  1  -0.00487451  0.01359459  0.62520441  1
  O  O341  1  0.01383057  0.49977752  0.12525985  1
  O  O342  1  0.00732112  0.50418313  0.62025788  1
  O  O343  1  0.50056928  0.00893937  0.11558036  1
  O  O344  1  0.50691665  0.01235771  0.62364602  1
  O  O345  1  0.50100242  0.50712495  0.11804628  1
  O  O346  1  0.51680578  0.50288311  0.61879756  1
  O  O347  1  0.24129216  0.38069224  0.24550993  1
  O  O348  1  0.24218127  0.38201597  0.74849568  1
  O  O349  1  0.23272235  0.86035668  0.25426460  1
  O  O350  1  0.24998750  0.87176604  0.73377872  1
  O  O351  1  0.73873482  0.36341755  0.24062502  1
  O  O352  1  0.74032963  0.33762816  0.74112852  1
  O  O353  1  0.73966442  0.88262804  0.23865840  1
  O  O354  1  0.74632989  0.88452344  0.74233457  1
  O  O355  1  0.24913647  0.13411249  0.26697038  1
  O  O356  1  0.27331870  0.14022435  0.75756994  1
  O  O357  1  0.25727858  0.62428354  0.25635550  1
  O  O358  1  0.25034293  0.61911029  0.75786435  1
  O  O359  1  0.75584912  0.12085750  0.25461983  1
  O  O360  1  0.76143139  0.13124273  0.75620507  1
  O  O361  1  0.76429454  0.62281240  0.24854420  1
  O  O362  1  0.76493378  0.63120199  0.74294752  1
  O  O363  1  0.36522961  0.11335544  0.38466291  1
  O  O364  1  0.37433701  0.11906561  0.86903203  1
  O  O365  1  0.37074922  0.61863754  0.37026401  1
  O  O366  1  0.36000697  0.60827826  0.88284974  1
  O  O367  1  0.87043343  0.11903142  0.36759538  1
  O  O368  1  0.87141034  0.11908648  0.86995584  1
  O  O369  1  0.86825142  0.62179703  0.36233078  1
  O  O370  1  0.87247642  0.61274585  0.86209148  1
  O  O371  1  0.13148577  0.38088059  0.13105202  1
  O  O372  1  0.12479074  0.38282136  0.63250967  1
  O  O373  1  0.11746473  0.87812765  0.13963912  1
  O  O374  1  0.13374421  0.87576781  0.62071473  1
  O  O375  1  0.63237574  0.37436307  0.13514107  1
  O  O376  1  0.63883587  0.39585727  0.61187372  1
  O  O377  1  0.63241984  0.87648253  0.13011632  1
  O  O378  1  0.63689303  0.88099898  0.62939435  1
  O  O379  1  0.12398720  0.25882712  0.25957185  1
  O  O380  1  0.11407066  0.24962274  0.75762465  1
  O  O381  1  0.10723066  0.75545601  0.23995166  1
  O  O382  1  0.10895185  0.74198613  0.75121770  1
  O  O383  1  0.61589120  0.25697127  0.25870670  1
  O  O384  1  0.59831724  0.26344547  0.70240853  1
  O  O385  1  0.61382029  0.75836405  0.24456431  1
  O  O386  1  0.62988457  0.76232165  0.75847967  1
  O  O387  1  0.38076931  0.25715836  0.24120222  1
  O  O388  1  0.37727931  0.24895640  0.73554777  1
  O  O389  1  0.38757678  0.74678419  0.24759798  1
  O  O390  1  0.38773348  0.73932551  0.79265101  1
  O  O391  1  0.87495406  0.23606514  0.24503926  1
  O  O392  1  0.88753255  0.24572494  0.75457989  1
  O  O393  1  0.88864214  0.74048364  0.24071963  1
  O  O394  1  0.88616866  0.73602883  0.74662848  1
  O  O395  1  0.37420864  0.48965376  0.49115666  1
  O  O396  1  0.37894014  0.49445028  0.99517261  1
  O  O397  1  0.37663445  0.98592136  0.49149378  1
  O  O398  1  0.38723820  0.99498246  0.98481706  1
  O  O399  1  0.88710698  0.48949690  0.49770085  1
  O  O400  1  0.87888151  0.50391101  0.98147658  1
  O  O401  1  0.87655754  1.00785032  0.48775785  1
  O  O402  1  0.87741362  0.99186046  0.99205516  1
  O  O403  1  0.12395459  0.00953323  0.00616089  1
  O  O404  1  0.12283022  0.00943651  0.49215065  1
  O  O405  1  0.13507735  0.51043730  0.01048977  1
  O  O406  1  0.11396064  0.48990658  0.50891753  1
  O  O407  1  0.61471182  -0.00238218  -0.00014161  1
  O  O408  1  0.62437963  0.00720236  0.50613220  1
  O  O409  1  0.61605155  0.50338138  0.00369730  1
  O  O410  1  0.62479933  0.51409397  0.50608045  1
  O  O411  1  0.37061378  0.36906853  0.12269890  1
  O  O412  1  0.37373238  0.36836604  0.61776978  1
  O  O413  1  0.38415202  0.87386334  0.10800235  1
  O  O414  1  0.37540612  0.87857841  0.61256878  1
  O  O415  1  0.86648778  0.36063028  0.13418480  1
  O  O416  1  0.87326061  0.37509149  0.61353935  1
  O  O417  1  0.86896787  0.86957214  0.11881986  1
  O  O418  1  0.86108911  0.87831926  0.62471889  1
  O  O419  1  0.13114536  0.13055905  0.38131282  1
  O  O420  1  0.12393599  0.13417066  0.89205047  1
  O  O421  1  0.13880735  0.62312125  0.36781604  1
  O  O422  1  0.13461590  0.62156173  0.88173583  1
  O  O423  1  0.62889584  0.13052434  0.37939963  1
  O  O424  1  0.64102265  0.12350331  0.86682480  1
  O  O425  1  0.63213659  0.62841974  0.38811991  1
  O  O426  1  0.62462738  0.64138550  0.87433627  1
