# generated using pymatgen
data_V85Zn86O256
_symmetry_space_group_name_H-M   'P 1'
_cell_length_a   16.94954890
_cell_length_b   16.95097993
_cell_length_c   16.96265907
_cell_angle_alpha   90.02802668
_cell_angle_beta   89.98887795
_cell_angle_gamma   90.03211604
_symmetry_Int_Tables_number   1
_chemical_formula_structural   V85Zn86O256
_chemical_formula_sum   'V85 Zn86 O256'
_cell_volume   4873.56495832
_cell_formula_units_Z   1
loop_
 _symmetry_equiv_pos_site_id
 _symmetry_equiv_pos_as_xyz
  1  'x, y, z'
loop_
 _atom_site_type_symbol
 _atom_site_label
 _atom_site_symmetry_multiplicity
 _atom_site_fract_x
 _atom_site_fract_y
 _atom_site_fract_z
 _atom_site_occupancy
  V  V0  1  0.74926172  0.76509843  0.50099590  1
  V  V1  1  0.87149911  0.49786532  0.88235676  1
  V  V2  1  0.12557497  0.24862980  0.37239857  1
  V  V3  1  0.75304401  0.75047922  0.00691274  1
  V  V4  1  -0.00139517  0.50650662  0.50473447  1
  V  V5  1  0.87758986  0.74569297  0.62704946  1
  V  V6  1  0.39197921  0.88134953  0.49348471  1
  V  V7  1  0.11731647  0.62856132  0.00433709  1
  V  V8  1  0.62680226  0.62478920  0.50040111  1
  V  V9  1  -0.00536016  0.37101164  0.88416707  1
  V  V10  1  0.36975701  0.12255011  0.75067851  1
  V  V11  1  0.87212548  0.00897434  0.87044574  1
  V  V12  1  0.50164792  0.49163728  0.49897040  1
  V  V13  1  -0.00337235  0.87342169  0.87225404  1
  V  V14  1  0.25206884  0.24901816  0.50141117  1
  V  V15  1  0.87717198  0.63076922  0.23601561  1
  V  V16  1  0.12264679  0.50505183  0.62888839  1
  V  V17  1  0.12508921  0.00643522  0.11712574  1
  V  V18  1  0.25256619  0.37306157  0.62818718  1
  V  V19  1  0.25112586  0.37043335  0.12572955  1
  V  V20  1  0.62311425  0.37220087  0.25557851  1
  V  V21  1  0.88116116  0.61059260  0.74535511  1
  V  V22  1  0.75136476  0.25288075  -0.00366045  1
  V  V23  1  0.24901751  0.86746951  0.12049775  1
  V  V24  1  0.62463033  -0.00371852  0.62360972  1
  V  V25  1  0.87143704  0.37043264  0.50131480  1
  V  V26  1  0.37599471  0.74636599  0.62909369  1
  V  V27  1  0.25248426  0.87545700  0.62048328  1
  V  V28  1  0.12140974  0.75063979  0.37410695  1
  V  V29  1  -0.00431328  0.74995753  0.23750762  1
  V  V30  1  0.49877741  0.37281258  0.87404544  1
  V  V31  1  0.00122423  0.37706840  0.37476819  1
  V  V32  1  0.74918694  0.24473926  0.49565100  1
  V  V33  1  0.12546287  0.87181715  0.74706393  1
  V  V34  1  0.12287715  0.11954678  0.49911878  1
  V  V35  1  0.25002136  0.62527178  0.37525650  1
  V  V36  1  0.49739068  0.62254493  0.63233569  1
  V  V37  1  0.37906808  0.49472575  0.37469644  1
  V  V38  1  0.12878832  0.75096276  0.88010878  1
  V  V39  1  0.50072819  0.62948607  0.13213475  1
  V  V40  1  0.75626433  0.00004645  0.73548261  1
  V  V41  1  0.62755777  0.87228434  0.74917224  1
  V  V42  1  0.62403959  0.49930693  0.12622763  1
  V  V43  1  0.25430245  0.50607795  0.75254993  1
  V  V44  1  0.12295989  0.62472914  0.50278243  1
  V  V45  1  0.62516721  0.62697759  -0.00006605  1
  V  V46  1  0.25112969  0.74982349  0.49873623  1
  V  V47  1  0.12288066  0.37269984  0.75932364  1
  V  V48  1  0.74911665  0.62438224  0.86728516  1
  V  V49  1  0.74969410  0.50139722  0.25085074  1
  V  V50  1  0.37588952  0.50530303  0.87407261  1
  V  V51  1  0.87618754  0.87256111  0.00219039  1
  V  V52  1  0.48611714  0.12257831  0.12380421  1
  V  V53  1  0.49855237  0.49958220  0.00188305  1
  V  V54  1  0.37412542  0.24774375  0.62476180  1
  V  V55  1  0.25029377  0.50365349  0.24801161  1
  V  V56  1  0.48560171  0.25069454  0.24446566  1
  V  V57  1  0.87462172  0.50315397  0.37467380  1
  V  V58  1  0.75129755  0.63042042  0.37511094  1
  V  V59  1  0.62390126  0.24575712  0.37048695  1
  V  V60  1  0.50115088  0.11714171  0.62140025  1
  V  V61  1  0.75267370  0.88936415  0.12558175  1
  V  V62  1  0.37748849  0.75038728  0.13071704  1
  V  V63  1  0.87360423  0.11921640  0.25988806  1
  V  V64  1  -0.06139129  0.05842100  0.56033550  1
  V  V65  1  0.75433202  0.37512405  0.12157348  1
  V  V66  1  0.61502012  0.87538328  0.24687971  1
  V  V67  1  0.63067523  0.11647486  0.00633697  1
  V  V68  1  0.25234599  0.62831576  0.88227101  1
  V  V69  1  0.87488986  0.24764715  0.12441973  1
  V  V70  1  0.26057958  0.11793917  0.37034702  1
  V  V71  1  0.12532468  0.87722525  0.24880672  1
  V  V72  1  0.88173312  0.87202497  0.50110806  1
  V  V73  1  0.62258711  0.12123162  0.49419678  1
  V  V74  1  0.62910673  0.49921123  0.63329936  1
  V  V75  1  0.12194911  -0.00109688  0.61836477  1
  V  V76  1  0.75072810  0.00020353  0.27370344  1
  V  V77  1  0.50855272  0.24671301  0.74953660  1
  V  V78  1  0.37503000  0.86883328  -0.00436368  1
  V  V79  1  0.74979936  0.37321236  0.63095805  1
  V  V80  1  0.37490739  0.36526067  0.00518488  1
  V  V81  1  0.24442711  0.12481843  0.88450941  1
  V  V82  1  -0.00247047  0.88764296  0.37657213  1
  V  V83  1  0.61184645  0.75286909  0.36993856  1
  V  V84  1  0.11714737  0.50408332  0.12639677  1
  Zn  Zn85  1  0.74816166  0.12916735  0.86398500  1
  Zn  Zn86  1  0.37838237  0.00026731  0.87750728  1
  Zn  Zn87  1  0.40251805  1.00138736  0.36499996  1
  Zn  Zn88  1  0.38106594  0.63108238  0.25568149  1
  Zn  Zn89  1  0.37918284  0.37181477  0.49698403  1
  Zn  Zn90  1  0.50473497  -0.00439045  0.00099527  1
  Zn  Zn91  1  0.24612963  0.24211918  0.00913127  1
  Zn  Zn92  1  0.00086858  0.74235138  0.74457920  1
  Zn  Zn93  1  0.97067660  0.21358561  0.71394293  1
  Zn  Zn94  1  0.62380606  0.75190900  0.87568012  1
  Zn  Zn95  1  0.49696299  0.74879620  0.75521105  1
  Zn  Zn96  1  0.50258832  0.87504212  0.87490304  1
  Zn  Zn97  1  0.00129246  0.12785282  0.12093322  1
  Zn  Zn98  1  0.11628919  0.24213443  0.88488088  1
  Zn  Zn99  1  0.12304057  0.37600692  0.24895565  1
  Zn  Zn100  1  0.25738807  0.00097592  0.24778084  1
  Zn  Zn101  1  -0.00329115  0.24883813  0.24958546  1
  Zn  Zn102  1  0.00378873  0.00620387  -0.00568034  1
  Zn  Zn103  1  -0.00649751  0.50280623  0.00688795  1
  Zn  Zn104  1  0.63118516  0.37700480  0.75516192  1
  Zn  Zn105  1  0.25037780  0.00010503  0.75068028  1
  Zn  Zn106  1  0.62431994  0.24833009  0.87876945  1
  Zn  Zn107  1  0.18977784  0.18801550  0.19077075  1
  Zn  Zn108  1  0.15616654  0.17123413  0.70659742  1
  Zn  Zn109  1  0.18724724  0.68955903  0.18692667  1
  Zn  Zn110  1  0.19043689  0.68593980  0.69080815  1
  Zn  Zn111  1  0.69063478  0.18193711  0.18632911  1
  Zn  Zn112  1  0.79522255  0.17999872  0.67504865  1
  Zn  Zn113  1  0.68928885  0.69332979  0.18581627  1
  Zn  Zn114  1  0.69249220  0.68816659  0.68490136  1
  Zn  Zn115  1  0.30877936  0.31552009  0.31332529  1
  Zn  Zn116  1  0.31279960  0.30840936  0.81397310  1
  Zn  Zn117  1  0.31471269  0.81724511  0.31072639  1
  Zn  Zn118  1  0.31123359  0.81109207  0.81057993  1
  Zn  Zn119  1  0.81074095  0.31076360  0.31241369  1
  Zn  Zn120  1  0.81990135  0.30927897  0.81112874  1
  Zn  Zn121  1  0.81294796  0.81480409  0.31460903  1
  Zn  Zn122  1  0.80897593  0.81142576  0.81064196  1
  Zn  Zn123  1  0.18946411  0.43735039  0.43877705  1
  Zn  Zn124  1  0.18553455  0.43741723  0.94385207  1
  Zn  Zn125  1  0.18629389  0.93657561  0.43736399  1
  Zn  Zn126  1  0.19420820  0.93780687  0.93647138  1
  Zn  Zn127  1  0.68598355  0.43632336  0.43746490  1
  Zn  Zn128  1  0.68773973  0.43855450  0.93750181  1
  Zn  Zn129  1  0.57141982  0.93814128  0.43420367  1
  Zn  Zn130  1  0.69114577  0.93871511  0.93196360  1
  Zn  Zn131  1  0.31346678  0.05276893  0.06318255  1
  Zn  Zn132  1  0.31134929  0.06033515  0.55891701  1
  Zn  Zn133  1  0.31108088  0.56289591  0.06109161  1
  Zn  Zn134  1  0.31394244  0.56159119  0.56190257  1
  Zn  Zn135  1  0.81881948  0.06451236  0.05841537  1
  Zn  Zn136  1  0.75806453  0.01024035  0.49043504  1
  Zn  Zn137  1  0.80915152  0.56309898  0.05998399  1
  Zn  Zn138  1  0.81060524  0.56174074  0.56289996  1
  Zn  Zn139  1  0.43747645  0.43659594  0.18937970  1
  Zn  Zn140  1  0.43786404  0.43783096  0.68996699  1
  Zn  Zn141  1  0.43541039  0.94437895  0.18256720  1
  Zn  Zn142  1  0.43968980  0.93597524  0.68808622  1
  Zn  Zn143  1  0.93530424  0.43752864  0.18939708  1
  Zn  Zn144  1  0.95715733  0.39287577  0.67070332  1
  Zn  Zn145  1  0.93712475  0.93810095  0.18712810  1
  Zn  Zn146  1  0.93352644  0.92696315  0.68858070  1
  Zn  Zn147  1  0.06254225  0.06379652  0.30559787  1
  Zn  Zn148  1  0.06070583  0.05838736  0.81036331  1
  Zn  Zn149  1  0.06089125  0.56587291  0.31084304  1
  Zn  Zn150  1  0.05947739  0.55773765  0.81679703  1
  Zn  Zn151  1  0.56769835  0.06779859  0.30168697  1
  Zn  Zn152  1  0.56444074  0.05990464  0.81637902  1
  Zn  Zn153  1  0.56309960  0.56237844  0.31422806  1
  Zn  Zn154  1  0.56289844  0.56341060  0.81291048  1
  Zn  Zn155  1  0.44262370  0.18853333  0.43387071  1
  Zn  Zn156  1  0.43718962  0.18427211  0.93809504  1
  Zn  Zn157  1  0.43608862  0.68220222  0.44546093  1
  Zn  Zn158  1  0.43932969  0.69114594  0.94097454  1
  Zn  Zn159  1  0.93574574  0.19143866  0.43392177  1
  Zn  Zn160  1  0.93814225  0.18757022  0.94223306  1
  Zn  Zn161  1  0.93820830  0.69115694  0.43199604  1
  Zn  Zn162  1  0.93736007  0.68887291  0.93419968  1
  Zn  Zn163  1  0.06458601  0.31233434  0.06076614  1
  Zn  Zn164  1  0.06964827  0.31317831  0.55842184  1
  Zn  Zn165  1  0.06208944  0.81612809  0.05916642  1
  Zn  Zn166  1  0.05845434  0.80882964  0.56246591  1
  Zn  Zn167  1  0.56543429  0.30845813  0.06608485  1
  Zn  Zn168  1  0.56538284  0.30890007  0.56482751  1
  Zn  Zn169  1  0.56414502  0.81254719  0.06533011  1
  Zn  Zn170  1  0.56583560  0.80764347  0.56831235  1
  O  O171  1  0.12757389  0.10901380  0.13295308  1
  O  O172  1  0.13513218  0.11400050  0.60585157  1
  O  O173  1  0.13162875  0.61858808  0.11576994  1
  O  O174  1  0.13018980  0.61201336  0.62290635  1
  O  O175  1  0.62110346  0.13029171  0.10968829  1
  O  O176  1  0.61442440  0.11063214  0.61540297  1
  O  O177  1  0.61999188  0.62141003  0.12104335  1
  O  O178  1  0.62165098  0.61696411  0.62020323  1
  O  O179  1  0.36847923  0.39035361  0.37849998  1
  O  O180  1  0.38356433  0.38090671  0.88178847  1
  O  O181  1  0.37524965  0.87013327  0.39256850  1
  O  O182  1  0.37303002  0.87163017  0.88630097  1
  O  O183  1  0.88005668  0.38223558  0.38165228  1
  O  O184  1  0.88585375  0.38445974  0.87005612  1
  O  O185  1  0.88471032  0.86944399  0.38908517  1
  O  O186  1  0.88275518  0.87938193  0.87684323  1
  O  O187  1  0.24422245  0.01455558  0.37609411  1
  O  O188  1  0.25600910  0.00962357  0.87074887  1
  O  O189  1  0.25431395  0.50557363  0.36843169  1
  O  O190  1  0.25674596  0.50528910  0.87107840  1
  O  O191  1  0.75478847  -0.00392983  0.37109254  1
  O  O192  1  0.75818690  0.00211507  0.86150305  1
  O  O193  1  0.75334568  0.50875243  0.37030275  1
  O  O194  1  0.75767441  0.50948620  0.87906348  1
  O  O195  1  0.24283080  0.49651797  0.13321327  1
  O  O196  1  0.24782916  0.49573605  0.63413989  1
  O  O197  1  0.24035832  0.98838279  0.12742126  1
  O  O198  1  0.24052333  0.99023655  0.62311618  1
  O  O199  1  0.74383552  0.49345175  0.12953102  1
  O  O200  1  0.73688468  0.49024112  0.61567283  1
  O  O201  1  0.75251010  0.99014501  0.12295324  1
  O  O202  1  0.74185685  0.99786509  0.63270522  1
  O  O203  1  -0.00012800  0.37534068  0.26445102  1
  O  O204  1  0.01290978  0.38818266  0.76997277  1
  O  O205  1  0.00445236  0.86924111  0.25621595  1
  O  O206  1  0.00843771  0.86886501  0.75506497  1
  O  O207  1  0.50931019  0.36084418  0.24139809  1
  O  O208  1  0.49682516  0.36579221  0.75889559  1
  O  O209  1  0.51735911  0.88062397  0.23926244  1
  O  O210  1  0.51136403  0.87185647  0.74983201  1
  O  O211  1  0.50624964  0.13741800  0.23250080  1
  O  O212  1  0.49341593  0.13030026  0.74252872  1
  O  O213  1  0.49976031  0.61856935  0.23617980  1
  O  O214  1  0.50366435  0.62610172  0.73629262  1
  O  O215  1  0.98729876  0.12630880  0.24277564  1
  O  O216  1  1.04722115  0.13857586  0.73655966  1
  O  O217  1  0.98881053  0.63614596  0.25541426  1
  O  O218  1  0.98495373  0.62478683  0.75580090  1
  O  O219  1  0.37102124  0.26302394  -0.00282655  1
  O  O220  1  0.37119167  0.25192202  0.50523081  1
  O  O221  1  0.37625090  0.76132940  0.01200231  1
  O  O222  1  0.37157586  0.75974186  0.50872570  1
  O  O223  1  0.86009416  0.24616941  0.00957152  1
  O  O224  1  0.86490262  0.26067253  0.49115284  1
  O  O225  1  0.86925184  0.76338102  -0.00812004  1
  O  O226  1  0.86966367  0.75323977  0.50412097  1
  O  O227  1  0.12966848  0.24181161  0.49066955  1
  O  O228  1  0.13433901  0.25605215  0.99621551  1
  O  O229  1  0.12913556  0.74235262  0.49580136  1
  O  O230  1  0.12281348  0.74651810  0.98778089  1
  O  O231  1  0.62775403  0.24566981  0.48970761  1
  O  O232  1  0.63676572  0.24367041  1.00044881  1
  O  O233  1  0.63316444  0.74594067  0.49398413  1
  O  O234  1  0.63387122  0.74286668  1.00003811  1
  O  O235  1  0.50122180  0.24274324  0.13614489  1
  O  O236  1  0.49418282  0.24200084  0.63217970  1
  O  O237  1  0.49204961  0.73972085  0.12172728  1
  O  O238  1  0.49302909  0.73905908  0.62437550  1
  O  O239  1  0.98536958  0.25705091  0.12839731  1
  O  O240  1  0.99458583  0.28946412  0.63356719  1
  O  O241  1  1.00426064  0.75620485  0.13826407  1
  O  O242  1  0.98504118  0.74553369  0.62468836  1
  O  O243  1  0.00848592  0.25915332  0.37467853  1
  O  O244  1  -0.00332319  0.26490532  0.87660965  1
  O  O245  1  0.00860669  0.75755591  0.36746771  1
  O  O246  1  0.00810734  0.76043887  0.87064634  1
  O  O247  1  0.50925567  0.24483358  0.35624443  1
  O  O248  1  0.49740751  0.25739515  0.86812339  1
  O  O249  1  0.51366209  0.73671200  0.37928513  1
  O  O250  1  0.50477994  0.75219039  0.87167945  1
  O  O251  1  0.24135200  0.12918912  0.48961755  1
  O  O252  1  0.25993030  0.12273797  0.98782437  1
  O  O253  1  0.24403508  0.62997719  0.49553841  1
  O  O254  1  0.23822812  0.61984452  0.98762117  1
  O  O255  1  0.73340013  0.13182830  0.50098878  1
  O  O256  1  0.74141046  0.13141137  0.99882738  1
  O  O257  1  0.74546368  0.63121044  0.49062734  1
  O  O258  1  0.74560492  0.63300983  0.99273050  1
  O  O259  1  0.25962690  0.37944852  0.01023745  1
  O  O260  1  0.25032798  0.36862938  0.51089458  1
  O  O261  1  0.26195099  0.87492720  0.00752039  1
  O  O262  1  0.25096706  0.86822601  0.50875249  1
  O  O263  1  0.74308517  0.36781777  0.01155852  1
  O  O264  1  0.75579777  0.36924104  0.50244129  1
  O  O265  1  0.75539450  0.87010420  0.00541410  1
  O  O266  1  0.76108710  0.86654537  0.49568241  1
  O  O267  1  0.13272424  0.50186947  0.24480393  1
  O  O268  1  0.13325981  0.49563510  0.74575799  1
  O  O269  1  0.12822401  0.98818518  0.24186921  1
  O  O270  1  0.12615094  0.98497625  0.73653932  1
  O  O271  1  0.62899897  0.49253972  0.24582953  1
  O  O272  1  0.61985807  0.49603539  0.73730872  1
  O  O273  1  0.64282453  0.98832843  0.25480976  1
  O  O274  1  0.63202319  0.99242049  0.74215178  1
  O  O275  1  0.36792100  -0.01546555  0.25998897  1
  O  O276  1  0.37323446  0.01261925  0.74619967  1
  O  O277  1  0.36875239  0.50381889  0.25772102  1
  O  O278  1  0.36945194  0.49718802  0.76476463  1
  O  O279  1  0.86519829  0.00990319  0.24706723  1
  O  O280  1  0.86295556  -0.00845092  0.75216174  1
  O  O281  1  0.86947958  0.50886705  0.25682659  1
  O  O282  1  0.87553198  0.51142912  0.75857862  1
  O  O283  1  0.11835313  0.36770175  0.37643862  1
  O  O284  1  0.11375016  0.38217499  0.87292735  1
  O  O285  1  0.12041135  0.87011782  0.36690728  1
  O  O286  1  0.12230685  0.87025543  0.86685182  1
  O  O287  1  0.62651331  0.36983608  0.36154219  1
  O  O288  1  0.61096173  0.37561366  0.87454381  1
  O  O289  1  0.62385831  0.86536614  0.36076731  1
  O  O290  1  0.62570415  0.87315342  0.86352960  1
  O  O291  1  0.38674764  0.12572323  0.11786813  1
  O  O292  1  0.38003117  0.12749981  0.62747600  1
  O  O293  1  0.38215778  0.63235724  0.12382579  1
  O  O294  1  0.38448552  0.63357093  0.61771078  1
  O  O295  1  0.87200328  0.13397003  0.13475589  1
  O  O296  1  0.88266664  0.11805246  0.61538863  1
  O  O297  1  0.86973092  0.62193809  0.13720194  1
  O  O298  1  0.86950951  0.62504565  0.63959721  1
  O  O299  1  0.24787871  0.26593607  0.13024902  1
  O  O300  1  0.25461140  0.25872383  0.62134817  1
  O  O301  1  0.25606021  0.76099233  0.12701952  1
  O  O302  1  0.25619494  0.75447763  0.61925298  1
  O  O303  1  0.75720579  0.25712427  0.12163788  1
  O  O304  1  0.74660694  0.25945802  0.60603270  1
  O  O305  1  0.75151947  0.75756349  0.11122576  1
  O  O306  1  0.76273980  0.74220473  0.61102259  1
  O  O307  1  0.24381165  0.24152191  0.37946113  1
  O  O308  1  0.25269734  0.23298841  0.87689671  1
  O  O309  1  0.24314493  0.74597586  0.37972738  1
  O  O310  1  0.24090191  0.74030920  0.86826038  1
  O  O311  1  0.73888527  0.25732138  0.38566370  1
  O  O312  1  0.74799821  0.25002031  0.88315525  1
  O  O313  1  0.74420765  0.74442961  0.38192640  1
  O  O314  1  0.74837820  0.74162585  0.88516193  1
  O  O315  1  -0.00644538  0.11788075  0.00845386  1
  O  O316  1  0.00071574  0.11937648  0.50002300  1
  O  O317  1  0.01290666  0.62565398  -0.00494268  1
  O  O318  1  0.00381068  0.61296697  0.49386541  1
  O  O319  1  0.51042599  0.12941569  0.01054924  1
  O  O320  1  0.51254801  0.13488195  0.50970925  1
  O  O321  1  0.50586260  0.61825003  0.00936114  1
  O  O322  1  0.50801607  0.61482463  0.51119845  1
  O  O323  1  0.50012783  0.38761021  0.50672408  1
  O  O324  1  0.49444824  0.37878940  0.99601419  1
  O  O325  1  0.49559596  0.87322952  0.50120661  1
  O  O326  1  0.48958639  0.87416872  1.00195719  1
  O  O327  1  0.99322938  0.38447505  0.48883992  1
  O  O328  1  1.00095706  0.38178191  0.98721880  1
  O  O329  1  0.99420583  0.87098279  0.48994356  1
  O  O330  1  0.99302151  0.87893434  0.98936400  1
  O  O331  1  0.49130460  0.50679184  0.38529519  1
  O  O332  1  0.49312737  0.49492315  0.87923021  1
  O  O333  1  0.51156477  1.01569670  0.38249671  1
  O  O334  1  0.49599148  0.99515232  0.88086274  1
  O  O335  1  0.99680048  0.49479834  0.38163717  1
  O  O336  1  0.98859013  0.49480751  0.88186251  1
  O  O337  1  1.00522151  0.98686242  0.36949909  1
  O  O338  1  0.99344791  0.98896131  0.87074727  1
  O  O339  1  0.01752574  -0.00489198  0.12530496  1
  O  O340  1  0.00064458  0.00069490  0.62214868  1
  O  O341  1  0.01247340  0.49623581  0.12739456  1
  O  O342  1  0.01139286  0.48867201  0.61541829  1
  O  O343  1  0.50118317  0.01788844  0.12139197  1
  O  O344  1  0.50504918  0.01038788  0.62598726  1
  O  O345  1  0.50562350  0.50484770  0.12037635  1
  O  O346  1  0.50485581  0.50449981  0.61955564  1
  O  O347  1  0.24788619  0.38810527  0.24517654  1
  O  O348  1  0.24896836  0.38697624  0.74806223  1
  O  O349  1  0.23826314  0.87277247  0.24300231  1
  O  O350  1  0.24451214  0.87501834  0.73618395  1
  O  O351  1  0.74353558  0.38278827  0.24517309  1
  O  O352  1  0.75004855  0.36854678  0.73432351  1
  O  O353  1  0.75453411  0.88807910  0.24500770  1
  O  O354  1  0.74061399  0.88623772  0.75078585  1
  O  O355  1  0.24781691  0.12427990  0.26707897  1
  O  O356  1  0.25539387  0.12306592  0.75588433  1
  O  O357  1  0.25178004  0.61592394  0.25481601  1
  O  O358  1  0.24652922  0.61251398  0.76210699  1
  O  O359  1  0.75635859  0.10773786  0.24934236  1
  O  O360  1  0.74389104  0.10457041  0.74665828  1
  O  O361  1  0.75478675  0.62252393  0.25640235  1
  O  O362  1  0.75878173  0.62925367  0.76225095  1
  O  O363  1  0.36239357  0.12068560  0.38416286  1
  O  O364  1  0.36862420  0.12310382  0.86554296  1
  O  O365  1  0.36746472  0.61648113  0.37633915  1
  O  O366  1  0.36660979  0.61700142  0.88427128  1
  O  O367  1  0.87646930  0.12761163  0.35916366  1
  O  O368  1  0.87395344  0.11128867  0.87658165  1
  O  O369  1  0.86382794  0.62235860  0.37041109  1
  O  O370  1  0.86877097  0.61928325  0.86664904  1
  O  O371  1  0.13306049  0.38648576  0.12824407  1
  O  O372  1  0.13903268  0.38647449  0.63402297  1
  O  O373  1  0.13198226  0.87844889  0.13025141  1
  O  O374  1  0.13068337  0.87686407  0.62746109  1
  O  O375  1  0.63435872  0.37779913  0.13575464  1
  O  O376  1  0.63248692  0.38198067  0.62579438  1
  O  O377  1  0.63782385  0.86808022  0.13925179  1
  O  O378  1  0.61895533  0.88825137  0.62988277  1
  O  O379  1  0.12175821  0.25214830  0.26205520  1
  O  O380  1  0.13847112  0.27142667  0.76323114  1
  O  O381  1  0.11865261  0.75891265  0.25436957  1
  O  O382  1  0.12414947  0.75821538  0.75507788  1
  O  O383  1  0.62786064  0.25536542  0.25548261  1
  O  O384  1  0.61018455  0.25329540  0.75330196  1
  O  O385  1  0.63268037  0.76406767  0.25781625  1
  O  O386  1  0.62829649  0.76226516  0.74523810  1
  O  O387  1  0.38746143  0.25570394  0.25414634  1
  O  O388  1  0.38075461  0.23850442  0.74378308  1
  O  O389  1  0.37203775  0.74902060  0.23703103  1
  O  O390  1  0.37584308  0.75619575  0.73299382  1
  O  O391  1  0.87046481  0.23780404  0.24448256  1
  O  O392  1  0.86607391  0.23346954  0.74504041  1
  O  O393  1  0.88275163  0.74252612  0.25500183  1
  O  O394  1  0.87372978  0.74137118  0.74155072  1
  O  O395  1  0.38371377  0.49828752  0.49352014  1
  O  O396  1  0.37991224  0.49348296  0.99025914  1
  O  O397  1  0.37285379  0.98233146  0.49755416  1
  O  O398  1  0.37902419  0.98153035  1.00117548  1
  O  O399  1  0.88201569  0.49724338  0.49316374  1
  O  O400  1  0.87570168  0.50585629  0.98786002  1
  O  O401  1  0.87325557  0.99366207  0.50866184  1
  O  O402  1  0.87303777  0.98796457  0.98688083  1
  O  O403  1  0.12614405  -0.00785643  0.01426813  1
  O  O404  1  0.12321611  0.00315486  0.50894962  1
  O  O405  1  0.12230975  0.51022044  0.01053811  1
  O  O406  1  0.11961480  0.50460320  0.50810626  1
  O  O407  1  0.62757538  0.01305904  -0.00211259  1
  O  O408  1  0.63912788  0.00522913  0.50574038  1
  O  O409  1  0.61927995  0.50620259  0.00726263  1
  O  O410  1  0.61807349  0.50509935  0.50490938  1
  O  O411  1  0.36518683  0.38548462  0.11561034  1
  O  O412  1  0.36449644  0.37182441  0.62600482  1
  O  O413  1  0.36876256  0.86825841  0.11813341  1
  O  O414  1  0.36981675  0.87048351  0.61377022  1
  O  O415  1  0.86100445  0.36850012  0.13421575  1
  O  O416  1  0.86157521  0.39041884  0.60714121  1
  O  O417  1  0.86853330  0.87955164  0.11334974  1
  O  O418  1  0.87930110  0.86209107  0.61134240  1
  O  O419  1  0.12690182  0.13043098  0.38239270  1
  O  O420  1  0.14133872  0.12141778  0.87374228  1
  O  O421  1  0.13062643  0.63065249  0.38089866  1
  O  O422  1  0.13005867  0.63281709  0.87952411  1
  O  O423  1  0.62619359  0.13786014  0.37969390  1
  O  O424  1  0.62591655  0.12894179  0.88941208  1
  O  O425  1  0.63655848  0.63011990  0.37680131  1
  O  O426  1  0.63313581  0.62442895  0.88075471  1
