# generated using pymatgen
data_V85Zn86O256
_symmetry_space_group_name_H-M   'P 1'
_cell_length_a   16.93023700
_cell_length_b   16.93206051
_cell_length_c   16.93021926
_cell_angle_alpha   90.12622942
_cell_angle_beta   90.04881006
_cell_angle_gamma   89.99632321
_symmetry_Int_Tables_number   1
_chemical_formula_structural   V85Zn86O256
_chemical_formula_sum   'V85 Zn86 O256'
_cell_volume   4853.26739531
_cell_formula_units_Z   1
loop_
 _symmetry_equiv_pos_site_id
 _symmetry_equiv_pos_as_xyz
  1  'x, y, z'
loop_
 _atom_site_type_symbol
 _atom_site_label
 _atom_site_symmetry_multiplicity
 _atom_site_fract_x
 _atom_site_fract_y
 _atom_site_fract_z
 _atom_site_occupancy
  V  V0  1  0.50139398  0.49784826  0.50107685  1
  V  V1  1  0.48263380  0.24502588  0.74060131  1
  V  V2  1  0.25076435  0.11700646  0.85358130  1
  V  V3  1  0.74880320  0.75427537  0.50732585  1
  V  V4  1  0.75029973  0.62487920  0.37794347  1
  V  V5  1  0.12390811  0.24941871  0.36946558  1
  V  V6  1  0.25200150  0.62624070  0.37960581  1
  V  V7  1  0.37510742  0.49920133  0.37397627  1
  V  V8  1  0.13130812  0.00082550  0.63192958  1
  V  V9  1  0.12554497  0.62811316  0.50225732  1
  V  V10  1  0.87699924  0.50347491  0.37559961  1
  V  V11  1  -0.00425761  0.87491489  0.37536995  1
  V  V12  1  0.37152016  0.63122124  0.74881165  1
  V  V13  1  0.63844523  -0.00115555  0.11789832  1
  V  V14  1  0.88055690  0.49994085  0.88181460  1
  V  V15  1  0.00431216  0.37227620  0.37285934  1
  V  V16  1  -0.00066784  0.25152780  0.75345053  1
  V  V17  1  0.62554742  0.62324057  0.50165486  1
  V  V18  1  0.50042597  0.62682767  0.12204359  1
  V  V19  1  0.62952284  0.50241085  0.12475766  1
  V  V20  1  0.24950174  -0.00122941  0.24906587  1
  V  V21  1  0.24774328  0.86885895  0.62331068  1
  V  V22  1  0.50171622  0.75138494  0.24690327  1
  V  V23  1  0.38197615  0.12596296  0.23504660  1
  V  V24  1  0.61931512  0.36920465  0.75863483  1
  V  V25  1  0.13108969  0.37508171  0.24652765  1
  V  V26  1  0.87554287  0.75558622  0.63053265  1
  V  V27  1  0.62648768  0.75144961  0.37441747  1
  V  V28  1  0.63354770  0.75515269  0.87564713  1
  V  V29  1  -0.00251619  -0.00030712  -0.00121765  1
  V  V30  1  0.00003324  0.12550442  0.62411172  1
  V  V31  1  -0.00207097  0.00065307  0.49662678  1
  V  V32  1  0.24986200  0.63462474  0.88573222  1
  V  V33  1  0.75672515  0.01392807  0.26171858  1
  V  V34  1  0.87098061  0.75308892  0.12855001  1
  V  V35  1  0.11829370  0.75226163  0.87756386  1
  V  V36  1  0.25397486  0.12583050  0.37177085  1
  V  V37  1  0.49845992  0.75704725  0.75654691  1
  V  V38  1  0.11793412  0.62862186  0.00256200  1
  V  V39  1  0.25751972  0.37093427  0.63191429  1
  V  V40  1  0.49828779  0.62627410  0.62617004  1
  V  V41  1  0.75430125  0.50380496  0.25085864  1
  V  V42  1  0.37201486  0.87130996  -0.00498981  1
  V  V43  1  0.37635444  -0.00442689  0.85910294  1
  V  V44  1  0.12638618  0.37561765  0.75077017  1
  V  V45  1  0.12064679  0.87087045  0.74993165  1
  V  V46  1  0.62505951  0.49890172  0.62816716  1
  V  V47  1  0.13491954  0.12780254  -0.00026239  1
  V  V48  1  0.25021766  0.50199310  0.75105892  1
  V  V49  1  0.74632972  -0.00251845  0.73517884  1
  V  V50  1  0.87111920  0.12556805  0.75085951  1
  V  V51  1  0.88580111  0.37343494  0.00872970  1
  V  V52  1  -0.00320005  0.49647331  0.50198712  1
  V  V53  1  0.74756132  0.50686272  0.76171990  1
  V  V54  1  0.13004673  0.75075273  0.37788706  1
  V  V55  1  0.62515549  0.36826196  0.25184602  1
  V  V56  1  0.26458901  0.36821168  0.10356173  1
  V  V57  1  0.12587750  0.12490895  0.49963647  1
  V  V58  1  0.37533329  0.37228422  0.50443037  1
  V  V59  1  0.11935130  -0.00170696  0.12452895  1
  V  V60  1  0.36940936  0.87165772  0.49590068  1
  V  V61  1  0.47358390  0.34237418  0.89685227  1
  V  V62  1  0.86975793  -0.00060356  0.87400970  1
  V  V63  1  0.86240944  0.87650140  0.00347537  1
  V  V64  1  0.86946954  0.87988815  0.50151904  1
  V  V65  1  0.48815550  0.11826372  0.62260314  1
  V  V66  1  0.87171812  0.25126402  0.62121209  1
  V  V67  1  0.36646511  0.74874728  0.12053410  1
  V  V68  1  0.63600354  0.87651417  0.24298355  1
  V  V69  1  0.25496125  0.24787912  0.50555629  1
  V  V70  1  -0.00244574  0.62830874  0.63096073  1
  V  V71  1  0.85407542  0.36293910  0.48751342  1
  V  V72  1  0.12363355  0.87470140  0.25040774  1
  V  V73  1  0.62441789  0.88103058  0.73685335  1
  V  V74  1  0.87171511  0.63022990  0.75875854  1
  V  V75  1  0.50164447  0.49745082  -0.00276298  1
  V  V76  1  0.11814541  0.49786484  0.11742215  1
  V  V77  1  0.63824696  0.12543904  0.50141021  1
  V  V78  1  0.37718489  0.50506323  0.87958323  1
  V  V79  1  0.75212048  0.24791338  0.00631751  1
  V  V80  1  0.87839827  0.14315074  0.25342490  1
  V  V81  1  0.50154097  0.87935738  0.37381804  1
  V  V82  1  0.49864673  0.36355366  0.37485106  1
  V  V83  1  0.74854031  0.37332100  0.63231712  1
  V  V84  1  0.49247598  0.00230792  0.01026912  1
  Zn  Zn85  1  0.13057374  0.25066113  0.87599299  1
  Zn  Zn86  1  0.61466944  0.12962716  -0.00176305  1
  Zn  Zn87  1  0.63047665  0.24296013  0.87028304  1
  Zn  Zn88  1  -0.00395424  0.13932507  0.12734000  1
  Zn  Zn89  1  0.87868705  0.62764893  0.25007215  1
  Zn  Zn90  1  0.48691463  0.25096816  0.23594731  1
  Zn  Zn91  1  0.25457813  0.49879464  0.24335609  1
  Zn  Zn92  1  0.74830513  0.74674941  0.00306371  1
  Zn  Zn93  1  -0.00474813  0.87084418  0.86942016  1
  Zn  Zn94  1  0.63294598  0.61870020  -0.01650099  1
  Zn  Zn95  1  0.37913095  0.00056110  0.37379592  1
  Zn  Zn96  1  0.37550328  0.62547589  0.25045623  1
  Zn  Zn97  1  0.50734918  -0.00214737  0.50494270  1
  Zn  Zn98  1  0.24494455  0.86740961  0.11971504  1
  Zn  Zn99  1  0.36942871  0.74888354  0.61825657  1
  Zn  Zn100  1  0.00377477  0.37985470  0.87729803  1
  Zn  Zn101  1  0.74664346  0.12442048  0.87581248  1
  Zn  Zn102  1  0.00132229  0.74670427  0.24841566  1
  Zn  Zn103  1  0.75740270  0.37492548  0.12626704  1
  Zn  Zn104  1  -0.00418392  0.62144717  0.12657303  1
  Zn  Zn105  1  0.12496096  0.50067863  0.62599342  1
  Zn  Zn106  1  0.66678855  0.24504428  0.39051500  1
  Zn  Zn107  1  0.18638034  0.19012827  0.18224204  1
  Zn  Zn108  1  0.18826759  0.18932704  0.68819830  1
  Zn  Zn109  1  0.18661689  0.68307102  0.19320233  1
  Zn  Zn110  1  0.18481776  0.69163029  0.69059209  1
  Zn  Zn111  1  0.66289885  0.19696448  0.17748938  1
  Zn  Zn112  1  0.68450159  0.18307391  0.68064169  1
  Zn  Zn113  1  0.69070381  0.68741596  0.18333762  1
  Zn  Zn114  1  0.68763680  0.68991760  0.69012070  1
  Zn  Zn115  1  0.31237553  0.30920507  0.31006082  1
  Zn  Zn116  1  0.31677166  0.30547391  0.83717169  1
  Zn  Zn117  1  0.31277942  0.81056772  0.30994937  1
  Zn  Zn118  1  0.30427815  0.81735000  0.80972689  1
  Zn  Zn119  1  0.80935734  0.31799606  0.31254320  1
  Zn  Zn120  1  0.81269986  0.31408693  0.81767759  1
  Zn  Zn121  1  0.81214900  0.81441076  0.31433439  1
  Zn  Zn122  1  0.80875482  0.81804884  0.81086951  1
  Zn  Zn123  1  0.18895615  0.43913922  0.44139857  1
  Zn  Zn124  1  0.18917924  0.44139589  0.93660884  1
  Zn  Zn125  1  0.18724227  0.93874115  0.43964880  1
  Zn  Zn126  1  0.19120862  0.93726990  0.93627261  1
  Zn  Zn127  1  0.69213470  0.42460472  0.43428328  1
  Zn  Zn128  1  0.68864683  0.42951025  0.93798221  1
  Zn  Zn129  1  0.68543160  0.94225999  0.43902119  1
  Zn  Zn130  1  0.68125908  0.93480973  0.92872184  1
  Zn  Zn131  1  0.30919059  0.05706458  0.06326517  1
  Zn  Zn132  1  0.31638740  0.05547913  0.56189346  1
  Zn  Zn133  1  0.31093958  0.55702649  0.06294802  1
  Zn  Zn134  1  0.31091966  0.55989045  0.56297741  1
  Zn  Zn135  1  0.81281112  0.06706781  0.07033563  1
  Zn  Zn136  1  0.81302674  0.06335875  0.55944744  1
  Zn  Zn137  1  0.81245855  0.56610533  0.05892884  1
  Zn  Zn138  1  0.81178049  0.55976165  0.56772393  1
  Zn  Zn139  1  0.43734334  0.43650876  0.18573558  1
  Zn  Zn140  1  0.43789558  0.43660045  0.69450173  1
  Zn  Zn141  1  0.43739298  0.93558259  0.18606897  1
  Zn  Zn142  1  0.43862480  0.93426730  0.68197436  1
  Zn  Zn143  1  0.94540745  0.31707251  0.18686260  1
  Zn  Zn144  1  0.93478296  0.43889561  0.68925063  1
  Zn  Zn145  1  0.93360441  0.93969034  0.18801860  1
  Zn  Zn146  1  0.93897101  0.93844186  0.68632436  1
  Zn  Zn147  1  0.05790909  0.06345141  0.31244503  1
  Zn  Zn148  1  0.05947840  0.06138407  0.81383573  1
  Zn  Zn149  1  0.06336714  0.55979095  0.30821255  1
  Zn  Zn150  1  0.06173423  0.56515236  0.81321288  1
  Zn  Zn151  1  0.57096775  0.06651746  0.31491839  1
  Zn  Zn152  1  0.55827691  0.06242132  0.81372183  1
  Zn  Zn153  1  0.56195360  0.56080467  0.31169321  1
  Zn  Zn154  1  0.56189056  0.56686807  0.81210460  1
  Zn  Zn155  1  0.43779055  0.18411506  0.43950952  1
  Zn  Zn156  1  0.43551703  0.17470785  0.92980652  1
  Zn  Zn157  1  0.43959548  0.69024488  0.43729160  1
  Zn  Zn158  1  0.44294612  0.68901953  0.93857876  1
  Zn  Zn159  1  0.93291247  0.18470772  0.43099224  1
  Zn  Zn160  1  0.93743584  0.18724489  0.93976432  1
  Zn  Zn161  1  0.93913711  0.68999825  0.43993786  1
  Zn  Zn162  1  0.93766908  0.68900188  0.94192800  1
  Zn  Zn163  1  0.07098649  0.31211586  0.05903416  1
  Zn  Zn164  1  0.06379341  0.31275991  0.56297959  1
  Zn  Zn165  1  0.05605000  0.81167866  0.06059854  1
  Zn  Zn166  1  0.06028197  0.81126072  0.56331810  1
  Zn  Zn167  1  0.56852140  0.31184652  0.06475763  1
  Zn  Zn168  1  0.56493859  0.30541841  0.56541221  1
  Zn  Zn169  1  0.55674241  0.81882191  0.05748983  1
  Zn  Zn170  1  0.55736807  0.81115408  0.56347887  1
  O  O171  1  0.12396978  0.11650535  0.11406062  1
  O  O172  1  0.12008362  0.11920949  0.61913786  1
  O  O173  1  0.13077974  0.61413915  0.11878777  1
  O  O174  1  0.11650185  0.62523545  0.61982691  1
  O  O175  1  0.63257516  0.10256244  0.11349144  1
  O  O176  1  0.61165491  0.13177504  0.60982870  1
  O  O177  1  0.61508014  0.61483132  0.12895510  1
  O  O178  1  0.61967799  0.61918692  0.62209276  1
  O  O179  1  0.37965514  0.38194685  0.37978863  1
  O  O180  1  0.38411752  0.40071145  0.85370901  1
  O  O181  1  0.38316790  0.87487130  0.37734021  1
  O  O182  1  0.36575196  0.88668678  0.87999237  1
  O  O183  1  0.89077666  0.38492852  0.37428970  1
  O  O184  1  0.87951860  0.38474571  0.88262155  1
  O  O185  1  0.88826304  0.86747466  0.38604934  1
  O  O186  1  0.87647585  0.88190594  0.88130292  1
  O  O187  1  0.24621784  0.00800231  0.36364036  1
  O  O188  1  0.26062049  0.00763469  0.87664644  1
  O  O189  1  0.26240821  0.50534327  0.37854545  1
  O  O190  1  0.25842039  0.51097434  0.86936538  1
  O  O191  1  0.74278765  0.00435354  0.35957350  1
  O  O192  1  0.76037142  -0.00042067  0.86917243  1
  O  O193  1  0.75386380  0.50613351  0.37074595  1
  O  O194  1  0.75783903  0.49499996  0.86674309  1
  O  O195  1  0.24513249  0.48645940  0.12455289  1
  O  O196  1  0.24750422  0.49136992  0.63330103  1
  O  O197  1  0.23692715  0.99807534  0.13598340  1
  O  O198  1  0.23808427  0.98948862  0.61620129  1
  O  O199  1  0.74342223  0.50306365  0.13384381  1
  O  O200  1  0.74350926  0.49882627  0.64439410  1
  O  O201  1  0.74058210  0.99191709  0.12709635  1
  O  O202  1  0.75641829  0.99986553  0.63638297  1
  O  O203  1  0.01605675  0.37598146  0.26412714  1
  O  O204  1  0.00800544  0.36880529  0.74860662  1
  O  O205  1  0.00522579  0.87686485  0.26119736  1
  O  O206  1  0.01340109  0.87922321  0.75052974  1
  O  O207  1  0.50733058  0.37316838  0.25616466  1
  O  O208  1  0.50336074  0.36067400  0.75479769  1
  O  O209  1  0.50761930  0.86986169  0.25573650  1
  O  O210  1  0.51031645  0.86839846  0.74398515  1
  O  O211  1  0.48313883  0.12027956  0.25530349  1
  O  O212  1  0.50605449  0.13637182  0.73568849  1
  O  O213  1  0.49955865  0.63171203  0.24108078  1
  O  O214  1  0.48938918  0.63165675  0.74473800  1
  O  O215  1  0.98328811  0.12343480  0.25237423  1
  O  O216  1  0.99363720  0.13200589  0.74414553  1
  O  O217  1  0.99763899  0.62790764  0.24780819  1
  O  O218  1  0.99171912  0.61966129  0.73686234  1
  O  O219  1  0.39311762  0.27996995  -0.06515860  1
  O  O220  1  0.36165986  0.25621676  0.49409663  1
  O  O221  1  0.38110547  0.75770959  0.00721778  1
  O  O222  1  0.38131776  0.76499667  0.50070060  1
  O  O223  1  0.86836008  0.26427988  -0.00497507  1
  O  O224  1  0.88331860  0.25216536  0.51401934  1
  O  O225  1  0.87474785  0.75982668  0.00845931  1
  O  O226  1  0.86774698  0.75764728  0.50779506  1
  O  O227  1  0.13521672  0.24515656  0.49340869  1
  O  O228  1  0.12036668  0.23076038  0.99230497  1
  O  O229  1  0.11888440  0.73595185  0.49417102  1
  O  O230  1  0.12571826  0.74328807  0.99398772  1
  O  O231  1  0.62163205  0.23774464  0.49625396  1
  O  O232  1  0.64013801  0.25021959  0.99398128  1
  O  O233  1  0.63206423  0.74582376  0.49721571  1
  O  O234  1  0.62141371  0.75760958  0.98378566  1
  O  O235  1  0.55624543  0.24230601  0.15015799  1
  O  O236  1  0.49504246  0.24455752  0.63504789  1
  O  O237  1  0.49559877  0.74211560  0.12683616  1
  O  O238  1  0.49629989  0.74186545  0.63571607  1
  O  O239  1  1.01531047  0.25058446  0.13271072  1
  O  O240  1  0.99547505  0.24604716  0.63416709  1
  O  O241  1  0.98769927  0.74750667  0.12736542  1
  O  O242  1  0.98784470  0.73965726  0.61901276  1
  O  O243  1  0.01218240  0.26045966  0.38558841  1
  O  O244  1  0.00218035  0.24981454  0.86167602  1
  O  O245  1  0.01152359  0.75757901  0.37656459  1
  O  O246  1  0.01284915  0.75132290  0.87867300  1
  O  O247  1  0.49285905  0.26118744  0.37015428  1
  O  O248  1  0.51122719  0.24255312  0.85613448  1
  O  O249  1  0.50756811  0.75821428  0.36821241  1
  O  O250  1  0.50323117  0.74950282  0.86032380  1
  O  O251  1  0.24714123  0.12970278  0.49338647  1
  O  O252  1  0.23620472  0.11688561  0.99750990  1
  O  O253  1  0.24004232  0.61919683  0.49063111  1
  O  O254  1  0.24241320  0.62041905  0.98955702  1
  O  O255  1  0.73910043  0.12884325  0.50575128  1
  O  O256  1  0.75913106  0.13999007  0.99870789  1
  O  O257  1  0.74501935  0.63074783  0.49767154  1
  O  O258  1  0.74169546  0.63268566  1.00511685  1
  O  O259  1  0.25335345  0.37466235  0.00302486  1
  O  O260  1  0.25364522  0.36823393  0.51046042  1
  O  O261  1  0.26470409  0.88099324  0.00494278  1
  O  O262  1  0.25761554  0.87676648  0.50506449  1
  O  O263  1  0.76103934  0.36599476  0.00274596  1
  O  O264  1  0.75199693  0.40272799  0.53082969  1
  O  O265  1  0.76023378  0.87360467  -0.00552973  1
  O  O266  1  0.75945367  0.86849968  0.49323857  1
  O  O267  1  0.13113468  0.49208550  0.23955405  1
  O  O268  1  0.13111556  0.49363723  0.74933492  1
  O  O269  1  0.12805395  0.99637031  0.24365644  1
  O  O270  1  0.11635475  0.99547447  0.73593631  1
  O  O271  1  0.63274589  0.49502013  0.24521597  1
  O  O272  1  0.62834634  0.49207576  0.75020866  1
  O  O273  1  0.63315783  0.99683314  0.23730254  1
  O  O274  1  0.62965937  0.98802306  0.75400982  1
  O  O275  1  0.36514628  0.00662558  0.25055972  1
  O  O276  1  0.37732133  -0.00791996  0.76069072  1
  O  O277  1  0.37573541  0.50347204  0.26035451  1
  O  O278  1  0.37226081  0.51680165  0.75416634  1
  O  O279  1  0.85854608  -0.00063763  0.25031810  1
  O  O280  1  0.86844361  0.00241813  0.75619830  1
  O  O281  1  0.86103154  0.50586834  0.25887403  1
  O  O282  1  0.86578744  0.50856500  0.75613602  1
  O  O283  1  0.12325215  0.36971428  0.37185721  1
  O  O284  1  0.12509420  0.37387351  0.86396393  1
  O  O285  1  0.11807011  0.86727621  0.37469939  1
  O  O286  1  0.12549710  0.86876396  0.86806459  1
  O  O287  1  0.60757874  0.38856966  0.36593311  1
  O  O288  1  0.61283028  0.37227748  0.86798875  1
  O  O289  1  0.61931475  0.86952975  0.36818962  1
  O  O290  1  0.62130043  0.86238913  0.86039966  1
  O  O291  1  0.37231400  0.12060912  0.13629178  1
  O  O292  1  0.38750048  0.12369290  0.62139734  1
  O  O293  1  0.38530853  0.62908260  0.12336099  1
  O  O294  1  0.37648581  0.62786472  0.63202490  1
  O  O295  1  0.87971090  0.11958644  0.14494143  1
  O  O296  1  0.88085189  0.13254306  0.62991339  1
  O  O297  1  0.87676932  0.63839266  0.12588663  1
  O  O298  1  0.87968248  0.63219894  0.63379363  1
  O  O299  1  0.24215604  0.27097302  0.12498183  1
  O  O300  1  0.24639923  0.25778412  0.61730538  1
  O  O301  1  0.26344485  0.74600581  0.13167059  1
  O  O302  1  0.24793121  0.76299884  0.62475319  1
  O  O303  1  0.74483697  0.25510281  0.11111188  1
  O  O304  1  0.75992376  0.26113048  0.63194098  1
  O  O305  1  0.76476074  0.75308782  0.12562179  1
  O  O306  1  0.75777905  0.74541126  0.61344561  1
  O  O307  1  0.24375336  0.24291833  0.38233255  1
  O  O308  1  0.24424469  0.22404345  0.86731546  1
  O  O309  1  0.23855169  0.74304276  0.37374616  1
  O  O310  1  0.23874934  0.74078944  0.86965888  1
  O  O311  1  0.75831472  0.31731011  0.41194019  1
  O  O312  1  0.74970299  0.24839208  0.88553703  1
  O  O313  1  0.74583995  0.74504498  0.38616271  1
  O  O314  1  0.73634262  0.75362633  0.87451603  1
  O  O315  1  0.00657182  0.11307390  0.00064295  1
  O  O316  1  0.00333541  0.11821114  0.50155972  1
  O  O317  1  0.01381643  0.62558394  0.00341409  1
  O  O318  1  0.00369112  0.61677758  0.50887778  1
  O  O319  1  0.49676150  0.10898606  -0.00014677  1
  O  O320  1  0.49981971  0.12253723  0.51108551  1
  O  O321  1  0.50881263  0.61819467  0.00758713  1
  O  O322  1  0.50546417  0.61996407  0.50631819  1
  O  O323  1  0.49488207  0.37749317  0.49476085  1
  O  O324  1  0.50647710  0.38083764  0.99382883  1
  O  O325  1  0.49633830  0.87651926  0.49031385  1
  O  O326  1  0.48415859  0.88772120  0.99847032  1
  O  O327  1  0.99598550  0.38206676  0.49458308  1
  O  O328  1  0.98963946  0.37011178  0.99585255  1
  O  O329  1  0.99363237  0.88184449  0.49563332  1
  O  O330  1  0.99299707  0.88873554  0.99623039  1
  O  O331  1  0.48858385  0.49673968  0.38108347  1
  O  O332  1  0.49548318  0.50720486  0.88765030  1
  O  O333  1  0.50249354  0.98682458  0.37083035  1
  O  O334  1  0.48104255  1.00454950  0.88330905  1
  O  O335  1  1.00031490  0.49428481  0.38621645  1
  O  O336  1  0.98513685  0.49994443  0.86893364  1
  O  O337  1  1.00741418  0.99082271  0.38886734  1
  O  O338  1  0.98668358  0.99893900  0.88119937  1
  O  O339  1  0.00927011  0.00061993  0.11947761  1
  O  O340  1  0.00599542  0.00606184  0.61402084  1
  O  O341  1  0.01994701  0.50014282  0.12574442  1
  O  O342  1  -0.00174664  0.50513636  0.61483066  1
  O  O343  1  0.50653218  -0.00385881  0.11350292  1
  O  O344  1  0.49887126  0.01381847  0.62569878  1
  O  O345  1  0.50437720  0.50552877  0.11470542  1
  O  O346  1  0.50532195  0.50464051  0.62287502  1
  O  O347  1  0.23875448  0.37795393  0.25465660  1
  O  O348  1  0.24525000  0.37744773  0.74778189  1
  O  O349  1  0.24258003  0.88326721  0.24927052  1
  O  O350  1  0.23421150  0.87653058  0.73794519  1
  O  O351  1  0.74534770  0.38984366  0.24545093  1
  O  O352  1  0.74230182  0.38302290  0.74757926  1
  O  O353  1  0.73874272  0.88273684  0.25599832  1
  O  O354  1  0.73559228  0.88323414  0.74998608  1
  O  O355  1  0.25412379  0.11876850  0.25454793  1
  O  O356  1  0.24176680  0.11370144  0.75487536  1
  O  O357  1  0.25258347  0.62018129  0.26649961  1
  O  O358  1  0.25566441  0.62276583  0.75630018  1
  O  O359  1  0.75535914  0.11723082  0.24206241  1
  O  O360  1  0.75477768  0.11724376  0.74963895  1
  O  O361  1  0.74858693  0.62053193  0.26038869  1
  O  O362  1  0.75877643  0.61871569  0.74907207  1
  O  O363  1  0.36254981  0.12156817  0.37148368  1
  O  O364  1  0.35922730  0.10942094  0.87219640  1
  O  O365  1  0.36834404  0.61915216  0.37857010  1
  O  O366  1  0.36816837  0.62393427  0.86993084  1
  O  O367  1  0.86791521  0.13114416  0.35560126  1
  O  O368  1  0.87405563  0.11683288  0.86707793  1
  O  O369  1  0.86885040  0.62081098  0.37806542  1
  O  O370  1  0.88113369  0.62179682  0.86434196  1
  O  O371  1  0.13248641  0.38498567  0.12866511  1
  O  O372  1  0.13437481  0.37631341  0.63546122  1
  O  O373  1  0.12449743  0.88085848  0.13018819  1
  O  O374  1  0.12788453  0.88056307  0.62769783  1
  O  O375  1  0.62746633  0.39117921  0.13517052  1
  O  O376  1  0.62891632  0.38042533  0.63497338  1
  O  O377  1  0.61827139  0.88359206  0.13371987  1
  O  O378  1  0.62425423  0.86999232  0.63728829  1
  O  O379  1  0.13220593  0.25552148  0.26394227  1
  O  O380  1  0.11653088  0.25781504  0.75031896  1
  O  O381  1  0.12388025  0.75700450  0.25925881  1
  O  O382  1  0.12361460  0.75875164  0.76047430  1
  O  O383  1  0.65349873  0.26982647  0.27434053  1
  O  O384  1  0.62614355  0.26232878  0.74633751  1
  O  O385  1  0.62275680  0.75850369  0.25221783  1
  O  O386  1  0.61888121  0.75902109  0.75372184  1
  O  O387  1  0.37257026  0.23231338  0.24988550  1
  O  O388  1  0.38520747  0.25133191  0.75325601  1
  O  O389  1  0.38413516  0.74780296  0.24115091  1
  O  O390  1  0.37847628  0.74438774  0.74926781  1
  O  O391  1  0.87213085  0.24964343  0.24860736  1
  O  O392  1  0.88149222  0.24874413  0.74184198  1
  O  O393  1  0.87635036  0.75209847  0.24086382  1
  O  O394  1  0.86720465  0.74468157  0.74124801  1
  O  O395  1  0.38122520  0.49259400  0.49528087  1
  O  O396  1  0.38514113  0.50615543  0.98917037  1
  O  O397  1  0.38121094  0.98629169  0.49332179  1
  O  O398  1  0.38192938  0.99347747  1.00071820  1
  O  O399  1  0.87980828  0.49251840  0.49456745  1
  O  O400  1  0.87004658  0.48697724  0.99318404  1
  O  O401  1  0.88256958  0.98951263  0.50461824  1
  O  O402  1  0.87826830  0.99631808  0.99537776  1
  O  O403  1  0.11767495  0.00356186  0.00602135  1
  O  O404  1  0.11773123  0.00682577  0.50755758  1
  O  O405  1  0.12888188  0.50768987  0.00997480  1
  O  O406  1  0.11634337  0.50980637  0.50273561  1
  O  O407  1  0.61352022  -0.01018362  0.00712175  1
  O  O408  1  0.62310847  0.01590301  0.49801364  1
  O  O409  1  0.62049094  0.49886107  0.00729020  1
  O  O410  1  0.61873693  0.50394645  0.50638682  1
  O  O411  1  0.36401235  0.37506545  0.12460008  1
  O  O412  1  0.36384806  0.38000552  0.62361054  1
  O  O413  1  0.37281798  0.86436678  0.11884221  1
  O  O414  1  0.36454776  0.87439063  0.61624291  1
  O  O415  1  0.87822134  0.37956838  0.11247584  1
  O  O416  1  0.86719692  0.36765391  0.62155467  1
  O  O417  1  0.88037655  0.86485727  0.11657240  1
  O  O418  1  0.88074312  0.86440196  0.61667944  1
  O  O419  1  0.13328236  0.13145663  0.37790276  1
  O  O420  1  0.13533109  0.11503902  0.88372307  1
  O  O421  1  0.13077479  0.63004692  0.38220438  1
  O  O422  1  0.13020125  0.63106501  0.88194641  1
  O  O423  1  0.62370399  0.13341745  0.39077465  1
  O  O424  1  0.62882504  0.12207730  0.88169416  1
  O  O425  1  0.62832817  0.63113488  0.38219507  1
  O  O426  1  0.61826005  0.64728495  0.86929862  1
