# generated using pymatgen
data_V85Zn86O256
_symmetry_space_group_name_H-M   'P 1'
_cell_length_a   16.95285374
_cell_length_b   16.95675311
_cell_length_c   16.96435308
_cell_angle_alpha   89.99322999
_cell_angle_beta   89.99107923
_cell_angle_gamma   89.98747400
_symmetry_Int_Tables_number   1
_chemical_formula_structural   V85Zn86O256
_chemical_formula_sum   'V85 Zn86 O256'
_cell_volume   4876.66357540
_cell_formula_units_Z   1
loop_
 _symmetry_equiv_pos_site_id
 _symmetry_equiv_pos_as_xyz
  1  'x, y, z'
loop_
 _atom_site_type_symbol
 _atom_site_label
 _atom_site_symmetry_multiplicity
 _atom_site_fract_x
 _atom_site_fract_y
 _atom_site_fract_z
 _atom_site_occupancy
  V  V0  1  0.00029271  0.49651256  0.50236799  1
  V  V1  1  0.00028998  0.36572980  0.37824092  1
  V  V2  1  0.24806290  0.37364880  0.64269172  1
  V  V3  1  0.24238363  0.12864721  0.37536813  1
  V  V4  1  0.37252853  0.00061097  0.87162865  1
  V  V5  1  0.50313675  0.87552297  0.87722361  1
  V  V6  1  0.11980760  0.11112924  0.00493316  1
  V  V7  1  0.87676602  0.49792415  0.38063737  1
  V  V8  1  0.75116427  0.75011596  0.50227969  1
  V  V9  1  0.37476964  0.87650886  0.00134425  1
  V  V10  1  0.74949589  0.49901724  0.75071953  1
  V  V11  1  0.49651247  0.75313714  0.25123361  1
  V  V12  1  0.00339514  0.75801040  0.74786042  1
  V  V13  1  0.75477106  0.13830004  0.87121302  1
  V  V14  1  0.24863599  0.24777704  0.00276668  1
  V  V15  1  0.50094563  0.62486369  0.62418822  1
  V  V16  1  0.83352658  0.68479168  0.18948847  1
  V  V17  1  0.74772131  0.62575123  0.88316278  1
  V  V18  1  0.50585682  0.36166952  0.87272215  1
  V  V19  1  0.12508852  0.12439107  0.50307493  1
  V  V20  1  0.87181748  0.25177530  0.62886318  1
  V  V21  1  0.75605272  0.62588066  0.37293057  1
  V  V22  1  0.36151199  0.50265195  0.37668471  1
  V  V23  1  0.62403425  0.24824100  0.37177558  1
  V  V24  1  0.12835565  0.61738695  0.00272811  1
  V  V25  1  0.24937715  0.74385210  0.50162171  1
  V  V26  1  0.00719798  0.61547334  0.12890135  1
  V  V27  1  0.87882911  0.25298067  0.12969160  1
  V  V28  1  0.12264644  0.37477867  0.24963008  1
  V  V29  1  0.12641289  0.75583988  0.86979418  1
  V  V30  1  0.24723885  0.12292386  0.86578176  1
  V  V31  1  0.62890901  0.12952241  -0.00152794  1
  V  V32  1  0.38743157  0.24608530  0.62933597  1
  V  V33  1  0.50042745  0.00542237  0.51314476  1
  V  V34  1  0.49844738  0.62419097  0.12028212  1
  V  V35  1  0.62174073  0.12367281  0.50981912  1
  V  V36  1  0.37143121  0.00162858  0.37663310  1
  V  V37  1  0.37562629  0.49712906  0.86729005  1
  V  V38  1  0.37154442  0.87638854  0.50305770  1
  V  V39  1  0.74917135  0.26091920  0.00070919  1
  V  V40  1  0.06017301  0.93328999  0.18670699  1
  V  V41  1  0.37105751  0.12397824  0.24660892  1
  V  V42  1  0.62761175  0.49972035  0.11950588  1
  V  V43  1  0.24487565  0.88312137  0.12960712  1
  V  V44  1  0.75740471  0.00385886  0.75090983  1
  V  V45  1  0.63734733  0.88569326  0.24590562  1
  V  V46  1  0.00488025  0.74405688  0.24775451  1
  V  V47  1  0.49669745  0.37734169  0.37266247  1
  V  V48  1  0.62535520  0.49869045  0.62544100  1
  V  V49  1  0.37275571  0.37362747  0.50213309  1
  V  V50  1  0.37329590  0.75107007  0.12516737  1
  V  V51  1  0.75808339  0.49777168  0.24529248  1
  V  V52  1  0.74718891  0.88132049  0.62425447  1
  V  V53  1  0.62731540  0.74744271  0.88558838  1
  V  V54  1  0.49767621  0.25017066  0.24724740  1
  V  V55  1  0.24688428  0.25187589  0.50073604  1
  V  V56  1  0.62758007  0.36271313  0.75262035  1
  V  V57  1  0.24739850  0.87647894  0.63871112  1
  V  V58  1  0.49957924  0.49999328  0.49817752  1
  V  V59  1  0.12810742  0.49525828  0.63831040  1
  V  V60  1  0.62796810  0.37662917  0.24397557  1
  V  V61  1  0.87608907  0.85988104  0.00547135  1
  V  V62  1  0.36799313  0.62493743  0.25541297  1
  V  V63  1  0.12018658  0.26108579  0.87200988  1
  V  V64  1  0.88820869  0.37426034  0.00099258  1
  V  V65  1  0.25107681  0.62074001  0.86494163  1
  V  V66  1  0.74944541  0.11916550  0.36691433  1
  V  V67  1  0.62424431  0.75126082  0.37707672  1
  V  V68  1  0.24929081  0.74921269  -0.00021806  1
  V  V69  1  0.50576970  0.00045765  0.00652277  1
  V  V70  1  0.87638345  0.62673840  0.74832390  1
  V  V71  1  0.50188022  0.50142173  -0.00384755  1
  V  V72  1  0.88077617  0.00044208  0.88349523  1
  V  V73  1  0.62562071  0.88127021  0.74716480  1
  V  V74  1  0.75617572  0.25521067  0.49431504  1
  V  V75  1  0.87565829  -0.00043165  0.37386590  1
  V  V76  1  0.13237281  0.74867444  0.37092492  1
  V  V77  1  0.88134716  0.87445888  0.50283226  1
  V  V78  1  0.24728443  0.38398711  0.12443812  1
  V  V79  1  -0.00642733  0.12547696  0.63221971  1
  V  V80  1  0.88647608  0.49672233  0.87378492  1
  V  V81  1  0.50220041  0.74819469  0.75030952  1
  V  V82  1  0.12884608  -0.00110773  0.64125701  1
  V  V83  1  0.39335862  0.12699096  0.75001120  1
  V  V84  1  0.49884449  0.87841249  0.37564674  1
  Zn  Zn85  1  0.37499758  0.62054732  0.74737151  1
  Zn  Zn86  1  0.37304032  0.25073017  0.12496449  1
  Zn  Zn87  1  0.66057207  -0.00190177  0.12339155  1
  Zn  Zn88  1  0.74961681  0.75062081  0.01650160  1
  Zn  Zn89  1  0.23693084  -0.00172872  0.24990941  1
  Zn  Zn90  1  0.50787963  0.12156153  0.12881091  1
  Zn  Zn91  1  0.24043425  0.50634695  0.24783736  1
  Zn  Zn92  1  0.62643814  0.62319155  0.49729901  1
  Zn  Zn93  1  0.00533888  0.24469934  0.25262456  1
  Zn  Zn94  1  0.37330943  0.74979069  0.62690154  1
  Zn  Zn95  1  0.00984958  0.26084361  0.74936390  1
  Zn  Zn96  1  0.00272492  -0.00057129  0.50366243  1
  Zn  Zn97  1  0.00551490  0.88236492  0.87413471  1
  Zn  Zn98  1  0.12912332  0.61957548  0.49790853  1
  Zn  Zn99  1  0.00954991  0.49558536  0.00161894  1
  Zn  Zn100  1  0.87738041  0.74983204  0.62564037  1
  Zn  Zn101  1  0.87217125  0.11397834  0.23999093  1
  Zn  Zn102  1  0.00610543  0.87679112  0.37245298  1
  Zn  Zn103  1  0.00363137  0.62461338  0.62430383  1
  Zn  Zn104  1  0.00469843  0.11366162  0.12781587  1
  Zn  Zn105  1  0.75178079  0.37959194  0.61564127  1
  Zn  Zn106  1  0.37573998  0.37261109  0.00095475  1
  Zn  Zn107  1  0.18415717  0.19131856  0.18684657  1
  Zn  Zn108  1  0.19120534  0.18814030  0.68902080  1
  Zn  Zn109  1  0.18649741  0.69014231  0.18540332  1
  Zn  Zn110  1  0.18492137  0.68513412  0.68483592  1
  Zn  Zn111  1  0.69188038  0.18717924  0.18063389  1
  Zn  Zn112  1  0.69351045  0.18601944  0.68459436  1
  Zn  Zn113  1  0.66947640  0.68467277  0.19329004  1
  Zn  Zn114  1  0.68742596  0.68942271  0.68977732  1
  Zn  Zn115  1  0.30754166  0.31284298  0.31278224  1
  Zn  Zn116  1  0.31812745  0.30527708  0.81654751  1
  Zn  Zn117  1  0.30744004  0.81566033  0.31274679  1
  Zn  Zn118  1  0.31598380  0.80941702  0.81429984  1
  Zn  Zn119  1  0.81270724  0.31682878  0.31363539  1
  Zn  Zn120  1  0.84198686  0.32310458  0.80042105  1
  Zn  Zn121  1  0.81347244  0.81801882  0.31970688  1
  Zn  Zn122  1  0.81407866  0.81401286  0.81556382  1
  Zn  Zn123  1  0.18027936  0.43233457  0.43936739  1
  Zn  Zn124  1  0.19233085  0.43632218  0.93448211  1
  Zn  Zn125  1  0.18599712  0.93500012  0.44248416  1
  Zn  Zn126  1  0.19043935  0.93699893  0.93627093  1
  Zn  Zn127  1  0.68469543  0.43845510  0.43136403  1
  Zn  Zn128  1  0.68874315  0.43709105  0.93487258  1
  Zn  Zn129  1  0.68656758  0.93992160  0.43921842  1
  Zn  Zn130  1  0.69490867  0.93732618  0.93830651  1
  Zn  Zn131  1  0.31072429  0.06295252  0.05969508  1
  Zn  Zn132  1  0.31115168  0.06348968  0.56867679  1
  Zn  Zn133  1  0.31578244  0.56055589  0.05741947  1
  Zn  Zn134  1  0.31120893  0.55965176  0.56740897  1
  Zn  Zn135  1  0.81972885  0.07172263  0.05203320  1
  Zn  Zn136  1  0.80969528  0.06260477  0.55842468  1
  Zn  Zn137  1  0.81235097  0.55618439  0.05758128  1
  Zn  Zn138  1  0.81445581  0.56263358  0.56089278  1
  Zn  Zn139  1  0.43231700  0.43784085  0.18652839  1
  Zn  Zn140  1  0.44054113  0.43127510  0.68932326  1
  Zn  Zn141  1  0.43518447  0.93827661  0.18946234  1
  Zn  Zn142  1  0.43437364  0.93662552  0.69020463  1
  Zn  Zn143  1  0.93880600  0.43455667  0.18636418  1
  Zn  Zn144  1  0.93921840  0.43052383  0.68449516  1
  Zn  Zn145  1  0.86045043  0.94920966  0.16714117  1
  Zn  Zn146  1  0.93698108  0.93913192  0.68860678  1
  Zn  Zn147  1  0.05389630  0.06845154  0.31778123  1
  Zn  Zn148  1  0.05958830  0.07268213  0.81352723  1
  Zn  Zn149  1  0.06432629  0.56224338  0.31561192  1
  Zn  Zn150  1  0.06310422  0.56877357  0.81177792  1
  Zn  Zn151  1  0.56003068  0.06270197  0.31602554  1
  Zn  Zn152  1  0.56941382  0.06203115  0.81881832  1
  Zn  Zn153  1  0.55963442  0.56345827  0.31023867  1
  Zn  Zn154  1  0.56530492  0.56120618  0.81287909  1
  Zn  Zn155  1  0.43512085  0.18758116  0.43711672  1
  Zn  Zn156  1  0.43644826  0.18393446  0.94069659  1
  Zn  Zn157  1  0.43486423  0.68752844  0.43963271  1
  Zn  Zn158  1  0.43688433  0.68544930  0.93689811  1
  Zn  Zn159  1  0.93665124  0.18262172  0.44082343  1
  Zn  Zn160  1  0.94065407  0.18527177  0.93907650  1
  Zn  Zn161  1  0.94136753  0.68432107  0.43503915  1
  Zn  Zn162  1  0.94220366  0.68445688  0.93567499  1
  Zn  Zn163  1  0.06781607  0.30953816  0.06426180  1
  Zn  Zn164  1  0.06235782  0.31355193  0.56284878  1
  Zn  Zn165  1  0.05446123  0.80398590  0.05512218  1
  Zn  Zn166  1  0.06692253  0.81163197  0.56445677  1
  Zn  Zn167  1  0.56237480  0.31243719  0.06184883  1
  Zn  Zn168  1  0.56698284  0.31339804  0.56124120  1
  Zn  Zn169  1  0.56550574  0.81582367  0.06613829  1
  Zn  Zn170  1  0.56162089  0.81588403  0.56301242  1
  O  O171  1  0.12534850  0.12678576  0.11053746  1
  O  O172  1  0.12247020  0.11623821  0.62227894  1
  O  O173  1  0.12085355  0.62620204  0.11518811  1
  O  O174  1  0.12549590  0.60810990  0.62175197  1
  O  O175  1  0.62771083  0.11714281  0.11490915  1
  O  O176  1  0.62679575  0.12821654  0.60812788  1
  O  O177  1  0.60652301  0.61420370  0.13117708  1
  O  O178  1  0.61538160  0.61951056  0.62449194  1
  O  O179  1  0.37814522  0.38252667  0.38041052  1
  O  O180  1  0.38797250  0.37958607  0.87621105  1
  O  O181  1  0.37717384  0.88409874  0.38092243  1
  O  O182  1  0.38189598  0.88115246  0.88118792  1
  O  O183  1  0.88317529  0.38876990  0.36989503  1
  O  O184  1  0.86474159  0.38639811  0.89388204  1
  O  O185  1  0.87912886  0.88107019  0.38722439  1
  O  O186  1  0.87676003  0.88757243  0.87726076  1
  O  O187  1  0.25783022  0.00585129  0.37578529  1
  O  O188  1  0.26160046  0.00876922  0.88073357  1
  O  O189  1  0.25949173  0.49588840  0.37644455  1
  O  O190  1  0.26262292  0.50819499  0.87895974  1
  O  O191  1  0.75726745  0.01039583  0.38288267  1
  O  O192  1  0.76110217  0.00763078  0.86897286  1
  O  O193  1  0.75476145  0.50584838  0.36638994  1
  O  O194  1  0.75545390  0.50822550  0.86867647  1
  O  O195  1  0.25642019  0.48790082  0.12502777  1
  O  O196  1  0.23795293  0.48904317  0.62331291  1
  O  O197  1  0.25322094  0.98702964  0.12505273  1
  O  O198  1  0.23757756  0.99347102  0.62562158  1
  O  O199  1  0.73859265  0.50863529  0.13241251  1
  O  O200  1  0.74416530  0.49978017  0.63148381  1
  O  O201  1  0.77218636  1.00828847  0.13100278  1
  O  O202  1  0.75389262  0.98964687  0.63234185  1
  O  O203  1  0.00827561  0.37332776  0.25659016  1
  O  O204  1  -0.04873501  0.35501070  0.76387091  1
  O  O205  1  0.00877097  0.86682834  0.24712700  1
  O  O206  1  -0.00457445  0.86164089  0.75274327  1
  O  O207  1  0.50324339  0.36899359  0.25360042  1
  O  O208  1  0.51110984  0.37646655  0.76429107  1
  O  O209  1  0.50294205  0.87014960  0.25739776  1
  O  O210  1  0.50762512  0.86954869  0.75508965  1
  O  O211  1  0.49122109  0.13197654  0.25004902  1
  O  O212  1  0.49291427  0.12168075  0.75900643  1
  O  O213  1  0.48933828  0.63223343  0.24315311  1
  O  O214  1  0.50253058  0.63259018  0.74288156  1
  O  O215  1  0.99162751  0.12994431  0.24623046  1
  O  O216  1  1.00243387  0.13624834  0.73523749  1
  O  O217  1  1.00341631  0.63033670  0.24282341  1
  O  O218  1  0.99068226  0.63320000  0.74755235  1
  O  O219  1  0.36182367  0.24838184  0.00160625  1
  O  O220  1  0.36720698  0.25281154  0.50674010  1
  O  O221  1  0.37063076  0.75519568  0.00583091  1
  O  O222  1  0.36860380  0.75807608  0.50235809  1
  O  O223  1  0.87350848  0.26072499  0.00372271  1
  O  O224  1  0.85885219  0.24619551  0.50159163  1
  O  O225  1  0.86838250  0.75628652  -0.01426808  1
  O  O226  1  0.87002319  0.75712806  0.50030671  1
  O  O227  1  0.13547118  0.23672752  0.51070818  1
  O  O228  1  0.13454524  0.24374348  0.99190749  1
  O  O229  1  0.13296011  0.74457818  0.49472434  1
  O  O230  1  0.13140280  0.73912559  0.99118783  1
  O  O231  1  0.62949279  0.24101157  0.49164855  1
  O  O232  1  0.63564707  0.24266713  1.00741784  1
  O  O233  1  0.62813839  0.75202234  0.48828765  1
  O  O234  1  0.62911574  0.75551132  0.98981603  1
  O  O235  1  0.49743045  0.24705545  0.13659843  1
  O  O236  1  0.48612308  0.25597506  0.61820267  1
  O  O237  1  0.49553916  0.74309362  0.12897149  1
  O  O238  1  0.50135905  0.74236096  0.63204690  1
  O  O239  1  0.98752181  0.25348867  0.12560243  1
  O  O240  1  0.98631115  0.24690466  0.62458100  1
  O  O241  1  1.00808342  0.73758081  0.13977913  1
  O  O242  1  1.00023992  0.74591716  0.63288551  1
  O  O243  1  -0.01133825  0.26263556  0.37566941  1
  O  O244  1  0.01761644  0.24338879  0.87614281  1
  O  O245  1  0.00715269  0.75181929  0.36359264  1
  O  O246  1  0.01216909  0.74609170  0.86539855  1
  O  O247  1  0.50276205  0.25471113  0.36386073  1
  O  O248  1  0.49901864  0.26382926  0.88332799  1
  O  O249  1  0.50629544  0.75625739  0.37277722  1
  O  O250  1  0.50740704  0.75386246  0.87027637  1
  O  O251  1  0.24604583  0.13125619  0.49533599  1
  O  O252  1  0.24289798  0.13081668  0.99347154  1
  O  O253  1  0.25446918  0.63995174  0.50682045  1
  O  O254  1  0.24669074  0.63074580  0.99382862  1
  O  O255  1  0.73784185  0.13306187  0.49084519  1
  O  O256  1  0.74682012  0.13784670  0.99089081  1
  O  O257  1  0.74712898  0.63284200  0.49405724  1
  O  O258  1  0.75443192  0.62822282  0.98614487  1
  O  O259  1  0.25082965  0.36695354  0.00766648  1
  O  O260  1  0.25431251  0.36557360  0.50429761  1
  O  O261  1  0.25645860  0.86895869  0.00623553  1
  O  O262  1  0.25543975  0.86608735  0.50893370  1
  O  O263  1  0.75320858  0.36417403  -0.00259526  1
  O  O264  1  0.73881676  0.35857379  0.49532051  1
  O  O265  1  0.76618353  0.86752254  -0.00625066  1
  O  O266  1  0.75515752  0.87130298  0.50760714  1
  O  O267  1  0.12693219  0.48439005  0.25757971  1
  O  O268  1  0.11880842  0.49975164  0.73729111  1
  O  O269  1  0.11664054  0.99553166  0.24744819  1
  O  O270  1  0.12358602  1.00607105  0.73970637  1
  O  O271  1  0.63161110  0.49502263  0.24312463  1
  O  O272  1  0.63303759  0.49438985  0.74417245  1
  O  O273  1  0.62073083  0.98788375  0.25081310  1
  O  O274  1  0.63471782  0.98605309  0.75899895  1
  O  O275  1  0.37272352  0.00857320  0.26008669  1
  O  O276  1  0.38212747  0.00545582  0.76551460  1
  O  O277  1  0.37332877  0.50816396  0.25998070  1
  O  O278  1  0.38482162  0.50106972  0.76322648  1
  O  O279  1  0.87674458  -0.00351614  0.26959701  1
  O  O280  1  0.86221970  -0.00405251  0.75797740  1
  O  O281  1  0.86209091  0.49373006  0.25358017  1
  O  O282  1  0.86816100  0.50621138  0.75641541  1
  O  O283  1  0.11300580  0.37416339  0.36598074  1
  O  O284  1  0.12845375  0.35989869  0.87849062  1
  O  O285  1  0.12175597  0.85653327  0.38567617  1
  O  O286  1  0.12675349  0.86049745  0.87922085  1
  O  O287  1  0.61652539  0.36990669  0.36278365  1
  O  O288  1  0.61403615  0.37888127  0.86805388  1
  O  O289  1  0.61939741  0.87111486  0.36902096  1
  O  O290  1  0.62118260  0.86773982  0.86934858  1
  O  O291  1  0.37219129  0.12561426  0.13869678  1
  O  O292  1  0.37135833  0.13268907  0.63793446  1
  O  O293  1  0.38324259  0.62916572  0.13007794  1
  O  O294  1  0.38821468  0.62498823  0.62780869  1
  O  O295  1  0.88424336  0.14098337  0.12143665  1
  O  O296  1  0.88424180  0.13442864  0.61022104  1
  O  O297  1  0.88475684  0.62373576  0.12195587  1
  O  O298  1  0.87415184  0.62581994  0.63856169  1
  O  O299  1  0.24993257  0.25882208  0.11741369  1
  O  O300  1  0.25735799  0.25643670  0.61843208  1
  O  O301  1  0.25373232  0.75992570  0.11901379  1
  O  O302  1  0.24961303  0.75775322  0.61961469  1
  O  O303  1  0.76597958  0.24664624  0.11251519  1
  O  O304  1  0.75421371  0.24899660  0.60725480  1
  O  O305  1  0.75589916  0.73148747  0.13343376  1
  O  O306  1  0.75078721  0.76022751  0.61997395  1
  O  O307  1  0.25557181  0.24070308  0.38874690  1
  O  O308  1  0.24391383  0.24181688  0.88281669  1
  O  O309  1  0.24024410  0.75285447  0.38280753  1
  O  O310  1  0.24712167  0.74217478  0.88051030  1
  O  O311  1  0.74581527  0.24513820  0.38122095  1
  O  O312  1  0.76439238  0.24040784  0.87869996  1
  O  O313  1  0.74293775  0.74623447  0.38057288  1
  O  O314  1  0.73969844  0.74064806  0.86741521  1
  O  O315  1  0.01584409  0.12373109  0.00363461  1
  O  O316  1  0.01082443  0.12591620  0.51023425  1
  O  O317  1  0.01120127  0.62459631  0.00852680  1
  O  O318  1  -0.00023449  0.61027295  0.50430520  1
  O  O319  1  0.51056214  0.11835346  0.00199618  1
  O  O320  1  0.51228024  0.12026051  0.49233706  1
  O  O321  1  0.49601102  0.61344021  0.00743092  1
  O  O322  1  0.50314774  0.61992427  0.50774056  1
  O  O323  1  0.49391179  0.38004543  0.49294915  1
  O  O324  1  0.50128764  0.38332453  0.99027554  1
  O  O325  1  0.49409319  0.88395394  0.49428184  1
  O  O326  1  0.49542687  0.88064405  0.99757936  1
  O  O327  1  1.00581175  0.38490485  0.49124600  1
  O  O328  1  0.99170424  0.37617674  1.00096465  1
  O  O329  1  0.98927248  0.87482586  0.50444958  1
  O  O330  1  0.98493856  0.86544594  0.98872389  1
  O  O331  1  0.49334032  0.49553768  0.37954644  1
  O  O332  1  0.49758150  0.49589045  0.88261527  1
  O  O333  1  0.48645049  0.99788433  0.38204166  1
  O  O334  1  0.49773116  0.99356368  0.88808363  1
  O  O335  1  0.99270703  0.49454830  0.38256960  1
  O  O336  1  0.98872357  0.50725627  0.87757842  1
  O  O337  1  0.99247240  0.99653740  0.38454886  1
  O  O338  1  0.98426453  1.00160599  0.86346447  1
  O  O339  1  -0.00955040  -0.01102051  0.13927044  1
  O  O340  1  0.00926360  0.00729320  0.62580201  1
  O  O341  1  -0.00194324  0.51154276  0.12381277  1
  O  O342  1  0.00904490  0.49447230  0.61992098  1
  O  O343  1  0.49375054  0.00103087  0.11187599  1
  O  O344  1  0.49474338  -0.00359344  0.61209424  1
  O  O345  1  0.50232909  0.50525346  0.11713641  1
  O  O346  1  0.50480067  0.50543733  0.62006254  1
  O  O347  1  0.24100419  0.37687075  0.24382615  1
  O  O348  1  0.25758102  0.36923811  0.74120842  1
  O  O349  1  0.24967598  0.87919352  0.23833327  1
  O  O350  1  0.25585389  0.86917414  0.73805777  1
  O  O351  1  0.73819574  0.38484514  0.25392168  1
  O  O352  1  0.74734297  0.38858489  0.75128890  1
  O  O353  1  0.73638770  0.87368033  0.25504633  1
  O  O354  1  0.74414390  0.87987454  0.74302494  1
  O  O355  1  0.25225313  0.12277247  0.25816479  1
  O  O356  1  0.25902230  0.12823048  0.76389026  1
  O  O357  1  0.26388802  0.62413420  0.24208208  1
  O  O358  1  0.25469927  0.63011268  0.76153534  1
  O  O359  1  0.75410241  0.13395047  0.26334515  1
  O  O360  1  0.73852411  0.11317032  0.75915990  1
  O  O361  1  0.75885868  0.62373085  0.25101266  1
  O  O362  1  0.75482597  0.61594614  0.75522645  1
  O  O363  1  0.36482058  0.11986008  0.36756658  1
  O  O364  1  0.36991517  0.11861394  0.87075043  1
  O  O365  1  0.38043048  0.61587170  0.36631801  1
  O  O366  1  0.36848708  0.61662860  0.87356069  1
  O  O367  1  0.86592001  0.11578048  0.37848250  1
  O  O368  1  0.86817793  0.11239485  0.88357710  1
  O  O369  1  0.86886754  0.61162015  0.37670872  1
  O  O370  1  0.86822996  0.61761143  0.86501912  1
  O  O371  1  0.13191393  0.37512691  0.13646675  1
  O  O372  1  0.13351763  0.38369493  0.62495050  1
  O  O373  1  0.12355707  0.87839644  0.12208725  1
  O  O374  1  0.13127082  0.89104359  0.62234276  1
  O  O375  1  0.61685281  0.38505262  0.13670427  1
  O  O376  1  0.62814114  0.38245606  0.63240414  1
  O  O377  1  0.62513094  0.87944087  0.14102394  1
  O  O378  1  0.63344014  0.87172959  0.63480446  1
  O  O379  1  0.12337788  0.26617479  0.25030530  1
  O  O380  1  0.12782315  0.24704124  0.76633476  1
  O  O381  1  0.12206610  0.74723557  0.26282641  1
  O  O382  1  0.11673703  0.74311946  0.75785693  1
  O  O383  1  0.61920451  0.25742871  0.25055876  1
  O  O384  1  0.63551508  0.26399880  0.74466289  1
  O  O385  1  0.61689241  0.76163770  0.26121732  1
  O  O386  1  0.61636749  0.75884647  0.75701618  1
  O  O387  1  0.38121124  0.24195006  0.25201056  1
  O  O388  1  0.37717181  0.23956774  0.74249784  1
  O  O389  1  0.37818898  0.74479683  0.24659277  1
  O  O390  1  0.39186611  0.74806127  0.75028519  1
  O  O391  1  0.87249341  0.25778634  0.23403280  1
  O  O392  1  0.85064305  0.23430717  0.72519086  1
  O  O393  1  0.88396519  0.75088535  0.25442150  1
  O  O394  1  0.88172617  0.74191073  0.75089726  1
  O  O395  1  0.37924402  0.49542866  0.49413999  1
  O  O396  1  0.38609266  0.49588350  0.98910541  1
  O  O397  1  0.37883927  0.99894308  0.49453718  1
  O  O398  1  0.38314500  0.99755070  0.99088818  1
  O  O399  1  0.88214340  0.49883161  0.49227612  1
  O  O400  1  0.87951920  0.48941658  0.99406886  1
  O  O401  1  0.87544745  0.99019219  0.49418876  1
  O  O402  1  0.87511667  0.98858872  0.98671856  1
  O  O403  1  0.12838519  0.01249254  -0.00325737  1
  O  O404  1  0.12639628  0.01229270  0.50924393  1
  O  O405  1  0.12688920  0.51305627  -0.00863534  1
  O  O406  1  0.11703535  0.50065528  0.50748208  1
  O  O407  1  0.62179432  0.00302925  0.00523922  1
  O  O408  1  0.61563346  0.01461760  0.49416627  1
  O  O409  1  0.61995312  0.49474666  0.01187464  1
  O  O410  1  0.61838345  0.50034581  0.50530794  1
  O  O411  1  0.36552311  0.37049440  0.12283591  1
  O  O412  1  0.36827626  0.36998859  0.62012373  1
  O  O413  1  0.36708576  0.86931033  0.12087544  1
  O  O414  1  0.36629753  0.87429661  0.62011028  1
  O  O415  1  0.87497620  0.36949642  0.11021777  1
  O  O416  1  0.86798679  0.35709249  0.61822084  1
  O  O417  1  0.88129002  0.85783740  0.10595661  1
  O  O418  1  0.86685878  0.87340275  0.61845629  1
  O  O419  1  0.13605379  0.12050128  0.38417380  1
  O  O420  1  0.13323702  0.12859516  0.88482390  1
  O  O421  1  0.12126032  0.64173975  0.38064605  1
  O  O422  1  0.13506590  0.63163428  0.87976902  1
  O  O423  1  0.63145318  0.13183174  0.37711482  1
  O  O424  1  0.63840733  0.12016722  0.89051535  1
  O  O425  1  0.63167717  0.63549617  0.37122337  1
  O  O426  1  0.63429000  0.63489002  0.86970546  1
