# generated using pymatgen
data_V85Zn86O256
_symmetry_space_group_name_H-M   'P 1'
_cell_length_a   16.92666604
_cell_length_b   16.91924392
_cell_length_c   16.92261769
_cell_angle_alpha   89.98528590
_cell_angle_beta   90.04444550
_cell_angle_gamma   89.97104398
_symmetry_Int_Tables_number   1
_chemical_formula_structural   V85Zn86O256
_chemical_formula_sum   'V85 Zn86 O256'
_cell_volume   4846.40517631
_cell_formula_units_Z   1
loop_
 _symmetry_equiv_pos_site_id
 _symmetry_equiv_pos_as_xyz
  1  'x, y, z'
loop_
 _atom_site_type_symbol
 _atom_site_label
 _atom_site_symmetry_multiplicity
 _atom_site_fract_x
 _atom_site_fract_y
 _atom_site_fract_z
 _atom_site_occupancy
  V  V0  1  0.25164965  0.51434402  0.25203033  1
  V  V1  1  0.24865417  0.36031614  0.62780352  1
  V  V2  1  0.49886939  0.74862448  0.74939962  1
  V  V3  1  0.00756008  0.12593295  0.11906821  1
  V  V4  1  0.36070339  0.36275981  0.49157326  1
  V  V5  1  -0.00242065  0.75299883  0.24678084  1
  V  V6  1  0.24833519  0.13185790  0.88907780  1
  V  V7  1  -0.00352104  0.75157740  0.74773006  1
  V  V8  1  -0.00206704  0.00474924  0.50568729  1
  V  V9  1  0.88083331  0.24134089  0.62272800  1
  V  V10  1  0.62106487  0.00705557  0.62542015  1
  V  V11  1  0.37264321  0.36797256  0.00038926  1
  V  V12  1  0.12902015  0.12827144  0.50325186  1
  V  V13  1  0.75249024  0.49845222  0.24637978  1
  V  V14  1  -0.00134475  0.87752159  0.37540563  1
  V  V15  1  0.25804887  0.87376917  0.12341703  1
  V  V16  1  0.62525831  0.14022067  0.50116961  1
  V  V17  1  0.87280896  0.37018051  -0.00583242  1
  V  V18  1  0.12759389  -0.00080351  0.11494143  1
  V  V19  1  0.75157920  0.62611511  0.87404800  1
  V  V20  1  0.25040960  0.74949582  0.49559130  1
  V  V21  1  0.49680920  0.87305596  0.88431490  1
  V  V22  1  0.50003331  0.00577117  0.49832022  1
  V  V23  1  0.75993239  0.87058569  0.12474942  1
  V  V24  1  -0.01396323  0.00035673  -0.00532785  1
  V  V25  1  0.75622008  0.87304573  0.62746943  1
  V  V26  1  0.12571230  0.37558641  0.24853326  1
  V  V27  1  0.37929000  0.12799609  0.74129996  1
  V  V28  1  0.75143111  0.62687612  0.37560708  1
  V  V29  1  0.62301421  0.62461611  0.50025168  1
  V  V30  1  0.37971332  0.24628197  0.12891242  1
  V  V31  1  0.87506304  0.63178173  0.24414846  1
  V  V32  1  0.37405672  0.74992722  0.62395298  1
  V  V33  1  0.74207081  -0.00115781  0.25319409  1
  V  V34  1  0.13527291  0.24862462  0.37610508  1
  V  V35  1  0.62470734  0.49839557  0.62384547  1
  V  V36  1  0.49384556  0.48978340  0.49637174  1
  V  V37  1  0.87870373  0.50066575  0.37399369  1
  V  V38  1  -0.00307963  0.63246101  0.12029513  1
  V  V39  1  0.50602302  0.25468449  0.26794985  1
  V  V40  1  0.62803835  0.49651655  0.12224648  1
  V  V41  1  0.12492267  0.87061356  0.75898795  1
  V  V42  1  0.12626992  0.49592517  0.63170093  1
  V  V43  1  0.49940780  0.62608555  0.14576167  1
  V  V44  1  0.87571573  0.12406017  0.25094394  1
  V  V45  1  0.25089759  0.37073757  0.12224583  1
  V  V46  1  0.75107760  0.36671385  0.62297391  1
  V  V47  1  0.75563670  0.74945460  0.50489942  1
  V  V48  1  0.87250854  0.00070898  0.37812829  1
  V  V49  1  0.61952338  0.74709027  0.36885307  1
  V  V50  1  0.00014843  0.37269652  0.37284680  1
  V  V51  1  0.36835565  0.51729527  0.37371134  1
  V  V52  1  0.49558990  0.50409336  0.00242087  1
  V  V53  1  0.12600869  0.74734312  0.37417546  1
  V  V54  1  0.88196578  0.12337322  0.75415941  1
  V  V55  1  0.12837151  0.62334003  0.49688157  1
  V  V56  1  0.12559417  0.50318642  0.12260017  1
  V  V57  1  0.00329432  0.24794247  0.24803899  1
  V  V58  1  0.75183464  0.49775309  0.74871366  1
  V  V59  1  0.12636910  0.63201199  -0.00863090  1
  V  V60  1  0.25105829  0.00035665  0.75274137  1
  V  V61  1  0.12564021  0.87638453  0.24858487  1
  V  V62  1  0.74959736  0.36449121  0.11927977  1
  V  V63  1  0.37608942  0.88051846  0.49811372  1
  V  V64  1  0.11996939  0.00401665  0.62940401  1
  V  V65  1  0.37425898  -0.00362132  0.88518254  1
  V  V66  1  0.49806532  0.62127479  0.62421700  1
  V  V67  1  0.49895189  0.87459797  0.37163731  1
  V  V68  1  0.62305151  0.63132004  0.00037005  1
  V  V69  1  -0.01223797  0.87082627  0.88096340  1
  V  V70  1  0.62176358  0.87617922  0.74974016  1
  V  V71  1  0.75401402  0.00173657  0.75806366  1
  V  V72  1  0.62973014  0.25054567  0.88077009  1
  V  V73  1  0.01072316  0.24991412  0.74873844  1
  V  V74  1  -0.00475097  0.62988420  0.62284426  1
  V  V75  1  0.25499808  0.00642240  0.25699487  1
  V  V76  1  0.76528718  0.75267019  0.00385783  1
  V  V77  1  0.50086352  0.37494984  0.87370779  1
  V  V78  1  0.75487900  0.12751885  0.88451529  1
  V  V79  1  0.01069341  0.37694960  0.87051466  1
  V  V80  1  0.87318201  0.36805268  0.49835334  1
  V  V81  1  0.37900682  0.74475866  0.13939667  1
  V  V82  1  0.25788671  0.75329276  -0.00735420  1
  V  V83  1  0.74705746  0.14073203  0.37991920  1
  V  V84  1  0.37199349  0.61389032  0.74951755  1
  Zn  Zn85  1  0.87212708  0.24496086  0.11909950  1
  Zn  Zn86  1  0.62217314  0.36968938  0.74659324  1
  Zn  Zn87  1  0.87783785  0.87160048  0.50533258  1
  Zn  Zn88  1  0.62257247  0.12400377  0.00197398  1
  Zn  Zn89  1  0.00146354  0.49916905  0.50110286  1
  Zn  Zn90  1  0.62605033  0.75192891  0.87566201  1
  Zn  Zn91  1  0.25910537  0.12359690  0.38269644  1
  Zn  Zn92  1  0.12709785  0.24875614  0.88775190  1
  Zn  Zn93  1  0.24573564  0.49245182  0.75396477  1
  Zn  Zn94  1  0.50436503  0.23559034  0.74204193  1
  Zn  Zn95  1  -0.00253501  0.50314498  -0.00415200  1
  Zn  Zn96  1  0.24668729  0.62558080  0.86978230  1
  Zn  Zn97  1  0.38229421  0.12123822  0.25837135  1
  Zn  Zn98  1  0.62337479  -0.00327492  0.11865403  1
  Zn  Zn99  1  0.87215977  0.62977170  0.74296961  1
  Zn  Zn100  1  0.50114873  0.00046721  0.00418281  1
  Zn  Zn101  1  0.24788296  0.87526049  0.62597046  1
  Zn  Zn102  1  0.87635760  0.49839855  0.87238020  1
  Zn  Zn103  1  0.61979998  0.87049527  0.24778967  1
  Zn  Zn104  1  0.50490066  0.12218554  0.12578624  1
  Zn  Zn105  1  0.36981551  0.50072479  0.87872790  1
  Zn  Zn106  1  0.62729873  0.36658312  0.26633430  1
  Zn  Zn107  1  0.19098032  0.18980285  0.06688079  1
  Zn  Zn108  1  0.18938877  0.18138062  0.69105063  1
  Zn  Zn109  1  0.18520973  0.69155475  0.18193577  1
  Zn  Zn110  1  0.18494147  0.68799660  0.68513099  1
  Zn  Zn111  1  0.68183308  0.18453460  0.19029840  1
  Zn  Zn112  1  0.68928705  0.18765645  0.69240095  1
  Zn  Zn113  1  0.68766685  0.68783086  0.18577873  1
  Zn  Zn114  1  0.68578089  0.68801472  0.68766274  1
  Zn  Zn115  1  0.31572911  0.31664776  0.30839969  1
  Zn  Zn116  1  0.31325281  0.31079145  0.81148063  1
  Zn  Zn117  1  0.31232226  0.81541651  0.31469270  1
  Zn  Zn118  1  0.31527896  0.81163541  0.81086828  1
  Zn  Zn119  1  0.81440435  0.31316089  0.30526379  1
  Zn  Zn120  1  0.81545573  0.30940069  0.81056365  1
  Zn  Zn121  1  0.81057413  0.81403752  0.31436667  1
  Zn  Zn122  1  0.81348200  0.81053940  0.81222556  1
  Zn  Zn123  1  0.18921384  0.43871900  0.43721107  1
  Zn  Zn124  1  0.18844870  0.44055203  0.93849359  1
  Zn  Zn125  1  0.18485230  0.93574530  0.43980725  1
  Zn  Zn126  1  0.18661667  0.93500763  0.93717810  1
  Zn  Zn127  1  0.69053953  0.43432200  0.43978908  1
  Zn  Zn128  1  0.68806490  0.43780962  0.93817523  1
  Zn  Zn129  1  0.68463180  0.93774530  0.43885165  1
  Zn  Zn130  1  0.68865177  0.93643007  0.93950615  1
  Zn  Zn131  1  0.32192357  0.05897083  0.06844948  1
  Zn  Zn132  1  0.31059747  0.06081995  0.56431633  1
  Zn  Zn133  1  0.31251102  0.56599190  0.06470311  1
  Zn  Zn134  1  0.30937904  0.56067423  0.56269379  1
  Zn  Zn135  1  0.81252405  0.05900946  0.06791367  1
  Zn  Zn136  1  0.80683453  0.06289964  0.56461891  1
  Zn  Zn137  1  0.81424551  0.55957727  0.05808652  1
  Zn  Zn138  1  0.81399388  0.55840383  0.56057745  1
  Zn  Zn139  1  0.43775273  0.43609354  0.19384388  1
  Zn  Zn140  1  0.44344881  0.40952379  0.67490009  1
  Zn  Zn141  1  0.43692108  0.93577181  0.18632501  1
  Zn  Zn142  1  0.43708835  0.94047581  0.68736223  1
  Zn  Zn143  1  0.93694469  0.43935461  0.18166570  1
  Zn  Zn144  1  0.93890561  0.43623053  0.68740577  1
  Zn  Zn145  1  0.93608034  0.94152896  0.18671832  1
  Zn  Zn146  1  0.93745548  0.93820374  0.69044323  1
  Zn  Zn147  1  0.06858993  0.06295971  0.31141687  1
  Zn  Zn148  1  0.06334170  0.06273409  0.81800421  1
  Zn  Zn149  1  0.06331223  0.56450687  0.31018648  1
  Zn  Zn150  1  0.06068329  0.56415465  0.81039212  1
  Zn  Zn151  1  0.56016027  0.06835400  0.31777426  1
  Zn  Zn152  1  0.56312719  0.06163017  0.81956702  1
  Zn  Zn153  1  0.57214297  0.53372698  0.32345002  1
  Zn  Zn154  1  0.56329199  0.55914652  0.81257279  1
  Zn  Zn155  1  0.43653687  0.18405072  0.43685716  1
  Zn  Zn156  1  0.43904726  0.18677804  0.93475287  1
  Zn  Zn157  1  0.43725545  0.68609510  0.43617347  1
  Zn  Zn158  1  0.43478711  0.68841456  0.93810940  1
  Zn  Zn159  1  0.94106995  0.18567137  0.43766485  1
  Zn  Zn160  1  0.94036233  0.18982193  0.93573640  1
  Zn  Zn161  1  0.93975962  0.68852140  0.43711775  1
  Zn  Zn162  1  0.93827388  0.68865011  0.93181186  1
  Zn  Zn163  1  0.05750453  0.31652477  0.05858123  1
  Zn  Zn164  1  0.06175517  0.31243814  0.56160207  1
  Zn  Zn165  1  0.06596957  0.81297924  0.05861954  1
  Zn  Zn166  1  0.06384678  0.81598308  0.56593859  1
  Zn  Zn167  1  0.56088758  0.31047295  0.06176444  1
  Zn  Zn168  1  0.55366227  0.31213265  0.56547478  1
  Zn  Zn169  1  0.56543060  0.81241546  0.06891262  1
  Zn  Zn170  1  0.56455283  0.81315324  0.56121847  1
  O  O171  1  0.11463224  0.11555598  0.12361757  1
  O  O172  1  0.12679151  0.11256811  0.62029905  1
  O  O173  1  0.11752594  0.62019851  0.11673619  1
  O  O174  1  0.11621517  0.61573224  0.61779236  1
  O  O175  1  0.62630648  0.11792653  0.12055757  1
  O  O176  1  0.63337668  0.11822790  0.61517825  1
  O  O177  1  0.61849706  0.62205476  0.11640239  1
  O  O178  1  0.61905778  0.61805005  0.62001280  1
  O  O179  1  0.36345887  0.38629614  0.38814420  1
  O  O180  1  0.38057371  0.37696479  0.88335887  1
  O  O181  1  0.38251717  0.86939125  0.39001948  1
  O  O182  1  0.38549799  0.88312231  0.86727677  1
  O  O183  1  0.87784924  0.38082122  0.37863437  1
  O  O184  1  0.88103028  0.37542190  0.87996273  1
  O  O185  1  0.88074054  0.88331899  0.37861122  1
  O  O186  1  0.88913598  0.87716704  0.87107089  1
  O  O187  1  0.23943160  -0.00335144  0.35974530  1
  O  O188  1  0.25590857  0.00320478  0.87106096  1
  O  O189  1  0.25631815  0.50075776  0.36580066  1
  O  O190  1  0.25233412  0.50452341  0.86992602  1
  O  O191  1  0.75679493  0.00266496  0.37136374  1
  O  O192  1  0.74760189  0.00482190  0.86247345  1
  O  O193  1  0.76577587  0.50830619  0.37043820  1
  O  O194  1  0.74917097  0.50736951  0.86539946  1
  O  O195  1  0.24305904  0.49652816  0.13098208  1
  O  O196  1  0.23472479  0.49837593  0.62603262  1
  O  O197  1  0.24509728  0.99104434  0.12897214  1
  O  O198  1  0.24177959  0.99654159  0.63726439  1
  O  O199  1  0.74466553  0.49204762  0.12488490  1
  O  O200  1  0.74657939  0.49190485  0.62941678  1
  O  O201  1  0.74973859  0.98885492  0.13576478  1
  O  O202  1  0.73947159  0.99258309  0.63396347  1
  O  O203  1  0.00369816  0.36884284  0.25146152  1
  O  O204  1  -0.00585077  0.36450132  0.75959255  1
  O  O205  1  0.00436271  0.87197039  0.25302196  1
  O  O206  1  0.00443718  0.87168980  0.75937017  1
  O  O207  1  0.50530962  0.35978229  0.24415196  1
  O  O208  1  0.50507725  0.40380002  0.77393760  1
  O  O209  1  0.49888100  0.87935050  0.26774211  1
  O  O210  1  0.50697908  0.87025970  0.75358699  1
  O  O211  1  0.50126062  0.13954825  0.24989957  1
  O  O212  1  0.48491263  0.11907929  0.75410056  1
  O  O213  1  0.51039533  0.61179620  0.24267696  1
  O  O214  1  0.49465644  0.62746008  0.74339033  1
  O  O215  1  0.99900897  0.13023270  0.24235180  1
  O  O216  1  0.99036160  0.13068283  0.75781568  1
  O  O217  1  0.99393030  0.63170072  0.24133256  1
  O  O218  1  0.99940067  0.63466057  0.74195646  1
  O  O219  1  0.37990644  0.26344901  0.00638737  1
  O  O220  1  0.37767502  0.26523384  0.49653223  1
  O  O221  1  0.36167094  0.74450211  0.01105343  1
  O  O222  1  0.36736099  0.75435399  0.50523992  1
  O  O223  1  0.88136636  0.26410438  0.00259161  1
  O  O224  1  0.88178602  0.25650647  0.50792905  1
  O  O225  1  0.86436280  0.74456673  -0.00011693  1
  O  O226  1  0.86024459  0.75100089  0.49415422  1
  O  O227  1  0.11522829  0.23906133  0.49002007  1
  O  O228  1  0.12181020  0.24705280  1.00157908  1
  O  O229  1  0.13129473  0.74651165  0.49621241  1
  O  O230  1  0.14170455  0.74175724  1.00819008  1
  O  O231  1  0.61910101  0.23951622  0.50747864  1
  O  O232  1  0.62167934  0.24821225  0.98529242  1
  O  O233  1  0.63404726  0.74297607  0.49391334  1
  O  O234  1  0.63069618  0.73939791  0.99966676  1
  O  O235  1  0.48851260  0.25033268  0.12737273  1
  O  O236  1  0.48921914  0.30310679  0.65395820  1
  O  O237  1  0.48741771  0.74315865  0.12528944  1
  O  O238  1  0.49542086  0.74262113  0.62816892  1
  O  O239  1  0.99961598  0.24098017  0.13165420  1
  O  O240  1  0.99136633  0.25574855  0.63402197  1
  O  O241  1  1.00511109  0.74017216  0.12924618  1
  O  O242  1  1.00394325  0.74198801  0.63164942  1
  O  O243  1  0.00493518  0.25448782  0.36662000  1
  O  O244  1  0.00380587  0.25792636  0.86666759  1
  O  O245  1  0.00445898  0.75836783  0.36847663  1
  O  O246  1  0.00068749  0.76354815  0.86924030  1
  O  O247  1  0.49909570  0.25505346  0.36647447  1
  O  O248  1  0.50559047  0.26084595  0.86849759  1
  O  O249  1  0.50946956  0.75842600  0.38530126  1
  O  O250  1  0.50076919  0.75546238  0.86728817  1
  O  O251  1  0.23425394  0.11602843  0.49928370  1
  O  O252  1  0.25550048  0.12170546  0.99327681  1
  O  O253  1  0.23637736  0.63424889  0.50517559  1
  O  O254  1  0.24380382  0.63544441  0.99960803  1
  O  O255  1  0.73711818  0.12352803  0.49339363  1
  O  O256  1  0.75648266  0.11842869  0.98682090  1
  O  O257  1  0.74570664  0.63016088  0.49661215  1
  O  O258  1  0.74346071  0.63066878  0.99438318  1
  O  O259  1  0.25873300  0.38339554  0.01317061  1
  O  O260  1  0.25378421  0.37224193  0.50585756  1
  O  O261  1  0.24572744  0.86174354  0.00777291  1
  O  O262  1  0.25814929  0.87048412  0.50275703  1
  O  O263  1  0.75873257  0.37791883  0.00708139  1
  O  O264  1  0.76353036  0.37879388  0.50646157  1
  O  O265  1  0.74772302  0.86645755  0.01345530  1
  O  O266  1  0.74839446  0.86743650  0.51021633  1
  O  O267  1  0.12884272  0.49618574  0.24054635  1
  O  O268  1  0.12451531  0.50256712  0.73480116  1
  O  O269  1  0.12968782  0.99299496  0.23734090  1
  O  O270  1  0.13060357  0.99663376  0.74647238  1
  O  O271  1  0.63743217  0.51088144  0.22837815  1
  O  O272  1  0.63690526  0.49985588  0.74160345  1
  O  O273  1  0.63701664  0.99925775  0.25790358  1
  O  O274  1  0.63050366  0.99550926  0.74454210  1
  O  O275  1  0.35822027  -0.00291902  0.24637358  1
  O  O276  1  0.36668988  0.00441383  0.75757178  1
  O  O277  1  0.36671002  0.49728673  0.26401636  1
  O  O278  1  0.37546568  0.51065921  0.74487561  1
  O  O279  1  0.86674967  0.00602720  0.25808758  1
  O  O280  1  0.86640668  0.01122487  0.74311407  1
  O  O281  1  0.87254281  0.50881570  0.25449928  1
  O  O282  1  0.86240202  0.50353420  0.74753105  1
  O  O283  1  0.11913666  0.36972035  0.37033255  1
  O  O284  1  0.11430961  0.37390292  0.87926566  1
  O  O285  1  0.11678103  0.86882705  0.36955710  1
  O  O286  1  0.11484553  0.88114895  0.86310720  1
  O  O287  1  0.61832129  0.42924229  0.35885671  1
  O  O288  1  0.61961493  0.36902083  0.87570999  1
  O  O289  1  0.61754754  0.86409945  0.37612224  1
  O  O290  1  0.61937037  0.87459682  0.86230982  1
  O  O291  1  0.37568577  0.13436277  0.13473238  1
  O  O292  1  0.37001635  0.12015437  0.64211553  1
  O  O293  1  0.38425458  0.63495557  0.12654739  1
  O  O294  1  0.37904970  0.63040139  0.62891327  1
  O  O295  1  0.88649496  0.12384100  0.13248047  1
  O  O296  1  0.86867655  0.13649476  0.63093479  1
  O  O297  1  0.88407316  0.61952575  0.13243297  1
  O  O298  1  0.89100769  0.61886196  0.62148932  1
  O  O299  1  0.26340459  0.26000133  0.12669122  1
  O  O300  1  0.24185067  0.26142890  0.62593884  1
  O  O301  1  0.26020793  0.75448559  0.11932331  1
  O  O302  1  0.25357670  0.75368854  0.61383740  1
  O  O303  1  0.75143298  0.26149044  0.13255268  1
  O  O304  1  0.76009218  0.26209536  0.63193536  1
  O  O305  1  0.74850947  0.76055562  0.11934239  1
  O  O306  1  0.74372677  0.75908654  0.61738040  1
  O  O307  1  0.23695202  0.25026565  0.36594844  1
  O  O308  1  0.24997276  0.23510073  0.87474572  1
  O  O309  1  0.24305927  0.75640491  0.38785729  1
  O  O310  1  0.25581772  0.74936000  0.88890663  1
  O  O311  1  0.75497956  0.24007449  0.37097983  1
  O  O312  1  0.74335197  0.23975225  0.86884614  1
  O  O313  1  0.74261863  0.74429403  0.38278201  1
  O  O314  1  0.74796416  0.74389900  0.88242890  1
  O  O315  1  -0.00550634  0.11088525  0.00528633  1
  O  O316  1  0.01038271  0.11094161  0.49542411  1
  O  O317  1  0.00639837  0.62697894  0.00466341  1
  O  O318  1  0.01072977  0.62628190  0.50538931  1
  O  O319  1  0.49990895  0.12147193  0.00250120  1
  O  O320  1  0.51343192  0.11829696  0.49893761  1
  O  O321  1  0.50672043  0.62063411  0.00609387  1
  O  O322  1  0.50205481  0.61672335  0.50750485  1
  O  O323  1  0.48396595  0.38669036  0.50129605  1
  O  O324  1  0.49345195  0.38437471  0.99419027  1
  O  O325  1  0.49446213  0.88158838  0.49547682  1
  O  O326  1  0.50565935  0.86948788  0.98638061  1
  O  O327  1  0.98946088  0.37672237  0.49169748  1
  O  O328  1  0.99118117  0.38112041  0.98944303  1
  O  O329  1  0.99886872  0.88491508  0.49506118  1
  O  O330  1  1.00319011  0.88030606  0.98796630  1
  O  O331  1  0.47800604  0.50931663  0.38535364  1
  O  O332  1  0.50026790  0.50041633  0.89286711  1
  O  O333  1  0.50844895  0.99113665  0.39088283  1
  O  O334  1  0.49086217  0.98959739  0.87471457  1
  O  O335  1  0.99103612  0.49422684  0.37187631  1
  O  O336  1  0.99724642  0.49214631  0.87246755  1
  O  O337  1  0.99484507  0.99566851  0.38047932  1
  O  O338  1  1.00238932  0.99177996  0.88866687  1
  O  O339  1  0.00670472  0.00350619  0.11554335  1
  O  O340  1  0.00640381  -0.00388021  0.61754250  1
  O  O341  1  0.00916759  0.51223197  0.12399380  1
  O  O342  1  0.01059307  0.50397694  0.62277471  1
  O  O343  1  0.50221049  0.00009952  0.12368557  1
  O  O344  1  0.51406561  -0.00592778  0.61711974  1
  O  O345  1  0.50660583  0.50446704  0.11820139  1
  O  O346  1  0.50358639  0.50154471  0.61709494  1
  O  O347  1  0.24362029  0.38350249  0.23801758  1
  O  O348  1  0.25649159  0.37530764  0.73325606  1
  O  O349  1  0.24370616  0.87938069  0.24205053  1
  O  O350  1  0.24274670  0.88279416  0.75208615  1
  O  O351  1  0.74823918  0.38259856  0.24027131  1
  O  O352  1  0.74984956  0.38221930  0.74138694  1
  O  O353  1  0.74753812  0.88063078  0.24383784  1
  O  O354  1  0.74348062  0.88034308  0.74659798  1
  O  O355  1  0.24665523  0.10610250  0.25070374  1
  O  O356  1  0.25758815  0.11426109  0.75947050  1
  O  O357  1  0.24168590  0.61329439  0.24402025  1
  O  O358  1  0.25829580  0.62577593  0.74921573  1
  O  O359  1  0.75457179  0.11749357  0.25942025  1
  O  O360  1  0.75930403  0.11763441  0.75675784  1
  O  O361  1  0.75904512  0.62100267  0.25304142  1
  O  O362  1  0.75051947  0.62016500  0.75639138  1
  O  O363  1  0.37065450  0.12308961  0.37217586  1
  O  O364  1  0.36346061  0.11512076  0.87094222  1
  O  O365  1  0.36514936  0.61683405  0.37893938  1
  O  O366  1  0.37484201  0.62253038  0.86353202  1
  O  O367  1  0.86862188  0.11879910  0.37237878  1
  O  O368  1  0.86827299  0.13104374  0.86477636  1
  O  O369  1  0.87435157  0.61804062  0.36771764  1
  O  O370  1  0.86208613  0.62208748  0.87260507  1
  O  O371  1  0.13015862  0.38445913  0.12734590  1
  O  O372  1  0.13479922  0.38704729  0.61559201  1
  O  O373  1  0.13524902  0.87907182  0.12950226  1
  O  O374  1  0.12474884  0.88696889  0.63739481  1
  O  O375  1  0.63317629  0.38323535  0.12001649  1
  O  O376  1  0.63700661  0.38203989  0.62214942  1
  O  O377  1  0.63546905  0.87592328  0.13235984  1
  O  O378  1  0.63158804  0.88096721  0.63537620  1
  O  O379  1  0.11168662  0.25795336  0.25827335  1
  O  O380  1  0.11292445  0.24173705  0.75311023  1
  O  O381  1  0.11964363  0.75670958  0.25424720  1
  O  O382  1  0.11453529  0.76040191  0.74481896  1
  O  O383  1  0.61282204  0.25238300  0.25300283  1
  O  O384  1  0.62193143  0.25156151  0.76075182  1
  O  O385  1  0.62897675  0.74741026  0.26534539  1
  O  O386  1  0.61772693  0.75879935  0.75074348  1
  O  O387  1  0.38589202  0.25181772  0.24409174  1
  O  O388  1  0.37486709  0.23015577  0.75648857  1
  O  O389  1  0.36905637  0.74909199  0.23843682  1
  O  O390  1  0.37998519  0.74228174  0.74130375  1
  O  O391  1  0.88804154  0.24332635  0.24763782  1
  O  O392  1  0.88378866  0.24143860  0.74150830  1
  O  O393  1  0.87924972  0.73818244  0.25651899  1
  O  O394  1  0.88925133  0.74885195  0.75078123  1
  O  O395  1  0.37461456  0.49830257  0.49014170  1
  O  O396  1  0.38245430  0.49296422  1.00385509  1
  O  O397  1  0.38596483  0.99162114  0.50936347  1
  O  O398  1  0.37534363  0.99525662  0.98856051  1
  O  O399  1  0.87974576  0.49249145  0.48955829  1
  O  O400  1  0.87768275  0.48839888  0.99522239  1
  O  O401  1  0.88129285  1.00046643  0.49714353  1
  O  O402  1  0.88829372  0.99379451  1.00589941  1
  O  O403  1  0.11704738  -0.00743413  0.01146301  1
  O  O404  1  0.11748624  0.00222473  0.50988433  1
  O  O405  1  0.12423886  0.50948540  0.01113062  1
  O  O406  1  0.12295029  0.50885634  0.50497739  1
  O  O407  1  0.62145713  0.00316181  -0.00152958  1
  O  O408  1  0.61979873  0.00591427  0.50967594  1
  O  O409  1  0.62108186  0.51100724  0.00732938  1
  O  O410  1  0.61437048  0.50520448  0.50684901  1
  O  O411  1  0.36827326  0.37141834  0.12084696  1
  O  O412  1  0.35227201  0.38714806  0.60660090  1
  O  O413  1  0.36511237  0.86232821  0.12781732  1
  O  O414  1  0.37532858  0.86737615  0.61625127  1
  O  O415  1  0.86681464  0.37397643  0.11656831  1
  O  O416  1  0.87097913  0.36834194  0.61582670  1
  O  O417  1  0.85966465  0.87475273  0.13234323  1
  O  O418  1  0.86021364  0.87904436  0.62556447  1
  O  O419  1  0.12797584  0.13276570  0.38303471  1
  O  O420  1  0.14544356  0.12155605  0.87454391  1
  O  O421  1  0.11774295  0.63465056  0.38367856  1
  O  O422  1  0.12407879  0.62313534  0.88768364  1
  O  O423  1  0.63371000  0.12390943  0.39173424  1
  O  O424  1  0.63658161  0.13216906  0.87450142  1
  O  O425  1  0.63155262  0.62736226  0.38211166  1
  O  O426  1  0.63496659  0.62562410  0.88187903  1
