# generated using pymatgen
data_V85Zn86O256
_symmetry_space_group_name_H-M   'P 1'
_cell_length_a   16.92013582
_cell_length_b   16.91954897
_cell_length_c   16.92042342
_cell_angle_alpha   90.00398929
_cell_angle_beta   90.00813616
_cell_angle_gamma   90.00440740
_symmetry_Int_Tables_number   1
_chemical_formula_structural   V85Zn86O256
_chemical_formula_sum   'V85 Zn86 O256'
_cell_volume   4843.99678802
_cell_formula_units_Z   1
loop_
 _symmetry_equiv_pos_site_id
 _symmetry_equiv_pos_as_xyz
  1  'x, y, z'
loop_
 _atom_site_type_symbol
 _atom_site_label
 _atom_site_symmetry_multiplicity
 _atom_site_fract_x
 _atom_site_fract_y
 _atom_site_fract_z
 _atom_site_occupancy
  V  V0  1  0.50096757  0.24246643  0.24575112  1
  V  V1  1  0.37954968  0.50267400  0.87807629  1
  V  V2  1  0.12349538  0.37674051  0.75200916  1
  V  V3  1  0.12325472  0.25069662  0.87861353  1
  V  V4  1  0.75537841  0.50807190  0.74677357  1
  V  V5  1  0.87409644  0.76293149  0.62801826  1
  V  V6  1  0.87563801  0.12329375  0.24979668  1
  V  V7  1  0.62090446  0.01565526  0.12482537  1
  V  V8  1  0.25669920  0.62738173  0.37297478  1
  V  V9  1  0.63234525  0.73688951  0.37373054  1
  V  V10  1  0.50353736  0.37790200  0.87453584  1
  V  V11  1  0.12694841  0.62318490  0.50237929  1
  V  V12  1  0.74741892  0.12221799  0.37502103  1
  V  V13  1  0.51277107  0.50371369  0.50416246  1
  V  V14  1  0.37540818  0.37435297  0.49989336  1
  V  V15  1  0.12139403  0.63208110  -0.00508642  1
  V  V16  1  0.24308489  -0.00035260  0.74409293  1
  V  V17  1  0.24916940  0.62908303  0.87510903  1
  V  V18  1  0.86121468  0.62990772  0.25506900  1
  V  V19  1  0.37884213  0.50255618  0.37214341  1
  V  V20  1  0.62657812  0.12114498  0.51032024  1
  V  V21  1  0.62138944  0.86902959  0.24576887  1
  V  V22  1  0.01291542  0.00154426  0.50167869  1
  V  V23  1  0.87464744  -0.00406759  0.37810623  1
  V  V24  1  0.37515905  -0.00012018  0.87478804  1
  V  V25  1  0.50280624  0.01672892  0.00236874  1
  V  V26  1  0.25191148  0.74985221  0.49943532  1
  V  V27  1  0.50121728  0.86665290  0.37300635  1
  V  V28  1  0.87431072  0.24260454  0.62640000  1
  V  V29  1  0.24943505  0.50346750  0.75110043  1
  V  V30  1  0.25571207  0.50423533  0.24995778  1
  V  V31  1  0.25094050  0.37655290  0.62601941  1
  V  V32  1  0.75053186  -0.00502561  0.74047060  1
  V  V33  1  0.37574354  0.12317608  0.74921218  1
  V  V34  1  0.00042449  0.49919875  0.48786866  1
  V  V35  1  0.87500501  0.75573439  0.12892450  1
  V  V36  1  0.87336764  0.37838402  -0.00064554  1
  V  V37  1  0.88451977  0.87847780  -0.00633464  1
  V  V38  1  0.87269339  0.24673017  0.12249414  1
  V  V39  1  0.74214136  0.24477481  -0.00294927  1
  V  V40  1  0.74742081  0.37762050  0.62429420  1
  V  V41  1  -0.00308890  0.74968359  0.76458451  1
  V  V42  1  -0.00162263  0.11735975  0.12223451  1
  V  V43  1  -0.01297738  0.62605004  0.62805642  1
  V  V44  1  -0.00480935  0.24579305  0.75032430  1
  V  V45  1  0.62086245  0.87729270  0.73375395  1
  V  V46  1  0.23323482  0.87370305  0.62307881  1
  V  V47  1  0.23518713  0.12526315  0.37670872  1
  V  V48  1  0.12896653  0.50330766  0.12344894  1
  V  V49  1  0.38098817  0.74687463  0.13807691  1
  V  V50  1  0.62998555  0.37968560  0.25050293  1
  V  V51  1  0.50479255  -0.00321674  0.50591276  1
  V  V52  1  0.38133665  0.37769720  -0.00096046  1
  V  V53  1  0.37920739  0.75263064  0.62928183  1
  V  V54  1  0.12261567  -0.00265140  0.12163373  1
  V  V55  1  0.11747453  0.12468804  -0.00099699  1
  V  V56  1  0.38336827  0.87230465  0.00088227  1
  V  V57  1  0.62049148  0.62554381  -0.00406723  1
  V  V58  1  -0.00120265  0.50365321  0.00141037  1
  V  V59  1  0.24633791  0.25101706  0.00099554  1
  V  V60  1  0.01531485  0.12237394  0.62357239  1
  V  V61  1  0.74227548  0.11777210  0.87307583  1
  V  V62  1  0.75089569  0.38209651  0.12724033  1
  V  V63  1  0.74484019  0.74452388  0.50768904  1
  V  V64  1  0.87874666  0.37266483  0.49567103  1
  V  V65  1  0.62585972  0.37820772  0.74646685  1
  V  V66  1  -0.00084555  0.37542968  0.87755106  1
  V  V67  1  0.62142140  0.75643365  0.87116634  1
  V  V68  1  0.37706978  0.24695913  0.62343656  1
  V  V69  1  0.50962994  0.62468461  0.62404920  1
  V  V70  1  0.12196639  0.50283593  0.62741056  1
  V  V71  1  0.25014976  0.75128352  -0.00400736  1
  V  V72  1  0.11977244  0.87106193  0.76904845  1
  V  V73  1  0.50021470  0.37366871  0.37454089  1
  V  V74  1  0.25124529  0.87521683  0.12673409  1
  V  V75  1  0.88546820  0.00432766  0.87530745  1
  V  V76  1  0.25426749  0.37551089  0.12731472  1
  V  V77  1  0.86000236  0.49958909  0.36888178  1
  V  V78  1  0.62556748  0.24819562  0.37490951  1
  V  V79  1  0.00361901  0.63086614  0.14123924  1
  V  V80  1  0.37852138  0.24052573  0.12325964  1
  V  V81  1  0.38344521  0.63095423  0.75193271  1
  V  V82  1  0.49745402  0.62412596  0.13670091  1
  V  V83  1  0.37687348  0.00249200  0.37420190  1
  V  V84  1  0.62140429  0.50014351  0.11789089  1
  Zn  Zn85  1  0.37491992  0.87654256  0.50259844  1
  Zn  Zn86  1  0.24750281  0.12467671  0.87425017  1
  Zn  Zn87  1  0.62149597  0.24559093  0.87531822  1
  Zn  Zn88  1  0.87737052  0.50716321  0.86780702  1
  Zn  Zn89  1  0.50062035  0.87254732  0.86966596  1
  Zn  Zn90  1  0.10293833  0.26806450  0.38565141  1
  Zn  Zn91  1  0.11562965  0.86307693  0.24661283  1
  Zn  Zn92  1  0.50489829  0.11935374  0.62905543  1
  Zn  Zn93  1  0.37679906  0.12137203  0.24775634  1
  Zn  Zn94  1  0.74622286  0.87626772  0.12140077  1
  Zn  Zn95  1  0.00023066  0.86653146  0.37160310  1
  Zn  Zn96  1  0.24231033  0.23985974  0.50093978  1
  Zn  Zn97  1  0.00327793  0.25341922  0.25338171  1
  Zn  Zn98  1  0.11516279  0.74523905  0.36212548  1
  Zn  Zn99  1  0.50393475  0.24721384  0.74969809  1
  Zn  Zn100  1  0.74963432  0.24958313  0.50130065  1
  Zn  Zn101  1  0.86580385  0.88103170  0.50566596  1
  Zn  Zn102  1  0.75440396  0.62868973  0.87468733  1
  Zn  Zn103  1  0.25205906  0.00036056  0.24847290  1
  Zn  Zn104  1  0.74628819  -0.00186621  0.24761046  1
  Zn  Zn105  1  0.74973924  0.75229445  -0.00191789  1
  Zn  Zn106  1  0.11881646  0.37615590  0.25802317  1
  Zn  Zn107  1  0.18566903  0.18756041  0.19615495  1
  Zn  Zn108  1  0.18867283  0.19118008  0.68798853  1
  Zn  Zn109  1  0.19246700  0.68951730  0.18671661  1
  Zn  Zn110  1  0.18446090  0.69141203  0.68862840  1
  Zn  Zn111  1  0.68978835  0.19055958  0.18839291  1
  Zn  Zn112  1  0.69177926  0.18844988  0.69361846  1
  Zn  Zn113  1  0.68700550  0.68849378  0.18659576  1
  Zn  Zn114  1  0.68743614  0.69479333  0.68973668  1
  Zn  Zn115  1  0.30898933  0.30879321  0.31180308  1
  Zn  Zn116  1  0.31251410  0.31148418  0.81261571  1
  Zn  Zn117  1  0.31113685  0.81579856  0.31342403  1
  Zn  Zn118  1  0.31215678  0.81453063  0.81201922  1
  Zn  Zn119  1  0.81740759  0.30915608  0.31354298  1
  Zn  Zn120  1  0.81159487  0.31273407  0.81311851  1
  Zn  Zn121  1  0.80593020  0.81313217  0.31285057  1
  Zn  Zn122  1  0.80982396  0.81514130  0.81419004  1
  Zn  Zn123  1  0.18961332  0.43448402  0.43833002  1
  Zn  Zn124  1  0.18926602  0.43967071  0.93939625  1
  Zn  Zn125  1  0.18727317  0.93391073  0.43161472  1
  Zn  Zn126  1  0.19020868  0.94036539  0.93947651  1
  Zn  Zn127  1  0.69017963  0.43681858  0.43831701  1
  Zn  Zn128  1  0.68887086  0.43991353  0.93505152  1
  Zn  Zn129  1  0.68700526  0.93188539  0.44053543  1
  Zn  Zn130  1  0.68824733  0.93449859  0.94078010  1
  Zn  Zn131  1  0.30917641  0.06226422  0.05840766  1
  Zn  Zn132  1  0.31089101  0.05856303  0.55970972  1
  Zn  Zn133  1  0.31719295  0.56526096  0.06056691  1
  Zn  Zn134  1  0.31898747  0.56260945  0.56277640  1
  Zn  Zn135  1  0.80791393  0.05787013  0.05785872  1
  Zn  Zn136  1  0.81591462  0.06596840  0.56187864  1
  Zn  Zn137  1  0.81091286  0.56660629  0.06342787  1
  Zn  Zn138  1  0.80864985  0.56376326  0.56066969  1
  Zn  Zn139  1  0.44220663  0.43697175  0.18783295  1
  Zn  Zn140  1  0.43967885  0.44093174  0.68884373  1
  Zn  Zn141  1  0.44138094  0.93682595  0.18757665  1
  Zn  Zn142  1  0.43574465  0.93583946  0.68562857  1
  Zn  Zn143  1  0.93845439  0.44084459  0.18926622  1
  Zn  Zn144  1  0.93525482  0.43459311  0.68379810  1
  Zn  Zn145  1  0.93648799  0.93771107  0.18688098  1
  Zn  Zn146  1  0.94125073  0.94144612  0.69282681  1
  Zn  Zn147  1  0.05899072  0.04889657  0.30593944  1
  Zn  Zn148  1  0.06435050  0.06335792  0.80725646  1
  Zn  Zn149  1  0.06949341  0.56011152  0.31385767  1
  Zn  Zn150  1  0.05871061  0.56725355  0.81450026  1
  Zn  Zn151  1  0.56145642  0.05825584  0.31491332  1
  Zn  Zn152  1  0.56437684  0.05619004  0.81228427  1
  Zn  Zn153  1  0.56503243  0.55855728  0.30946456  1
  Zn  Zn154  1  0.56764587  0.56048241  0.81027832  1
  Zn  Zn155  1  0.43843397  0.18478789  0.43852755  1
  Zn  Zn156  1  0.43490186  0.19106031  0.93300071  1
  Zn  Zn157  1  0.43985469  0.68715169  0.43950769  1
  Zn  Zn158  1  0.44420215  0.68781724  0.94232056  1
  Zn  Zn159  1  0.94044614  0.18413028  0.43841932  1
  Zn  Zn160  1  0.93252051  0.18515153  0.93664341  1
  Zn  Zn161  1  0.93004746  0.68628073  0.44081314  1
  Zn  Zn162  1  0.93187839  0.68801485  0.94202513  1
  Zn  Zn163  1  0.05420743  0.31987690  0.08605932  1
  Zn  Zn164  1  0.06301832  0.31309926  0.56075707  1
  Zn  Zn165  1  0.06025882  0.81057631  0.06256109  1
  Zn  Zn166  1  0.04873476  0.80077647  0.53661028  1
  Zn  Zn167  1  0.56197564  0.31173507  0.06173060  1
  Zn  Zn168  1  0.56256761  0.31009417  0.56256600  1
  Zn  Zn169  1  0.56293887  0.80952453  0.06258555  1
  Zn  Zn170  1  0.56227733  0.80731965  0.55809216  1
  O  O171  1  0.11762517  0.12101990  0.11860702  1
  O  O172  1  0.11414803  0.12836765  0.62599492  1
  O  O173  1  0.12027414  0.62184640  0.11634552  1
  O  O174  1  0.11868589  0.61916578  0.62159374  1
  O  O175  1  0.62311613  0.11459337  0.12966079  1
  O  O176  1  0.62611249  0.13234687  0.61374490  1
  O  O177  1  0.61679067  0.61855025  0.12247778  1
  O  O178  1  0.60835191  0.63334175  0.63343762  1
  O  O179  1  0.37837419  0.37911678  0.38282493  1
  O  O180  1  0.38026238  0.38221929  0.87930664  1
  O  O181  1  0.38237653  0.88321484  0.37605626  1
  O  O182  1  0.37779235  0.88112922  0.88229274  1
  O  O183  1  0.87034536  0.38772772  0.38108448  1
  O  O184  1  0.88073856  0.37807989  0.88432183  1
  O  O185  1  0.87340033  0.88889166  0.37288980  1
  O  O186  1  0.87230868  0.88476508  0.88636092  1
  O  O187  1  0.25927500  0.00646246  0.37282146  1
  O  O188  1  0.25699077  -0.00022450  0.86260774  1
  O  O189  1  0.25991828  0.50632119  0.36932000  1
  O  O190  1  0.25755984  0.50781471  0.87036089  1
  O  O191  1  0.75413596  0.00940505  0.37435031  1
  O  O192  1  0.75357519  0.00846659  0.87312666  1
  O  O193  1  0.76126136  0.50223721  0.37528354  1
  O  O194  1  0.75120650  0.49874609  0.85830562  1
  O  O195  1  0.25385195  0.49730533  0.13236165  1
  O  O196  1  0.24627465  0.49658306  0.63170558  1
  O  O197  1  0.24590914  0.98995533  0.12258392  1
  O  O198  1  0.25417019  0.98916396  0.63615704  1
  O  O199  1  0.74299453  0.48755267  0.12237681  1
  O  O200  1  0.75453437  0.49079693  0.63354848  1
  O  O201  1  0.73195708  0.99992122  0.12376528  1
  O  O202  1  0.75919512  1.00694418  0.64244884  1
  O  O203  1  0.01578368  0.36163945  0.20034354  1
  O  O204  1  0.00582977  0.36927451  0.75514627  1
  O  O205  1  0.00584569  0.89618265  0.26115736  1
  O  O206  1  0.01293253  0.86618217  0.74885508  1
  O  O207  1  0.50851223  0.36667651  0.25601662  1
  O  O208  1  0.50812448  0.37477312  0.75501835  1
  O  O209  1  0.51090546  0.87618587  0.25830392  1
  O  O210  1  0.51591064  0.88743686  0.75188672  1
  O  O211  1  0.50037427  0.13912752  0.25517844  1
  O  O212  1  0.49163417  0.12369283  0.74853157  1
  O  O213  1  0.50160468  0.62197463  0.23598345  1
  O  O214  1  0.48780464  0.61621238  0.74464049  1
  O  O215  1  0.99038662  0.12140507  0.23930212  1
  O  O216  1  1.00253306  0.13372647  0.73752649  1
  O  O217  1  0.99600997  0.61932618  0.24275458  1
  O  O218  1  1.00769932  0.64168073  0.74187387  1
  O  O219  1  0.36921717  0.25765873  0.00517430  1
  O  O220  1  0.37375601  0.25666830  0.50734229  1
  O  O221  1  0.37133249  0.75708312  0.00601266  1
  O  O222  1  0.36523075  0.75006857  0.50841706  1
  O  O223  1  0.86613576  0.25996172  0.00276096  1
  O  O224  1  0.87370787  0.25803567  0.50723973  1
  O  O225  1  0.87230870  0.76209316  0.00878798  1
  O  O226  1  0.86447341  0.75416364  0.51089618  1
  O  O227  1  0.13080949  0.25615805  0.49625636  1
  O  O228  1  0.12735350  0.24566180  0.99837157  1
  O  O229  1  0.14413415  0.73867850  0.50908760  1
  O  O230  1  0.13618098  0.74302895  1.00590877  1
  O  O231  1  0.62566396  0.24200352  0.49115623  1
  O  O232  1  0.63813639  0.25643435  0.99568399  1
  O  O233  1  0.63454035  0.75022063  0.48882653  1
  O  O234  1  0.62719435  0.74341097  0.99229032  1
  O  O235  1  0.49061298  0.25659960  0.13255831  1
  O  O236  1  0.48753503  0.24758779  0.62763935  1
  O  O237  1  0.49399953  0.73605748  0.12229633  1
  O  O238  1  0.48571520  0.74272779  0.61801784  1
  O  O239  1  0.98772228  0.22991747  0.11846817  1
  O  O240  1  0.99618691  0.24269766  0.63160199  1
  O  O241  1  0.98614094  0.74202325  0.12210974  1
  O  O242  1  0.99078039  0.74268584  0.62520582  1
  O  O243  1  -0.01031445  0.25060156  0.36678682  1
  O  O244  1  0.00180106  0.25408974  0.86843027  1
  O  O245  1  0.01244590  0.75930607  0.41908317  1
  O  O246  1  -0.00180694  0.74572358  0.86298909  1
  O  O247  1  0.50469982  0.25614725  0.36912408  1
  O  O248  1  0.49904518  0.26363447  0.87126110  1
  O  O249  1  0.50889953  0.76064354  0.38289794  1
  O  O250  1  0.51436079  0.75104054  0.87670182  1
  O  O251  1  0.25408046  0.12139765  0.48285103  1
  O  O252  1  0.23845629  0.13374220  0.99836560  1
  O  O253  1  0.24973656  0.62863567  0.49381025  1
  O  O254  1  0.24455794  0.63285942  0.99615884  1
  O  O255  1  0.74315003  0.12640905  0.49271297  1
  O  O256  1  0.75316513  0.13305317  0.98777248  1
  O  O257  1  0.75491661  0.64295736  0.49908106  1
  O  O258  1  0.73415743  0.62713017  1.00361268  1
  O  O259  1  0.26318880  0.37154947  0.00363187  1
  O  O260  1  0.26467006  0.37894621  0.50807651  1
  O  O261  1  0.26069963  0.87024423  0.00702743  1
  O  O262  1  0.25215523  0.86703500  0.50627759  1
  O  O263  1  0.75680133  0.36979014  0.00412101  1
  O  O264  1  0.76006619  0.37379618  0.50674396  1
  O  O265  1  0.76122733  0.87315121  0.00376488  1
  O  O266  1  0.75181338  0.85694483  0.49529864  1
  O  O267  1  0.13706646  0.49915416  0.24039138  1
  O  O268  1  0.12946411  0.49765674  0.74765529  1
  O  O269  1  0.13217821  1.00156617  0.23035170  1
  O  O270  1  0.13059670  0.98496311  0.75243744  1
  O  O271  1  0.62230775  0.48651953  0.23904692  1
  O  O272  1  0.63604758  0.48607735  0.74980025  1
  O  O273  1  0.62034526  0.99435890  0.23658655  1
  O  O274  1  0.63820621  0.99024938  0.75125288  1
  O  O275  1  0.37612918  0.00075617  0.25719540  1
  O  O276  1  0.36825654  0.00835713  0.75207916  1
  O  O277  1  0.37276055  0.49347562  0.26405679  1
  O  O278  1  0.36862796  0.50621182  0.76059742  1
  O  O279  1  0.86873800  0.01104639  0.25526933  1
  O  O280  1  0.86275285  -0.01008866  0.76614864  1
  O  O281  1  0.87955859  0.50665247  0.26258729  1
  O  O282  1  0.86024497  0.49330420  0.74923455  1
  O  O283  1  0.12062693  0.38357412  0.37129397  1
  O  O284  1  0.11903267  0.37105518  0.87289541  1
  O  O285  1  0.12480181  0.86651499  0.36857761  1
  O  O286  1  0.12803318  0.87350835  0.86756399  1
  O  O287  1  0.62347026  0.36991239  0.36713781  1
  O  O288  1  0.61727170  0.37478573  0.86847837  1
  O  O289  1  0.61754766  0.86785882  0.36707016  1
  O  O290  1  0.62224667  0.86970140  0.87108310  1
  O  O291  1  0.36997212  0.13761540  0.12407617  1
  O  O292  1  0.37454808  0.13130691  0.63083069  1
  O  O293  1  0.38937902  0.63084053  0.11974676  1
  O  O294  1  0.37849988  0.63230852  0.63553497  1
  O  O295  1  0.87796076  0.12243929  0.12924341  1
  O  O296  1  0.88171114  0.13973919  0.62382763  1
  O  O297  1  0.88229813  0.62997650  0.13737990  1
  O  O298  1  0.88452601  0.63043046  0.62431447  1
  O  O299  1  0.25780221  0.25901333  0.12262647  1
  O  O300  1  0.26140314  0.25709424  0.62444446  1
  O  O301  1  0.26071695  0.75390918  0.11358309  1
  O  O302  1  0.25926611  0.75460158  0.62087202  1
  O  O303  1  0.75329489  0.25650478  0.11516545  1
  O  O304  1  0.75929613  0.25612808  0.62591686  1
  O  O305  1  0.76339445  0.75041627  0.12465577  1
  O  O306  1  0.75846301  0.74719645  0.61770710  1
  O  O307  1  0.25524753  0.23189199  0.37722336  1
  O  O308  1  0.24142904  0.25035498  0.88158813  1
  O  O309  1  0.25411886  0.74157209  0.38312182  1
  O  O310  1  0.25682850  0.74569574  0.88818708  1
  O  O311  1  0.74595973  0.23803003  0.37612378  1
  O  O312  1  0.75223677  0.23660947  0.87904650  1
  O  O313  1  0.73780431  0.74761901  0.38177588  1
  O  O314  1  0.73725719  0.74802873  0.87483346  1
  O  O315  1  0.01079470  0.12721759  0.00241171  1
  O  O316  1  -0.00385356  0.11593955  0.51466524  1
  O  O317  1  0.00755171  0.62362475  0.00834266  1
  O  O318  1  0.00395747  0.61481004  0.51017301  1
  O  O319  1  0.49492473  0.11533325  -0.00212543  1
  O  O320  1  0.50998250  0.11641610  0.50080668  1
  O  O321  1  0.51423726  0.62430432  0.00976734  1
  O  O322  1  0.49464950  0.61487401  0.51024657  1
  O  O323  1  0.49117609  0.37960266  0.49636106  1
  O  O324  1  0.48865059  0.37234895  0.99256103  1
  O  O325  1  0.49938017  0.88071950  0.49263828  1
  O  O326  1  0.48952794  0.87925595  1.00053336  1
  O  O327  1  0.98497291  0.38670958  0.51201801  1
  O  O328  1  0.99147331  0.38037135  1.00045947  1
  O  O329  1  0.99028851  0.89612354  0.50468685  1
  O  O330  1  0.98415061  0.87316185  1.00253694  1
  O  O331  1  0.49528304  0.49425000  0.37998873  1
  O  O332  1  0.49269647  0.48870156  0.86986400  1
  O  O333  1  0.49535137  0.98927451  0.38250912  1
  O  O334  1  0.49495244  0.99863757  0.88855923  1
  O  O335  1  0.99416688  0.50589508  0.38584697  1
  O  O336  1  0.99937813  0.49345133  0.88287853  1
  O  O337  1  0.99062985  1.00916282  0.39050149  1
  O  O338  1  0.98430215  1.00679443  0.86829604  1
  O  O339  1  0.00635606  0.00954003  0.11997705  1
  O  O340  1  -0.00452720  0.01492443  0.61951716  1
  O  O341  1  0.00625420  0.51279477  0.11831348  1
  O  O342  1  0.00279789  0.50792017  0.62201002  1
  O  O343  1  0.50703132  0.00001422  0.11278694  1
  O  O344  1  0.49472803  0.00076390  0.60999449  1
  O  O345  1  0.50655297  0.51058816  0.12534503  1
  O  O346  1  0.49312994  0.51021465  0.61532722  1
  O  O347  1  0.25387952  0.38579291  0.24114193  1
  O  O348  1  0.24450110  0.38146689  0.74597783  1
  O  O349  1  0.24948869  0.87529572  0.23434363  1
  O  O350  1  0.23712067  0.87774932  0.74513252  1
  O  O351  1  0.74185471  0.36521454  0.23927164  1
  O  O352  1  0.74509087  0.38012249  0.74261669  1
  O  O353  1  0.73559063  0.87919246  0.24723360  1
  O  O354  1  0.73961994  0.88799920  0.75250335  1
  O  O355  1  0.25693528  0.12154950  0.26208668  1
  O  O356  1  0.25382524  0.11554035  0.74910060  1
  O  O357  1  0.25216961  0.61262050  0.25669863  1
  O  O358  1  0.25751195  0.62341077  0.75649629  1
  O  O359  1  0.75490026  0.12293276  0.25762203  1
  O  O360  1  0.74855402  0.11330603  0.76357067  1
  O  O361  1  0.76348069  0.62095001  0.24553766  1
  O  O362  1  0.74374833  0.60989881  0.74627316  1
  O  O363  1  0.37812563  0.11092432  0.37309825  1
  O  O364  1  0.37027404  0.12013824  0.86588745  1
  O  O365  1  0.36635277  0.61696767  0.37956361  1
  O  O366  1  0.37423555  0.62007272  0.87136360  1
  O  O367  1  0.86646587  0.11675299  0.36836879  1
  O  O368  1  0.86466167  0.11059529  0.87919309  1
  O  O369  1  0.87850168  0.61662867  0.36227008  1
  O  O370  1  0.86767121  0.61839424  0.88529582  1
  O  O371  1  0.14770552  0.38591551  0.11206594  1
  O  O372  1  0.12971081  0.38344829  0.63296884  1
  O  O373  1  0.13366249  0.88135922  0.11960633  1
  O  O374  1  0.13352391  0.86537481  0.62492703  1
  O  O375  1  0.62944840  0.38118165  0.12913321  1
  O  O376  1  0.63851055  0.36778729  0.62940567  1
  O  O377  1  0.62296047  0.87889134  0.13225149  1
  O  O378  1  0.62167844  0.87140355  0.63495897  1
  O  O379  1  0.12365450  0.25632145  0.25875391  1
  O  O380  1  0.11591664  0.25617503  0.75664004  1
  O  O381  1  0.12097298  0.74630730  0.24758643  1
  O  O382  1  0.11467484  0.76246742  0.74947955  1
  O  O383  1  0.61918126  0.25873015  0.25321102  1
  O  O384  1  0.62481281  0.26205482  0.75425588  1
  O  O385  1  0.62955771  0.75551567  0.26205158  1
  O  O386  1  0.62902202  0.76866036  0.75569843  1
  O  O387  1  0.38376388  0.25148207  0.23995393  1
  O  O388  1  0.37347756  0.23757387  0.74405912  1
  O  O389  1  0.37041074  0.75154751  0.23693485  1
  O  O390  1  0.37195772  0.74157289  0.74430635  1
  O  O391  1  0.87250385  0.23623701  0.24061865  1
  O  O392  1  0.88805994  0.25835579  0.74306637  1
  O  O393  1  0.87206378  0.73868930  0.24801321  1
  O  O394  1  0.88914600  0.75765308  0.74601069  1
  O  O395  1  0.38162931  0.49229009  0.48966159  1
  O  O396  1  0.37092588  0.49348176  0.98621399  1
  O  O397  1  0.38435414  0.99680179  0.49174428  1
  O  O398  1  0.38436603  0.99409474  0.99804354  1
  O  O399  1  0.87913850  0.49633297  0.48838029  1
  O  O400  1  0.87880739  0.48915363  1.00550637  1
  O  O401  1  0.87755689  1.00115904  0.49148344  1
  O  O402  1  0.87290112  0.98995003  0.98868936  1
  O  O403  1  0.13217033  0.01072887  0.00980130  1
  O  O404  1  0.11133355  -0.00237698  0.49801449  1
  O  O405  1  0.12149690  0.50989876  0.00493978  1
  O  O406  1  0.11764441  0.50390486  0.50776461  1
  O  O407  1  0.61086919  -0.00219333  0.01013462  1
  O  O408  1  0.61772216  0.00871507  0.49373306  1
  O  O409  1  0.62770826  0.50375799  0.01144489  1
  O  O410  1  0.61189522  0.49371664  0.49708411  1
  O  O411  1  0.37013712  0.37249487  0.11657496  1
  O  O412  1  0.37283391  0.36893543  0.62030207  1
  O  O413  1  0.37172060  0.86800025  0.11898861  1
  O  O414  1  0.36507097  0.86547554  0.62676106  1
  O  O415  1  0.86564903  0.37054955  0.11902833  1
  O  O416  1  0.86619076  0.36636724  0.61715821  1
  O  O417  1  0.87220029  0.87093275  0.11841908  1
  O  O418  1  0.87922242  0.86588192  0.62855391  1
  O  O419  1  0.13589210  0.11788964  0.36875225  1
  O  O420  1  0.12500724  0.13098446  0.88152890  1
  O  O421  1  0.13966980  0.62387765  0.38331262  1
  O  O422  1  0.13079826  0.62263040  0.88793513  1
  O  O423  1  0.63169809  0.12807562  0.37993918  1
  O  O424  1  0.63720263  0.12538483  0.87401763  1
  O  O425  1  0.61806124  0.63874622  0.37056269  1
  O  O426  1  0.62697819  0.63032988  0.88058314  1
