# generated using pymatgen
data_V85Zn86O256
_symmetry_space_group_name_H-M   'P 1'
_cell_length_a   16.94845050
_cell_length_b   16.93696422
_cell_length_c   16.95331036
_cell_angle_alpha   90.04629002
_cell_angle_beta   89.94071411
_cell_angle_gamma   89.95104841
_symmetry_Int_Tables_number   1
_chemical_formula_structural   V85Zn86O256
_chemical_formula_sum   'V85 Zn86 O256'
_cell_volume   4866.53161375
_cell_formula_units_Z   1
loop_
 _symmetry_equiv_pos_site_id
 _symmetry_equiv_pos_as_xyz
  1  'x, y, z'
loop_
 _atom_site_type_symbol
 _atom_site_label
 _atom_site_symmetry_multiplicity
 _atom_site_fract_x
 _atom_site_fract_y
 _atom_site_fract_z
 _atom_site_occupancy
  V  V0  1  0.74353819  0.48897337  0.25027304  1
  V  V1  1  0.73073891  0.63426361  0.87481791  1
  V  V2  1  0.37191103  0.12865613  0.25435276  1
  V  V3  1  0.12283064  0.87952978  0.24402297  1
  V  V4  1  0.37663416  0.75003924  0.62634636  1
  V  V5  1  0.48107802  0.87439404  0.87557675  1
  V  V6  1  0.74679251  0.25113454  0.00735349  1
  V  V7  1  0.75178351  -0.00028161  0.25253808  1
  V  V8  1  0.00675124  0.12003640  0.12839247  1
  V  V9  1  0.75298302  0.11800663  0.87324248  1
  V  V10  1  0.37634448  0.11445834  0.75247382  1
  V  V11  1  0.48715722  -0.00357090  -0.00459916  1
  V  V12  1  0.50012678  0.12466298  0.12599862  1
  V  V13  1  0.62580672  0.50550081  0.61051099  1
  V  V14  1  0.00367280  -0.00304708  0.49519905  1
  V  V15  1  -0.00287817  0.75572586  0.25537734  1
  V  V16  1  0.63002952  0.87375475  0.75956967  1
  V  V17  1  0.87182218  0.61946085  0.25254127  1
  V  V18  1  0.25242570  0.11678593  0.87595541  1
  V  V19  1  0.51167823  0.62597132  0.11460673  1
  V  V20  1  0.74956498  0.49880332  0.75287752  1
  V  V21  1  0.74889305  0.61865740  0.37794019  1
  V  V22  1  0.24915799  0.76247186  0.00197342  1
  V  V23  1  0.37640817  0.25131317  0.12732453  1
  V  V24  1  0.36384642  0.00140027  0.37575404  1
  V  V25  1  0.38008783  0.37930799  0.00203737  1
  V  V26  1  0.75486536  0.37672440  0.61572199  1
  V  V27  1  -0.00330822  0.62381222  0.62244556  1
  V  V28  1  0.87844597  -0.00106214  0.87099445  1
  V  V29  1  0.12707131  0.85844688  0.75034881  1
  V  V30  1  0.74943047  0.88242116  0.62755541  1
  V  V31  1  0.62569616  -0.00248463  0.12407679  1
  V  V32  1  0.62405874  0.11982766  -0.00195950  1
  V  V33  1  0.50491229  0.37442601  0.87445498  1
  V  V34  1  0.49949934  0.12757067  0.62018002  1
  V  V35  1  0.74580479  0.24016016  0.50124628  1
  V  V36  1  0.62258391  0.74363449  0.37607387  1
  V  V37  1  0.12339997  0.49769424  0.11949778  1
  V  V38  1  -0.00151303  0.25904875  0.75188670  1
  V  V39  1  0.37282373  0.76086151  0.12088401  1
  V  V40  1  0.50008272  0.87491627  0.37459177  1
  V  V41  1  0.25133281  0.62756824  0.87690493  1
  V  V42  1  0.50356273  0.26390127  0.24792015  1
  V  V43  1  0.87204241  0.62514533  0.75392585  1
  V  V44  1  0.24868419  0.62857103  0.36780591  1
  V  V45  1  0.87364751  0.75371289  0.62666929  1
  V  V46  1  0.74209841  0.74825443  0.50069295  1
  V  V47  1  0.62471831  0.24450788  0.37437958  1
  V  V48  1  -0.01327997  0.37847377  0.37577808  1
  V  V49  1  0.63013209  0.48518661  0.11951816  1
  V  V50  1  0.50418666  0.38102550  0.39221182  1
  V  V51  1  0.13098523  -0.00034770  0.62981172  1
  V  V52  1  0.13353757  0.12742093  0.49881250  1
  V  V53  1  0.37973177  0.62379832  0.75001232  1
  V  V54  1  0.73311180  0.74821624  -0.00268352  1
  V  V55  1  0.00284434  0.86088686  0.87586775  1
  V  V56  1  0.62718644  0.37391813  0.74846560  1
  V  V57  1  0.24915395  0.75049015  0.49846574  1
  V  V58  1  0.12325883  0.25600362  0.87393158  1
  V  V59  1  0.00004099  0.24656028  0.25474022  1
  V  V60  1  0.87512040  0.12281314  0.75086471  1
  V  V61  1  0.62507054  0.00314439  0.62652069  1
  V  V62  1  -0.01894620  0.49950344  0.49266442  1
  V  V63  1  0.37306451  0.49889644  0.87456475  1
  V  V64  1  0.13871415  0.25012983  0.38050602  1
  V  V65  1  0.50480149  0.62513485  0.60847404  1
  V  V66  1  0.49546775  0.24848854  0.74789436  1
  V  V67  1  0.50424868  0.00345213  0.49608664  1
  V  V68  1  0.37452451  0.87684908  0.50002707  1
  V  V69  1  0.00521711  0.00023584  0.00126645  1
  V  V70  1  0.00004316  0.61887500  0.12365525  1
  V  V71  1  0.86853639  0.25337533  0.12985078  1
  V  V72  1  0.87479721  0.25041204  0.61874858  1
  V  V73  1  0.12006171  0.62386352  0.49339403  1
  V  V74  1  0.75050735  0.87339119  0.12311297  1
  V  V75  1  0.62613457  0.24658670  0.87311463  1
  V  V76  1  0.12692007  0.62473957  -0.00392929  1
  V  V77  1  0.37723118  0.62361105  0.24390256  1
  V  V78  1  0.37907187  0.49851983  0.38358428  1
  V  V79  1  0.50017472  0.74928096  0.24791830  1
  V  V80  1  0.87881399  0.87444180  0.49087603  1
  V  V81  1  0.24663671  -0.00242196  0.23251821  1
  V  V82  1  0.25014088  0.25022332  -0.00031298  1
  V  V83  1  0.87577972  0.74802068  0.11493758  1
  V  V84  1  0.13083254  0.37577806  0.25229891  1
  Zn  Zn85  1  0.11623767  0.75866359  0.37562083  1
  Zn  Zn86  1  0.12763916  0.37958391  0.74842829  1
  Zn  Zn87  1  0.28088641  0.45592514  0.69870213  1
  Zn  Zn88  1  0.25037690  0.87296719  0.62741955  1
  Zn  Zn89  1  0.89276224  0.38239067  0.00525707  1
  Zn  Zn90  1  0.52104935  0.50626976  -0.00978929  1
  Zn  Zn91  1  0.25169345  0.37673674  0.12449790  1
  Zn  Zn92  1  0.25197686  0.50075332  0.24629657  1
  Zn  Zn93  1  0.25102750  -0.00617416  0.75594133  1
  Zn  Zn94  1  0.89844385  0.48237727  0.87930015  1
  Zn  Zn95  1  0.50575108  0.74831087  0.75645606  1
  Zn  Zn96  1  0.62504201  0.87370159  0.25093676  1
  Zn  Zn97  1  0.12306286  0.49338410  0.62411336  1
  Zn  Zn98  1  0.87515597  0.12181236  0.25489404  1
  Zn  Zn99  1  0.88056874  -0.00110565  0.37291690  1
  Zn  Zn100  1  0.00164166  0.12238661  0.62570863  1
  Zn  Zn101  1  0.12860293  0.12146045  0.00479562  1
  Zn  Zn102  1  0.74819755  0.11789600  0.38161981  1
  Zn  Zn103  1  0.21534561  0.32871664  0.57599784  1
  Zn  Zn104  1  0.38113335  0.29276103  0.60300194  1
  Zn  Zn105  1  0.00578931  0.74527926  0.75166935  1
  Zn  Zn106  1  0.87617065  0.87338983  -0.00285834  1
  Zn  Zn107  1  0.18958163  0.18803857  0.19159674  1
  Zn  Zn108  1  0.18896412  0.18751350  0.69075857  1
  Zn  Zn109  1  0.18509127  0.69300040  0.18420664  1
  Zn  Zn110  1  0.19812701  0.65708632  0.67756986  1
  Zn  Zn111  1  0.68427257  0.18459417  0.19159279  1
  Zn  Zn112  1  0.68875170  0.18375088  0.68795658  1
  Zn  Zn113  1  0.68763412  0.68584312  0.18865813  1
  Zn  Zn114  1  0.68442068  0.69054844  0.68649129  1
  Zn  Zn115  1  0.31871230  0.31339222  0.42567458  1
  Zn  Zn116  1  0.31380222  0.30770450  0.81230135  1
  Zn  Zn117  1  0.30993407  0.81537144  0.30801324  1
  Zn  Zn118  1  0.30887097  0.80666875  0.81237151  1
  Zn  Zn119  1  0.81112280  0.30817118  0.31447482  1
  Zn  Zn120  1  0.81337604  0.30925095  0.81348825  1
  Zn  Zn121  1  0.81051864  0.80944704  0.30906160  1
  Zn  Zn122  1  0.81079951  0.81258493  0.81385621  1
  Zn  Zn123  1  0.18154055  0.44531701  0.43101363  1
  Zn  Zn124  1  0.18995246  0.43718861  0.93505503  1
  Zn  Zn125  1  0.18468342  0.93554896  0.43515408  1
  Zn  Zn126  1  0.18158898  0.93591529  0.93439768  1
  Zn  Zn127  1  0.68997838  0.43052936  0.43289330  1
  Zn  Zn128  1  0.74101914  0.44816543  0.95133456  1
  Zn  Zn129  1  0.68588383  0.93341969  0.43922065  1
  Zn  Zn130  1  0.69053730  0.93787000  0.93993972  1
  Zn  Zn131  1  0.31343678  0.06490269  0.06316807  1
  Zn  Zn132  1  0.31289152  0.15482470  0.55594835  1
  Zn  Zn133  1  0.31324795  0.56322720  0.06319032  1
  Zn  Zn134  1  0.31098870  0.56123980  0.55826782  1
  Zn  Zn135  1  0.81984832  0.06656163  0.06200971  1
  Zn  Zn136  1  0.81601654  0.06104945  0.56261292  1
  Zn  Zn137  1  0.80770406  0.56641453  0.06410010  1
  Zn  Zn138  1  0.80862068  0.56513492  0.56281749  1
  Zn  Zn139  1  0.44209726  0.44265496  0.18592858  1
  Zn  Zn140  1  0.44880549  0.44223160  0.68390337  1
  Zn  Zn141  1  0.43810385  0.93932961  0.18925661  1
  Zn  Zn142  1  0.44050341  0.93652529  0.68764698  1
  Zn  Zn143  1  0.93627840  0.43678491  0.19029619  1
  Zn  Zn144  1  0.93781239  0.43917595  0.68576608  1
  Zn  Zn145  1  0.93762551  0.93516614  0.18600072  1
  Zn  Zn146  1  0.94396398  0.93679121  0.68772998  1
  Zn  Zn147  1  0.06777049  0.06214960  0.31651274  1
  Zn  Zn148  1  0.06276122  0.06440854  0.81416940  1
  Zn  Zn149  1  0.06028244  0.56139479  0.30862149  1
  Zn  Zn150  1  0.06195220  0.55551886  0.81347047  1
  Zn  Zn151  1  0.56290061  0.06496858  0.31019366  1
  Zn  Zn152  1  0.56203311  0.05634551  0.81055626  1
  Zn  Zn153  1  0.56437930  0.56078114  0.31063638  1
  Zn  Zn154  1  0.56138121  0.55970180  0.80503125  1
  Zn  Zn155  1  0.44713140  0.18374376  0.43226213  1
  Zn  Zn156  1  0.43647193  0.18568779  0.93631364  1
  Zn  Zn157  1  0.43380924  0.68670025  0.43502142  1
  Zn  Zn158  1  0.43834048  0.69239809  0.93957129  1
  Zn  Zn159  1  0.93922527  0.18099810  0.43722138  1
  Zn  Zn160  1  0.95372891  0.21677617  0.95571844  1
  Zn  Zn161  1  0.92994710  0.68772588  0.43613191  1
  Zn  Zn162  1  0.94754452  0.65776129  0.92617775  1
  Zn  Zn163  1  0.06265374  0.31038896  0.06713060  1
  Zn  Zn164  1  0.04961502  0.31248938  0.55900456  1
  Zn  Zn165  1  0.06410698  0.81084857  0.06466293  1
  Zn  Zn166  1  0.06215767  0.81211807  0.56371230  1
  Zn  Zn167  1  0.56617481  0.31302847  0.06022889  1
  Zn  Zn168  1  0.56928196  0.31167202  0.56297581  1
  Zn  Zn169  1  0.55618570  0.81664646  0.06077523  1
  Zn  Zn170  1  0.56198711  0.81391985  0.56445563  1
  O  O171  1  0.11131692  0.13133374  0.12617211  1
  O  O172  1  0.12379892  0.11695086  0.61947148  1
  O  O173  1  0.11890804  0.61635157  0.12199117  1
  O  O174  1  0.10491615  0.63234714  0.61207174  1
  O  O175  1  0.61879060  0.11555999  0.11950054  1
  O  O176  1  0.61306324  0.11605201  0.63206353  1
  O  O177  1  0.61473679  0.61874671  0.13034684  1
  O  O178  1  0.61711879  0.61878390  0.62790220  1
  O  O179  1  0.39272695  0.38502737  0.37189391  1
  O  O180  1  0.38371277  0.38123635  0.88180577  1
  O  O181  1  0.38132861  0.88172474  0.37714655  1
  O  O182  1  0.38312586  0.87883332  0.86753554  1
  O  O183  1  0.88824169  0.37338416  0.37040438  1
  O  O184  1  0.84690336  0.38319435  0.88853502  1
  O  O185  1  0.86788140  0.87317882  0.38827131  1
  O  O186  1  0.88177907  0.88199063  0.87470996  1
  O  O187  1  0.26277257  -0.00365510  0.36930000  1
  O  O188  1  0.24527342  0.01259795  0.87629857  1
  O  O189  1  0.25749756  0.51427278  0.36728112  1
  O  O190  1  0.26615844  0.50947889  0.88375751  1
  O  O191  1  0.74554242  -0.00275086  0.36549416  1
  O  O192  1  0.75972657  0.01004820  0.88054167  1
  O  O193  1  0.74175037  0.50896320  0.36435720  1
  O  O194  1  0.74068966  0.51775164  0.85924591  1
  O  O195  1  0.24124253  0.49754025  0.12755620  1
  O  O196  1  0.23422036  0.53963474  0.63555699  1
  O  O197  1  0.25121596  0.99984762  0.13399802  1
  O  O198  1  0.23395898  0.99518785  0.63002354  1
  O  O199  1  0.73778294  0.50694208  0.13892174  1
  O  O200  1  0.74811436  0.49474655  0.63353208  1
  O  O201  1  0.74452703  0.99473974  0.12797084  1
  O  O202  1  0.74154545  0.98999635  0.61760997  1
  O  O203  1  0.00599288  0.36873788  0.25890179  1
  O  O204  1  -0.00571644  0.36197784  0.75183767  1
  O  O205  1  0.00744840  0.86822163  0.24834206  1
  O  O206  1  0.00690256  0.86713312  0.75764051  1
  O  O207  1  0.49665458  0.36513975  0.25254535  1
  O  O208  1  0.50667990  0.36664394  0.75333054  1
  O  O209  1  0.50160512  0.86833303  0.25797425  1
  O  O210  1  0.50930598  0.87702364  0.76241227  1
  O  O211  1  0.49283069  0.12989352  0.24238017  1
  O  O212  1  0.49571410  0.13004045  0.74556112  1
  O  O213  1  0.49392892  0.63050463  0.24280033  1
  O  O214  1  0.48993343  0.62938163  0.74565427  1
  O  O215  1  1.00057652  0.13044723  0.24836445  1
  O  O216  1  0.98787690  0.12968647  0.74716840  1
  O  O217  1  0.99115566  0.62971003  0.24161658  1
  O  O218  1  0.98821026  0.62899224  0.73728609  1
  O  O219  1  0.37094241  0.25897221  0.00463384  1
  O  O220  1  0.37299075  0.23953923  0.49824466  1
  O  O221  1  0.36218431  0.74645152  0.00954118  1
  O  O222  1  0.37090347  0.75612888  0.50573431  1
  O  O223  1  0.85749223  0.23808248  0.01452845  1
  O  O224  1  0.87018302  0.24394851  0.51379454  1
  O  O225  1  0.86968825  0.74443954  0.01093557  1
  O  O226  1  0.86559423  0.75614565  0.50900590  1
  O  O227  1  0.12258568  0.24267324  0.49496044  1
  O  O228  1  0.14054847  0.24627255  0.99731886  1
  O  O229  1  0.12647119  0.74132464  0.49458891  1
  O  O230  1  0.14023174  0.73878847  1.01010039  1
  O  O231  1  0.63511132  0.25237730  0.49118258  1
  O  O232  1  0.62479520  0.23607435  0.99429278  1
  O  O233  1  0.63541587  0.75532947  0.49429690  1
  O  O234  1  0.63433374  0.75168251  1.00738041  1
  O  O235  1  0.49776078  0.24578237  0.13033854  1
  O  O236  1  0.49726580  0.24606766  0.62964514  1
  O  O237  1  0.49532747  0.74246346  0.12775608  1
  O  O238  1  0.49091710  0.74482732  0.62628295  1
  O  O239  1  0.99508574  0.24277052  0.14281899  1
  O  O240  1  0.98931212  0.24601368  0.63273736  1
  O  O241  1  0.99139130  0.74429511  0.13517791  1
  O  O242  1  0.98715996  0.74326686  0.62323737  1
  O  O243  1  0.00190877  0.25972933  0.36870760  1
  O  O244  1  0.01272164  0.23429418  0.85997133  1
  O  O245  1  -0.00543302  0.74411648  0.35910796  1
  O  O246  1  -0.00799635  0.75789867  0.87513771  1
  O  O247  1  0.50599630  0.26087850  0.36819948  1
  O  O248  1  0.50705034  0.25165047  0.86716571  1
  O  O249  1  0.50576642  0.75276959  0.37016323  1
  O  O250  1  0.49663942  0.76822790  0.87495568  1
  O  O251  1  0.23223798  0.10988813  0.49368848  1
  O  O252  1  0.25196899  0.13254419  0.99450834  1
  O  O253  1  0.23881975  0.63098726  0.48811449  1
  O  O254  1  0.24562789  0.62970921  0.99407513  1
  O  O255  1  0.75018303  0.13599114  0.50337565  1
  O  O256  1  0.74126110  0.12541292  0.99374693  1
  O  O257  1  0.75447339  0.63565230  0.48991927  1
  O  O258  1  0.74836029  0.63283573  0.98146165  1
  O  O259  1  0.26148635  0.36690210  0.00021202  1
  O  O260  1  0.25367399  0.38260997  0.48740462  1
  O  O261  1  0.24301442  0.86125720  -0.00363416  1
  O  O262  1  0.25602740  0.86790277  0.50242535  1
  O  O263  1  0.73130899  0.34984341  0.00695733  1
  O  O264  1  0.75004293  0.36539830  0.51130170  1
  O  O265  1  0.75405238  0.86573380  0.00477604  1
  O  O266  1  0.75634003  0.86777555  0.50880321  1
  O  O267  1  0.12399687  0.49282054  0.23921697  1
  O  O268  1  0.11160103  0.49414318  0.74025161  1
  O  O269  1  0.13862755  0.99580026  0.25237299  1
  O  O270  1  0.12240324  0.99174308  0.74304650  1
  O  O271  1  0.63742129  0.50199090  0.24230695  1
  O  O272  1  0.63259805  0.49246747  0.74054638  1
  O  O273  1  0.62919418  0.99788348  0.23785735  1
  O  O274  1  0.62085979  0.98829345  0.73515176  1
  O  O275  1  0.36602418  0.00513159  0.25386916  1
  O  O276  1  0.37503365  0.01096671  0.74742052  1
  O  O277  1  0.37600844  0.51184611  0.25371888  1
  O  O278  1  0.37752011  0.50951010  0.75952250  1
  O  O279  1  0.86573401  -0.00308802  0.25307067  1
  O  O280  1  0.88218449  0.00584065  0.76173245  1
  O  O281  1  0.86198467  0.51218367  0.24159267  1
  O  O282  1  0.86684154  0.50827309  0.75219608  1
  O  O283  1  0.11473810  0.36937377  0.36733289  1
  O  O284  1  0.12665769  0.35906339  0.88020260  1
  O  O285  1  0.13226722  0.87134071  0.35682230  1
  O  O286  1  0.11427045  0.87428068  0.86338905  1
  O  O287  1  0.61140963  0.36620749  0.37657490  1
  O  O288  1  0.62090564  0.36465890  0.86389514  1
  O  O289  1  0.61850928  0.86183382  0.37452067  1
  O  O290  1  0.62816525  0.88277589  0.86031525  1
  O  O291  1  0.38177590  0.13033042  0.13272739  1
  O  O292  1  0.39195581  0.12179579  0.63438096  1
  O  O293  1  0.38519211  0.62870256  0.13073663  1
  O  O294  1  0.38440319  0.63008219  0.63166024  1
  O  O295  1  0.88696168  0.13327641  0.13181086  1
  O  O296  1  0.87374417  0.13105914  0.63455785  1
  O  O297  1  0.88115826  0.62957235  0.12957655  1
  O  O298  1  0.87748610  0.63339368  0.63073555  1
  O  O299  1  0.25802464  0.25160258  0.11755148  1
  O  O300  1  0.26548808  0.23942266  0.62318537  1
  O  O301  1  0.26007900  0.74518644  0.11332862  1
  O  O302  1  0.26331201  0.74300326  0.61711362  1
  O  O303  1  0.75699903  0.23870590  0.12204722  1
  O  O304  1  0.75307865  0.25642361  0.62007625  1
  O  O305  1  0.75549205  0.75198434  0.11856055  1
  O  O306  1  0.75336745  0.75839738  0.61727818  1
  O  O307  1  0.23725198  0.25111200  0.36933215  1
  O  O308  1  0.24663000  0.23973165  0.88390950  1
  O  O309  1  0.25338851  0.73961695  0.37851794  1
  O  O310  1  0.25741941  0.74069232  0.89193429  1
  O  O311  1  0.74190381  0.24981667  0.38401343  1
  O  O312  1  0.74371569  0.23510729  0.88319017  1
  O  O313  1  0.74157746  0.74362644  0.38074327  1
  O  O314  1  0.74505878  0.74401683  0.88162195  1
  O  O315  1  0.00186622  0.11975161  0.01067377  1
  O  O316  1  0.00824065  0.11428669  0.50506497  1
  O  O317  1  0.01435166  0.64005306  0.01842125  1
  O  O318  1  0.00058287  0.62114055  0.50032950  1
  O  O319  1  0.50554318  0.11749345  0.00390165  1
  O  O320  1  0.50111826  0.11481921  0.50745126  1
  O  O321  1  0.49721504  0.62185943  0.00972823  1
  O  O322  1  0.50058224  0.63164280  0.50938940  1
  O  O323  1  0.50032536  0.37293765  0.49104944  1
  O  O324  1  0.49607115  0.37707577  0.99175314  1
  O  O325  1  0.49431447  0.87938415  0.49345615  1
  O  O326  1  0.50144024  0.88229228  0.98466926  1
  O  O327  1  0.99891623  0.38446848  0.48425358  1
  O  O328  1  0.98849857  0.32637513  0.98824831  1
  O  O329  1  0.98930723  0.88053853  0.50523671  1
  O  O330  1  0.99958949  0.87947632  0.99346415  1
  O  O331  1  0.49756522  0.48800265  0.37082610  1
  O  O332  1  0.49329815  0.49513904  0.87552299  1
  O  O333  1  0.49838508  0.99458628  0.37931575  1
  O  O334  1  0.50461131  0.98775628  0.88378622  1
  O  O335  1  1.00101912  0.48759136  0.37678874  1
  O  O336  1  0.98302112  0.55078142  0.88976768  1
  O  O337  1  1.00173659  1.00001494  0.39018629  1
  O  O338  1  0.99415841  0.99213104  0.88114322  1
  O  O339  1  -0.00796362  0.00838033  0.11547560  1
  O  O340  1  0.01017503  -0.00079511  0.61582959  1
  O  O341  1  0.00626164  0.50838460  0.12783015  1
  O  O342  1  -0.00589331  0.50929453  0.61131516  1
  O  O343  1  0.50812573  0.00209340  0.11876382  1
  O  O344  1  0.50606526  0.00560726  0.61648705  1
  O  O345  1  0.51602623  0.50696978  0.12161354  1
  O  O346  1  0.51459072  0.51304319  0.62556193  1
  O  O347  1  0.23328406  0.37668782  0.24724751  1
  O  O348  1  0.24228024  0.37642157  0.76524265  1
  O  O349  1  0.24566309  0.88987543  0.24785938  1
  O  O350  1  0.24175590  0.87484253  0.74953240  1
  O  O351  1  0.75482364  0.39087553  0.25641365  1
  O  O352  1  0.74557188  0.38214640  0.74114587  1
  O  O353  1  0.74716350  0.88268849  0.24219780  1
  O  O354  1  0.74010322  0.87377306  0.74147403  1
  O  O355  1  0.25954091  0.11226127  0.24579185  1
  O  O356  1  0.26024502  0.12251715  0.75892441  1
  O  O357  1  0.25744864  0.62809634  0.25294855  1
  O  O358  1  0.26516141  0.63583066  0.76875733  1
  O  O359  1  0.74909898  0.10832407  0.25058085  1
  O  O360  1  0.76331030  0.12900289  0.75901558  1
  O  O361  1  0.75528506  0.62051702  0.25894388  1
  O  O362  1  0.75151777  0.62039493  0.75169849  1
  O  O363  1  0.38371249  0.11513640  0.36115581  1
  O  O364  1  0.36650191  0.12894123  0.86541374  1
  O  O365  1  0.36985930  0.62192316  0.36284439  1
  O  O366  1  0.37489352  0.61823181  0.87063087  1
  O  O367  1  0.86805730  0.11828515  0.37392743  1
  O  O368  1  0.86895631  0.11813829  0.86886811  1
  O  O369  1  0.86141644  0.62952761  0.36407560  1
  O  O370  1  0.85514655  0.63980623  0.85594080  1
  O  O371  1  0.12328385  0.38164533  0.13159198  1
  O  O372  1  0.12264172  0.37396651  0.62336740  1
  O  O373  1  0.12445734  0.87014516  0.14245505  1
  O  O374  1  0.12542179  0.87952976  0.63397141  1
  O  O375  1  0.62077532  0.38688961  0.12989902  1
  O  O376  1  0.63365929  0.38199468  0.63042445  1
  O  O377  1  0.63009754  0.88243950  0.12569445  1
  O  O378  1  0.63167119  0.88203810  0.63128825  1
  O  O379  1  0.11752790  0.25632475  0.25761173  1
  O  O380  1  0.11579573  0.25129329  0.75628357  1
  O  O381  1  0.11414557  0.75702197  0.25088538  1
  O  O382  1  0.12731568  0.75639274  0.73957034  1
  O  O383  1  0.61444015  0.24689520  0.25796630  1
  O  O384  1  0.61578997  0.25228965  0.75133274  1
  O  O385  1  0.61875144  0.75125190  0.25815445  1
  O  O386  1  0.62141289  0.76956463  0.74247819  1
  O  O387  1  0.38533603  0.23988194  0.24203249  1
  O  O388  1  0.38983052  0.24170430  0.75265697  1
  O  O389  1  0.37948094  0.74098873  0.24347875  1
  O  O390  1  0.37906220  0.74410580  0.74119453  1
  O  O391  1  0.88109269  0.24533009  0.24760722  1
  O  O392  1  0.87970476  0.24231144  0.74421012  1
  O  O393  1  0.87685675  0.74096682  0.23956413  1
  O  O394  1  0.87094598  0.74619531  0.73679628  1
  O  O395  1  0.37809472  0.51444007  0.48209668  1
  O  O396  1  0.37888704  0.48903090  0.99601973  1
  O  O397  1  0.38880728  0.99264613  0.48880448  1
  O  O398  1  0.38841754  1.00276160  1.00471888  1
  O  O399  1  0.88161907  0.50663105  0.49625819  1
  O  O400  1  0.84650273  0.48763207  0.99615844  1
  O  O401  1  0.88337459  0.98995613  0.50064126  1
  O  O402  1  0.88526636  0.99961580  0.98806369  1
  O  O403  1  0.11006937  0.00289311  -0.00414644  1
  O  O404  1  0.11901802  0.00099700  0.50708905  1
  O  O405  1  0.13013147  0.50735057  0.01113705  1
  O  O406  1  0.11335974  0.51538401  0.49784440  1
  O  O407  1  0.61980892  0.00206161  0.00985863  1
  O  O408  1  0.61269869  -0.00891523  0.51015546  1
  O  O409  1  0.63772546  0.49403540  0.01538056  1
  O  O410  1  0.63830608  0.49758067  0.51205850  1
  O  O411  1  0.37733594  0.37188317  0.11717109  1
  O  O412  1  0.36134485  0.39786245  0.63272891  1
  O  O413  1  0.38239232  0.85982260  0.12936858  1
  O  O414  1  0.37482525  0.86650584  0.62090304  1
  O  O415  1  0.88099858  0.35793990  0.12583159  1
  O  O416  1  0.86549205  0.36430858  0.63131544  1
  O  O417  1  0.86814379  0.86489298  0.12131588  1
  O  O418  1  0.86692933  0.87052681  0.62157267  1
  O  O419  1  0.11633817  0.13978593  0.38545226  1
  O  O420  1  0.13578236  0.13451832  0.87694901  1
  O  O421  1  0.13100163  0.62850531  0.37624263  1
  O  O422  1  0.13729335  0.62027759  0.88822559  1
  O  O423  1  0.62541492  0.13878188  0.37337850  1
  O  O424  1  0.63239779  0.12452213  0.87630863  1
  O  O425  1  0.63120086  0.63603514  0.37156280  1
  O  O426  1  0.63200367  0.63147207  0.86297407  1
