# generated using pymatgen
data_V85Zn86O256
_symmetry_space_group_name_H-M   'P 1'
_cell_length_a   16.91918385
_cell_length_b   16.92299648
_cell_length_c   16.92666608
_cell_angle_alpha   90.03975183
_cell_angle_beta   90.00415010
_cell_angle_gamma   90.03045607
_symmetry_Int_Tables_number   1
_chemical_formula_structural   V85Zn86O256
_chemical_formula_sum   'V85 Zn86 O256'
_cell_volume   4846.49683404
_cell_formula_units_Z   1
loop_
 _symmetry_equiv_pos_site_id
 _symmetry_equiv_pos_as_xyz
  1  'x, y, z'
loop_
 _atom_site_type_symbol
 _atom_site_label
 _atom_site_symmetry_multiplicity
 _atom_site_fract_x
 _atom_site_fract_y
 _atom_site_fract_z
 _atom_site_occupancy
  V  V0  1  0.36589824  0.62544449  0.25056145  1
  V  V1  1  0.87097189  0.75137667  0.12270439  1
  V  V2  1  0.13565680  -0.00436639  0.12696395  1
  V  V3  1  0.00128694  0.87436190  0.37654795  1
  V  V4  1  0.74631714  0.87556373  0.62857202  1
  V  V5  1  0.62433667  0.37883921  0.23629468  1
  V  V6  1  0.87322994  0.37617419  0.49768546  1
  V  V7  1  0.88985785  0.12983855  0.74773895  1
  V  V8  1  0.62097420  0.62439176  0.50274388  1
  V  V9  1  0.24438472  0.11587535  0.36946545  1
  V  V10  1  0.24275915  0.24610758  0.00092090  1
  V  V11  1  0.25114573  0.76207772  0.00362054  1
  V  V12  1  0.87187300  0.50007041  0.37380894  1
  V  V13  1  0.87165938  0.62628063  0.25022662  1
  V  V14  1  0.12249384  0.61996482  0.00082643  1
  V  V15  1  0.00043458  0.75754483  0.75654968  1
  V  V16  1  0.24995222  0.62889165  0.87855724  1
  V  V17  1  0.50233622  0.75246566  0.25514022  1
  V  V18  1  0.87448563  0.87033108  -0.00611038  1
  V  V19  1  0.62576194  0.25242488  0.37434835  1
  V  V20  1  0.62547974  -0.00116509  0.62905806  1
  V  V21  1  0.49591196  0.50414019  0.50467479  1
  V  V22  1  0.37222922  0.37595329  -0.00128454  1
  V  V23  1  0.75234249  0.37392245  0.62777771  1
  V  V24  1  0.13208099  0.87387690  0.74649385  1
  V  V25  1  0.62363865  0.12557791  0.49898710  1
  V  V26  1  0.00146136  -0.00724375  -0.00092079  1
  V  V27  1  0.87433279  0.12829870  0.24895911  1
  V  V28  1  -0.00218256  0.61912604  0.12066652  1
  V  V29  1  0.62990175  0.63078154  0.00526467  1
  V  V30  1  0.37510940  0.50076936  0.87496108  1
  V  V31  1  0.36688730  0.50501160  0.37601105  1
  V  V32  1  0.62532174  0.37487947  0.75212576  1
  V  V33  1  0.13918724  0.87700876  0.24677986  1
  V  V34  1  0.86789694  0.38340120  -0.00180122  1
  V  V35  1  0.36429127  0.75598256  0.62546971  1
  V  V36  1  0.37938350  0.11982542  0.75080612  1
  V  V37  1  0.49930210  0.12419232  0.12580687  1
  V  V38  1  0.00767469  0.37925677  0.36904401  1
  V  V39  1  0.87707244  0.00226094  0.37388629  1
  V  V40  1  0.74410244  0.63718025  0.87609172  1
  V  V41  1  0.87581574  0.62267701  0.75209132  1
  V  V42  1  0.37693505  -0.01295025  0.87606574  1
  V  V43  1  0.37434877  0.24921114  0.12730907  1
  V  V44  1  0.51942901  0.86785824  0.87510602  1
  V  V45  1  0.38278393  0.62988717  0.74668188  1
  V  V46  1  0.49996638  0.24851229  0.75132623  1
  V  V47  1  0.74885975  0.87187788  0.12301250  1
  V  V48  1  0.50257007  -0.01473483  0.49272564  1
  V  V49  1  0.62662882  -0.00251626  0.12633235  1
  V  V50  1  0.74808397  0.00124866  0.75258530  1
  V  V51  1  0.24885855  0.50152625  0.74709994  1
  V  V52  1  0.88889900  0.24882298  0.62831836  1
  V  V53  1  0.00055658  0.75202740  0.25146907  1
  V  V54  1  0.13801045  0.74832486  0.37768754  1
  V  V55  1  0.74219198  0.49822070  0.23775710  1
  V  V56  1  0.37396081  0.75916828  0.11879762  1
  V  V57  1  0.35920350  0.87117862  0.49747545  1
  V  V58  1  0.12715060  0.49992522  0.62604588  1
  V  V59  1  0.14067797  0.63131573  0.49715765  1
  V  V60  1  0.24131069  0.37818240  0.13300202  1
  V  V61  1  0.74495686  0.62629637  0.37575617  1
  V  V62  1  -0.00001903  0.62773559  0.62167958  1
  V  V63  1  0.51274122  0.75342890  0.74563849  1
  V  V64  1  0.49802790  0.37313183  0.87565927  1
  V  V65  1  0.49901622  0.37538277  0.37496223  1
  V  V66  1  0.63402849  0.25218833  0.87892594  1
  V  V67  1  0.88154167  -0.00092239  0.87297909  1
  V  V68  1  0.63338621  0.12825872  0.00057845  1
  V  V69  1  0.36748524  0.37332261  0.50181359  1
  V  V70  1  0.37317096  0.25147133  0.62414834  1
  V  V71  1  0.87567883  0.75167923  0.62369603  1
  V  V72  1  0.00503278  0.25690284  0.24504419  1
  V  V73  1  0.49776748  -0.00747638  0.00007438  1
  V  V74  1  0.00840948  0.37799421  0.87033319  1
  V  V75  1  0.50114090  0.12325300  0.62362187  1
  V  V76  1  0.00110644  0.01614535  0.50744235  1
  V  V77  1  0.87725582  0.87640720  0.50124771  1
  V  V78  1  0.25217443  0.11990082  0.87529289  1
  V  V79  1  0.49891600  0.61581578  0.12403127  1
  V  V80  1  0.86193962  0.25306475  0.11332144  1
  V  V81  1  0.13093913  0.00799046  0.62089614  1
  V  V82  1  0.24032270  0.24385918  0.49801819  1
  V  V83  1  0.00157878  0.12564116  0.12127047  1
  V  V84  1  0.62107579  0.50188849  0.62854545  1
  Zn  Zn85  1  0.50908384  0.49613233  0.00329713  1
  Zn  Zn86  1  0.75079749  0.50011647  0.75651081  1
  Zn  Zn87  1  0.11380240  0.24700663  0.84548375  1
  Zn  Zn88  1  0.75569747  0.12895056  0.87728463  1
  Zn  Zn89  1  0.20105830  0.33760486  0.67229704  1
  Zn  Zn90  1  0.12401417  0.24774655  0.37263892  1
  Zn  Zn91  1  0.74985184  0.12575714  0.37521263  1
  Zn  Zn92  1  0.36870450  0.11430304  0.24770196  1
  Zn  Zn93  1  0.61699292  0.75792337  0.38368898  1
  Zn  Zn94  1  0.49911765  0.24935900  0.25076337  1
  Zn  Zn95  1  0.23881667  0.50054369  0.25871186  1
  Zn  Zn96  1  0.75067372  0.24823270  0.50150648  1
  Zn  Zn97  1  0.00020298  0.50410607  0.49797424  1
  Zn  Zn98  1  0.12073308  0.75877949  0.88092994  1
  Zn  Zn99  1  0.26061892  -0.01049520  0.73671060  1
  Zn  Zn100  1  0.88051651  0.50499890  0.88305010  1
  Zn  Zn101  1  0.37494112  -0.00808398  0.36677936  1
  Zn  Zn102  1  0.12260958  0.12265202  -0.00699213  1
  Zn  Zn103  1  0.62302466  0.87762115  0.25831781  1
  Zn  Zn104  1  0.11483823  0.49404497  0.13016685  1
  Zn  Zn105  1  0.75083089  -0.00151258  0.25135877  1
  Zn  Zn106  1  0.74817587  0.75183871  0.49994908  1
  Zn  Zn107  1  0.18491073  0.18566861  0.18754477  1
  Zn  Zn108  1  0.19306877  0.17183914  0.68854778  1
  Zn  Zn109  1  0.18691917  0.68858978  0.18567684  1
  Zn  Zn110  1  0.18785017  0.68569512  0.68948303  1
  Zn  Zn111  1  0.68658624  0.18741305  0.19062031  1
  Zn  Zn112  1  0.69231490  0.18691077  0.68983646  1
  Zn  Zn113  1  0.68545862  0.68568837  0.18483766  1
  Zn  Zn114  1  0.69044027  0.68510296  0.68622279  1
  Zn  Zn115  1  0.31207643  0.30837461  0.31358878  1
  Zn  Zn116  1  0.29952274  0.30545523  0.80980103  1
  Zn  Zn117  1  0.31759731  0.81229379  0.31212401  1
  Zn  Zn118  1  0.31280739  0.81144206  0.81361465  1
  Zn  Zn119  1  0.81009407  0.31302211  0.30825713  1
  Zn  Zn120  1  0.81775553  0.31451250  0.81465674  1
  Zn  Zn121  1  0.80746863  0.81385729  0.31294986  1
  Zn  Zn122  1  0.81315174  0.81435351  0.81068634  1
  Zn  Zn123  1  0.18626603  0.43866434  0.44379604  1
  Zn  Zn124  1  0.18529059  0.43992495  0.93985123  1
  Zn  Zn125  1  0.18337598  0.93801886  0.43828773  1
  Zn  Zn126  1  0.18315994  0.93683643  0.93218842  1
  Zn  Zn127  1  0.68697716  0.43864953  0.43540620  1
  Zn  Zn128  1  0.69290031  0.44584408  0.94026318  1
  Zn  Zn129  1  0.68982796  0.93683226  0.43792775  1
  Zn  Zn130  1  0.69232454  0.93900774  0.94033389  1
  Zn  Zn131  1  0.31516116  0.05885666  0.06066703  1
  Zn  Zn132  1  0.31438706  0.06270741  0.55432476  1
  Zn  Zn133  1  0.31241528  0.56357512  0.06266583  1
  Zn  Zn134  1  0.31562761  0.56897010  0.56773885  1
  Zn  Zn135  1  0.81405675  0.06041637  0.06242401  1
  Zn  Zn136  1  0.81318098  0.06521213  0.56492791  1
  Zn  Zn137  1  0.80762103  0.56495042  0.05942618  1
  Zn  Zn138  1  0.80981487  0.56073784  0.56379533  1
  Zn  Zn139  1  0.43324366  0.43659478  0.19033826  1
  Zn  Zn140  1  0.43548633  0.43683583  0.68863654  1
  Zn  Zn141  1  0.43522178  0.93524603  0.18845919  1
  Zn  Zn142  1  0.44248668  0.93101811  0.68634960  1
  Zn  Zn143  1  0.92916335  0.43688263  0.18505476  1
  Zn  Zn144  1  0.94303123  0.43784687  0.68975844  1
  Zn  Zn145  1  0.94130885  0.93719044  0.18641647  1
  Zn  Zn146  1  0.93992775  0.93860330  0.68742400  1
  Zn  Zn147  1  0.06417298  0.06343926  0.31113657  1
  Zn  Zn148  1  0.06630812  0.05619232  0.81066571  1
  Zn  Zn149  1  0.06317884  0.56385123  0.31098348  1
  Zn  Zn150  1  0.06142657  0.56048410  0.81468035  1
  Zn  Zn151  1  0.55965276  0.06170891  0.31146765  1
  Zn  Zn152  1  0.56499553  0.06109693  0.81509117  1
  Zn  Zn153  1  0.55718352  0.56329857  0.31315449  1
  Zn  Zn154  1  0.56293822  0.56408291  0.81788809  1
  Zn  Zn155  1  0.43485725  0.18305465  0.43420659  1
  Zn  Zn156  1  0.43816479  0.18467630  0.94007073  1
  Zn  Zn157  1  0.43203453  0.68758685  0.43901208  1
  Zn  Zn158  1  0.44213986  0.68887792  0.93868037  1
  Zn  Zn159  1  0.93757769  0.19329841  0.43507417  1
  Zn  Zn160  1  0.94194963  0.19081020  0.93397439  1
  Zn  Zn161  1  0.93780289  0.68880503  0.43690442  1
  Zn  Zn162  1  0.93710759  0.68848311  0.93738983  1
  Zn  Zn163  1  0.05626749  0.31374666  0.05216963  1
  Zn  Zn164  1  0.05786074  0.31571290  0.55605893  1
  Zn  Zn165  1  0.06288617  0.81048162  0.06405060  1
  Zn  Zn166  1  0.06619448  0.81602605  0.56452687  1
  Zn  Zn167  1  0.56136049  0.31058992  0.05992324  1
  Zn  Zn168  1  0.55998043  0.31432373  0.56182070  1
  Zn  Zn169  1  0.56053131  0.80772637  0.06311420  1
  Zn  Zn170  1  0.56252777  0.80963109  0.56934991  1
  O  O171  1  0.11322361  0.11795637  0.12380431  1
  O  O172  1  0.11921321  0.10742112  0.63133868  1
  O  O173  1  0.11294003  0.63015154  0.11807846  1
  O  O174  1  0.11895510  0.62368921  0.61506434  1
  O  O175  1  0.62023393  0.11918087  0.11965939  1
  O  O176  1  0.62113794  0.12161275  0.61793457  1
  O  O177  1  0.61715384  0.62641886  0.11376377  1
  O  O178  1  0.63163072  0.60998537  0.61834166  1
  O  O179  1  0.38048680  0.37852462  0.38295162  1
  O  O180  1  0.37584775  0.37600857  0.88222673  1
  O  O181  1  0.37452637  0.87157667  0.39258098  1
  O  O182  1  0.38354048  0.88448930  0.87158770  1
  O  O183  1  0.87681805  0.37925646  0.38158522  1
  O  O184  1  0.88070502  0.37769914  0.88502068  1
  O  O185  1  0.87944437  0.88339810  0.37951575  1
  O  O186  1  0.87177841  0.88323054  0.88404486  1
  O  O187  1  0.25056228  0.01286044  0.38261046  1
  O  O188  1  0.26106535  0.00691178  0.87978507  1
  O  O189  1  0.26259929  0.49306793  0.37716802  1
  O  O190  1  0.25396645  0.51129353  0.87041371  1
  O  O191  1  0.76602260  0.00365369  0.37513111  1
  O  O192  1  0.76191079  0.00216090  0.86900233  1
  O  O193  1  0.75295673  0.51132160  0.37066384  1
  O  O194  1  0.75901664  0.51536890  0.87281258  1
  O  O195  1  0.25348605  0.48313322  0.12506385  1
  O  O196  1  0.24200775  0.50947279  0.63350456  1
  O  O197  1  0.23489142  1.00394375  0.11900097  1
  O  O198  1  0.23654428  1.00462374  0.61938638  1
  O  O199  1  0.74927200  0.50671041  0.13864319  1
  O  O200  1  0.74242233  0.48836415  0.62824806  1
  O  O201  1  0.74257219  0.99302703  0.12590318  1
  O  O202  1  0.74679248  0.99481130  0.63196158  1
  O  O203  1  -0.01073079  0.36843130  0.25668537  1
  O  O204  1  -0.00636797  0.37508423  0.76892237  1
  O  O205  1  0.00193356  0.86409777  0.25543285  1
  O  O206  1  0.00856235  0.86578824  0.74431877  1
  O  O207  1  0.50544161  0.37415418  0.25790007  1
  O  O208  1  0.50478645  0.36786940  0.75527168  1
  O  O209  1  0.50309867  0.85554598  0.24128788  1
  O  O210  1  0.50259316  0.86410382  0.76163718  1
  O  O211  1  0.50171234  0.12731107  0.23499885  1
  O  O212  1  0.49767369  0.12903520  0.74493185  1
  O  O213  1  0.49090700  0.63090836  0.24238552  1
  O  O214  1  0.49055455  0.63982867  0.76223243  1
  O  O215  1  0.99022281  0.13175948  0.24225259  1
  O  O216  1  0.98868475  0.12247529  0.75287456  1
  O  O217  1  0.99199437  0.63719087  0.24499362  1
  O  O218  1  0.99555804  0.63242455  0.74012043  1
  O  O219  1  0.36859960  0.25441260  0.01019058  1
  O  O220  1  0.37095827  0.25607660  0.50591765  1
  O  O221  1  0.36859169  0.74287016  0.01203320  1
  O  O222  1  0.38189821  0.76019323  0.51359263  1
  O  O223  1  0.87395239  0.25067273  0.01000632  1
  O  O224  1  0.87222341  0.25787058  0.50765383  1
  O  O225  1  0.88127050  0.76183286  0.00810350  1
  O  O226  1  0.87347060  0.75750590  0.50646694  1
  O  O227  1  0.13712988  0.25587128  0.49948352  1
  O  O228  1  0.13775786  0.24542480  1.00103471  1
  O  O229  1  0.12104479  0.74002783  0.49419505  1
  O  O230  1  0.13305150  0.74293433  1.00008059  1
  O  O231  1  0.62440059  0.24300047  0.49397257  1
  O  O232  1  0.62012792  0.24073729  0.99107446  1
  O  O233  1  0.62386858  0.73606301  0.50398523  1
  O  O234  1  0.61590214  0.73134186  0.99707234  1
  O  O235  1  0.49141757  0.24049098  0.12305371  1
  O  O236  1  0.49414939  0.24338154  0.62963769  1
  O  O237  1  0.48974013  0.73848766  0.13017058  1
  O  O238  1  0.49159025  0.75484730  0.64180149  1
  O  O239  1  0.99327007  0.24263044  0.12707706  1
  O  O240  1  0.98843410  0.25771172  0.62492779  1
  O  O241  1  0.98873102  0.74564821  0.13295975  1
  O  O242  1  0.99545571  0.74475567  0.63188422  1
  O  O243  1  -0.00016539  0.26019194  0.36453838  1
  O  O244  1  0.00582115  0.26283651  0.87584925  1
  O  O245  1  0.00528155  0.75474295  0.36741163  1
  O  O246  1  0.00240676  0.74522399  0.86029693  1
  O  O247  1  0.50923268  0.25440081  0.37491220  1
  O  O248  1  0.50617172  0.25417739  0.87069052  1
  O  O249  1  0.49778049  0.74256272  0.35874100  1
  O  O250  1  0.49698654  0.76289129  0.86682313  1
  O  O251  1  0.25481164  0.13488351  0.48713521  1
  O  O252  1  0.24914014  0.12941227  0.99451750  1
  O  O253  1  0.23920318  0.62738086  0.50135511  1
  O  O254  1  0.24454338  0.63216581  0.99433443  1
  O  O255  1  0.73631506  0.12541600  0.49980230  1
  O  O256  1  0.73733439  0.11848185  0.99813333  1
  O  O257  1  0.73981111  0.62392197  0.49361771  1
  O  O258  1  0.74082495  0.62884536  0.99094881  1
  O  O259  1  0.25819857  0.36649523  0.00440625  1
  O  O260  1  0.26212370  0.36768755  0.49852369  1
  O  O261  1  0.24542646  0.86116252  -0.00727825  1
  O  O262  1  0.26064145  0.87610074  0.50093742  1
  O  O263  1  0.76682657  0.37294361  -0.00761837  1
  O  O264  1  0.75921332  0.37582589  0.50638857  1
  O  O265  1  0.76048546  0.87934627  0.01233406  1
  O  O266  1  0.76006461  0.87611420  0.51056232  1
  O  O267  1  0.12792947  0.50683630  0.24260940  1
  O  O268  1  0.13627302  0.51172157  0.73934688  1
  O  O269  1  0.11577776  0.98863743  0.23988632  1
  O  O270  1  0.12736694  0.99016040  0.73825419  1
  O  O271  1  0.62975014  0.49101324  0.25782864  1
  O  O272  1  0.62358434  0.49446827  0.74338238  1
  O  O273  1  0.62549442  0.99927871  0.23763746  1
  O  O274  1  0.63554721  1.00554894  0.74298960  1
  O  O275  1  0.37911243  0.00071712  0.25385790  1
  O  O276  1  0.37922804  0.00078160  0.75625151  1
  O  O277  1  0.37117948  0.50728131  0.26018770  1
  O  O278  1  0.37401656  0.51289822  0.75345109  1
  O  O279  1  0.87905996  0.00864114  0.25762903  1
  O  O280  1  0.87370568  0.00942917  0.75552458  1
  O  O281  1  0.86424419  0.50668970  0.25493556  1
  O  O282  1  0.87543005  0.51594970  0.74637261  1
  O  O283  1  0.11020090  0.37646098  0.38128114  1
  O  O284  1  0.11400188  0.37331413  0.88171659  1
  O  O285  1  0.11903012  0.86856140  0.36941101  1
  O  O286  1  0.12251396  0.87629606  0.85486459  1
  O  O287  1  0.61748633  0.36791976  0.37440206  1
  O  O288  1  0.62006656  0.36959154  0.87294769  1
  O  O289  1  0.63435306  0.86880491  0.37085824  1
  O  O290  1  0.61811866  0.87697244  0.87558307  1
  O  O291  1  0.38225020  0.13104717  0.12377079  1
  O  O292  1  0.38108823  0.13223505  0.62706579  1
  O  O293  1  0.38094828  0.62984121  0.13175914  1
  O  O294  1  0.37823823  0.63902153  0.63515302  1
  O  O295  1  0.88221998  0.13227879  0.12807240  1
  O  O296  1  0.87282156  0.13381579  0.63741777  1
  O  O297  1  0.87764617  0.63420565  0.12743517  1
  O  O298  1  0.87978498  0.63085654  0.63032876  1
  O  O299  1  0.25477561  0.25622479  0.11988253  1
  O  O300  1  0.25801987  0.24652318  0.61515052  1
  O  O301  1  0.26433680  0.74628268  0.11850838  1
  O  O302  1  0.26521742  0.74761949  0.62967995  1
  O  O303  1  0.76417140  0.24547577  0.12701642  1
  O  O304  1  0.75491669  0.26292092  0.62433963  1
  O  O305  1  0.76238953  0.75534949  0.12941876  1
  O  O306  1  0.75680231  0.75857481  0.62533870  1
  O  O307  1  0.24636811  0.24408311  0.38207455  1
  O  O308  1  0.26381606  0.23108307  0.88929632  1
  O  O309  1  0.23713676  0.74996803  0.36963786  1
  O  O310  1  0.24966460  0.74080988  0.88169726  1
  O  O311  1  0.73803305  0.24915120  0.37767725  1
  O  O312  1  0.73708772  0.24814802  0.86816861  1
  O  O313  1  0.74932947  0.73630565  0.37758850  1
  O  O314  1  0.75579850  0.73661150  0.87162027  1
  O  O315  1  -0.00001629  0.11539881  0.00593512  1
  O  O316  1  -0.00272834  0.11449040  0.49634181  1
  O  O317  1  0.00802827  0.63312626  0.00936307  1
  O  O318  1  0.00012106  0.62585000  0.51278273  1
  O  O319  1  0.50895325  0.11672276  0.00935544  1
  O  O320  1  0.50866126  0.11777456  0.50416994  1
  O  O321  1  0.50639456  0.62102634  0.00708746  1
  O  O322  1  0.50493538  0.61290500  0.49724283  1
  O  O323  1  0.48968013  0.38354486  0.49568713  1
  O  O324  1  0.48737627  0.37527393  0.99608405  1
  O  O325  1  0.50021281  0.88367851  0.50479578  1
  O  O326  1  0.50597844  0.87964162  0.98707503  1
  O  O327  1  0.98689238  0.37995358  0.48982823  1
  O  O328  1  0.98403187  0.37132657  0.98790274  1
  O  O329  1  0.99419886  0.88178667  0.49439981  1
  O  O330  1  0.99136022  0.88514524  1.00581345  1
  O  O331  1  0.48862521  0.49486732  0.38422649  1
  O  O332  1  0.49158960  0.49075438  0.87518081  1
  O  O333  1  0.49847998  1.00397601  0.39033375  1
  O  O334  1  0.49885617  0.98785793  0.87999742  1
  O  O335  1  0.98946367  0.49576019  0.37429989  1
  O  O336  1  0.99735494  0.48894907  0.87556866  1
  O  O337  1  0.99305501  0.99765918  0.38406865  1
  O  O338  1  0.98995497  1.00324316  0.88284825  1
  O  O339  1  0.00219784  0.00850351  0.11657041  1
  O  O340  1  0.00456673  -0.00047076  0.61173815  1
  O  O341  1  -0.00595589  0.51567765  0.13036401  1
  O  O342  1  0.00799796  0.51068437  0.62442304  1
  O  O343  1  0.50697931  0.00230878  0.11697265  1
  O  O344  1  0.50618731  0.00358192  0.61719053  1
  O  O345  1  0.49213283  0.51157774  0.12465026  1
  O  O346  1  0.50833631  0.49354380  0.61679882  1
  O  O347  1  0.25291513  0.37296233  0.23520119  1
  O  O348  1  0.26639211  0.39804053  0.74882595  1
  O  O349  1  0.23827200  0.87044761  0.25204008  1
  O  O350  1  0.23843510  0.87437139  0.74972560  1
  O  O351  1  0.73792074  0.38601230  0.25536460  1
  O  O352  1  0.74497882  0.37764859  0.74395779  1
  O  O353  1  0.75007207  0.87820752  0.23594440  1
  O  O354  1  0.75928695  0.89014234  0.74240781  1
  O  O355  1  0.25037915  0.13135634  0.26430223  1
  O  O356  1  0.26342816  0.11074850  0.75897620  1
  O  O357  1  0.26250808  0.62417853  0.24490484  1
  O  O358  1  0.26076998  0.62190611  0.75859190  1
  O  O359  1  0.76292684  0.12205489  0.25073375  1
  O  O360  1  0.75922879  0.11340111  0.75166287  1
  O  O361  1  0.75148354  0.62061621  0.25757452  1
  O  O362  1  0.75783414  0.62535889  0.75874554  1
  O  O363  1  0.36212212  0.12267865  0.37100854  1
  O  O364  1  0.37567466  0.11167677  0.87101987  1
  O  O365  1  0.37764061  0.61653534  0.36641630  1
  O  O366  1  0.36856681  0.62241651  0.87028528  1
  O  O367  1  0.87537819  0.12130958  0.36599380  1
  O  O368  1  0.87465219  0.12042002  0.86513650  1
  O  O369  1  0.86712484  0.62062313  0.37019851  1
  O  O370  1  0.86902865  0.62604296  0.86822258  1
  O  O371  1  0.13836373  0.37421949  0.11495285  1
  O  O372  1  0.12162865  0.39325831  0.61512204  1
  O  O373  1  0.11842692  0.88289448  0.13472617  1
  O  O374  1  0.12137814  0.88656379  0.63622278  1
  O  O375  1  0.61806920  0.37211517  0.13671378  1
  O  O376  1  0.63155252  0.38185942  0.62885420  1
  O  O377  1  0.63228087  0.88028590  0.12376968  1
  O  O378  1  0.63943401  0.88011182  0.62193202  1
  O  O379  1  0.10860959  0.24915315  0.24809223  1
  O  O380  1  0.17930968  0.26242317  0.75514068  1
  O  O381  1  0.11738334  0.75443327  0.25566247  1
  O  O382  1  0.11899027  0.75982109  0.74683793  1
  O  O383  1  0.62338470  0.25807379  0.25797661  1
  O  O384  1  0.61951034  0.25480910  0.75621205  1
  O  O385  1  0.60946867  0.74496797  0.24878461  1
  O  O386  1  0.61154073  0.74496542  0.74406892  1
  O  O387  1  0.37743918  0.24877041  0.23641936  1
  O  O388  1  0.37838962  0.24292225  0.74175803  1
  O  O389  1  0.38239775  0.74432032  0.24100423  1
  O  O390  1  0.38102518  0.74825008  0.74224618  1
  O  O391  1  0.88078871  0.24511240  0.23941780  1
  O  O392  1  0.87008170  0.23680985  0.74411472  1
  O  O393  1  0.88020500  0.74600457  0.24489774  1
  O  O394  1  0.88255201  0.74290624  0.74386172  1
  O  O395  1  0.37876311  0.49514283  0.49941429  1
  O  O396  1  0.37373440  0.49027045  0.99290998  1
  O  O397  1  0.38524822  0.98448970  0.50176817  1
  O  O398  1  0.39090164  1.00204014  0.99317134  1
  O  O399  1  0.87492453  0.49314796  0.49394885  1
  O  O400  1  0.87297400  0.48780329  1.00495727  1
  O  O401  1  0.88507549  0.99909843  0.49586608  1
  O  O402  1  0.88097951  0.99327234  0.99258745  1
  O  O403  1  0.11576112  -0.00070522  0.00483275  1
  O  O404  1  0.11253964  -0.00438194  0.51092751  1
  O  O405  1  0.13157381  0.51596146  0.00907427  1
  O  O406  1  0.12306050  0.51544566  0.50556381  1
  O  O407  1  0.61779954  0.00532513  0.00812276  1
  O  O408  1  0.61772303  0.00580608  0.50563656  1
  O  O409  1  0.62224057  0.51895063  -0.00774894  1
  O  O410  1  0.61660108  0.50523018  0.50589305  1
  O  O411  1  0.36762639  0.36779203  0.11773437  1
  O  O412  1  0.38057974  0.36071669  0.61809152  1
  O  O413  1  0.38185381  0.85773952  0.12071591  1
  O  O414  1  0.37632347  0.86438678  0.61711327  1
  O  O415  1  0.87779750  0.36170164  0.11279625  1
  O  O416  1  0.86977990  0.37261642  0.61958633  1
  O  O417  1  0.87015717  0.86975124  0.11882092  1
  O  O418  1  0.86779108  0.87238441  0.62133601  1
  O  O419  1  0.13713165  0.12750421  0.37272312  1
  O  O420  1  0.13704894  0.12660582  0.87171764  1
  O  O421  1  0.11701020  0.63302032  0.39093731  1
  O  O422  1  0.13287956  0.62866037  0.88217894  1
  O  O423  1  0.62525063  0.13227116  0.38098195  1
  O  O424  1  0.62514584  0.13313547  0.88407638  1
  O  O425  1  0.62946028  0.62580288  0.38505454  1
  O  O426  1  0.63829487  0.62687507  0.87930040  1
