# generated using pymatgen
data_V85Zn86O256
_symmetry_space_group_name_H-M   'P 1'
_cell_length_a   16.91466583
_cell_length_b   16.91290931
_cell_length_c   16.91109113
_cell_angle_alpha   89.91847273
_cell_angle_beta   90.02720524
_cell_angle_gamma   89.97649950
_symmetry_Int_Tables_number   1
_chemical_formula_structural   V85Zn86O256
_chemical_formula_sum   'V85 Zn86 O256'
_cell_volume   4837.85499089
_cell_formula_units_Z   1
loop_
 _symmetry_equiv_pos_site_id
 _symmetry_equiv_pos_as_xyz
  1  'x, y, z'
loop_
 _atom_site_type_symbol
 _atom_site_label
 _atom_site_symmetry_multiplicity
 _atom_site_fract_x
 _atom_site_fract_y
 _atom_site_fract_z
 _atom_site_occupancy
  V  V0  1  0.12578088  -0.00177074  0.62206636  1
  V  V1  1  0.61873270  0.75023505  0.87273332  1
  V  V2  1  0.24602564  0.63641606  0.37223660  1
  V  V3  1  0.37705453  0.75269457  0.11534134  1
  V  V4  1  0.50331133  0.49644726  0.00435479  1
  V  V5  1  0.62806674  0.50237526  0.61806127  1
  V  V6  1  0.24726698  0.12456461  0.36801321  1
  V  V7  1  0.13543035  0.86615653  0.25543761  1
  V  V8  1  0.12318127  0.26565413  0.37108973  1
  V  V9  1  -0.00665130  0.88069839  0.87427404  1
  V  V10  1  0.75698669  0.87278488  0.12910978  1
  V  V11  1  0.50658884  0.62045636  0.12718247  1
  V  V12  1  0.13341597  0.25115152  0.87967730  1
  V  V13  1  0.50151199  0.63192593  0.61833113  1
  V  V14  1  0.37204766  0.49721718  0.37826975  1
  V  V15  1  -0.00138107  0.12525246  0.13228366  1
  V  V16  1  -0.00344006  0.48642273  0.49737353  1
  V  V17  1  0.37439318  0.62409195  0.24769716  1
  V  V18  1  0.87571905  0.12001462  0.75338388  1
  V  V19  1  0.13110928  0.12728030  0.00303515  1
  V  V20  1  0.00144778  0.27016785  0.25529528  1
  V  V21  1  0.11961200  0.63048238  0.49374159  1
  V  V22  1  0.87410261  0.49201375  0.88640122  1
  V  V23  1  0.75122882  0.26572199  0.49876835  1
  V  V24  1  0.50031204  0.12351946  0.12555285  1
  V  V25  1  0.87492885  0.88242241  0.49564109  1
  V  V26  1  0.62618246  0.12401079  0.00153275  1
  V  V27  1  0.12395838  0.50080547  0.62542828  1
  V  V28  1  0.62201295  0.74530468  0.37934584  1
  V  V29  1  0.00572677  0.62353257  0.11600765  1
  V  V30  1  0.75379470  0.74856623  0.00572900  1
  V  V31  1  0.24996730  0.62817921  0.87411366  1
  V  V32  1  0.12588086  0.12585221  0.49736263  1
  V  V33  1  0.12628098  0.87651708  0.74854010  1
  V  V34  1  0.37022939  0.25142406  0.11739739  1
  V  V35  1  0.87670568  0.48875386  0.37759712  1
  V  V36  1  0.62646486  0.62121018  0.00204697  1
  V  V37  1  0.37720744  0.50105524  0.87092497  1
  V  V38  1  0.37489931  0.12677903  0.75240547  1
  V  V39  1  0.23650471  0.49576653  0.24616052  1
  V  V40  1  0.75108913  0.62366599  0.87400483  1
  V  V41  1  0.74639857  0.00037298  0.74970952  1
  V  V42  1  0.50155995  -0.00068540  0.50607704  1
  V  V43  1  0.87481435  0.63466823  0.24555935  1
  V  V44  1  0.37325046  0.12069362  0.24886320  1
  V  V45  1  -0.00429066  -0.00000995  0.00021698  1
  V  V46  1  0.12917319  -0.00153867  0.13392973  1
  V  V47  1  0.62959191  0.37366915  0.74275377  1
  V  V48  1  0.25391675  0.87765367  0.11662368  1
  V  V49  1  0.87098285  0.26159813  0.62232269  1
  V  V50  1  0.37805103  0.63284899  0.74113255  1
  V  V51  1  -0.00450922  0.37375495  0.88958788  1
  V  V52  1  0.75300793  0.49496386  0.74333791  1
  V  V53  1  0.50053735  0.49945037  0.49876072  1
  V  V54  1  0.74775306  0.88046685  0.62364958  1
  V  V55  1  0.24868448  0.00051128  0.74777188  1
  V  V56  1  -0.00106612  0.87375971  0.37241318  1
  V  V57  1  0.87289251  0.87708891  0.00007721  1
  V  V58  1  0.37656408  0.25254035  0.61920987  1
  V  V59  1  0.49661540  0.37238005  0.37627857  1
  V  V60  1  0.75936205  0.00210984  0.25854769  1
  V  V61  1  0.74926872  0.74545540  0.50274947  1
  V  V62  1  0.87680228  0.62322498  0.75106548  1
  V  V63  1  0.25208158  0.25305083  0.49665536  1
  V  V64  1  0.23654315  0.37525554  0.12144504  1
  V  V65  1  0.62330748  0.87730568  0.25398105  1
  V  V66  1  0.74649478  0.49902815  0.24361385  1
  V  V67  1  0.12304243  0.37460343  0.75067877  1
  V  V68  1  0.24901801  0.75322909  0.51741927  1
  V  V69  1  0.74902484  0.62300926  0.37945733  1
  V  V70  1  0.37049442  0.87163255  0.51463502  1
  V  V71  1  0.50005983  0.37422294  0.87394554  1
  V  V72  1  0.62924989  0.12105031  0.50435476  1
  V  V73  1  0.87270507  0.25854801  0.12309520  1
  V  V74  1  0.62060196  0.87665064  0.74862383  1
  V  V75  1  0.38031891  -0.01589494  0.87648133  1
  V  V76  1  0.62884792  0.24843530  0.87383669  1
  V  V77  1  0.62312836  0.37544689  0.24157562  1
  V  V78  1  0.50084440  0.25049093  0.74774213  1
  V  V79  1  -0.00260324  0.12466213  0.62300367  1
  V  V80  1  0.75578757  0.11456108  0.88033443  1
  V  V81  1  0.25295621  0.37583555  0.61929879  1
  V  V82  1  -0.00045842  0.62592144  0.62444705  1
  V  V83  1  -0.00142946  0.74797069  0.75141707  1
  V  V84  1  0.36982566  -0.00346844  0.37534269  1
  Zn  Zn85  1  0.62467272  0.00079953  0.12940595  1
  Zn  Zn86  1  -0.00903528  0.00744690  0.48847516  1
  Zn  Zn87  1  0.12649918  0.75348309  0.88055941  1
  Zn  Zn88  1  0.75934415  0.12131054  0.38300059  1
  Zn  Zn89  1  0.24962169  0.75182072  -0.00233490  1
  Zn  Zn90  1  0.49850805  0.75020508  0.25291121  1
  Zn  Zn91  1  0.50501453  0.12252990  0.62652103  1
  Zn  Zn92  1  0.25318227  0.12721547  0.88006268  1
  Zn  Zn93  1  0.49465813  0.87171225  0.37716102  1
  Zn  Zn94  1  0.36992171  0.37070527  -0.00234103  1
  Zn  Zn95  1  0.87378845  0.75101117  0.62544083  1
  Zn  Zn96  1  0.88136363  0.12392775  0.26006018  1
  Zn  Zn97  1  0.12903856  0.61880304  0.00823466  1
  Zn  Zn98  1  0.75996457  0.25565781  -0.00646866  1
  Zn  Zn99  1  0.62584148  0.24774308  0.37475833  1
  Zn  Zn100  1  0.25314897  0.50007486  0.74639960  1
  Zn  Zn101  1  0.50066686  0.24859574  0.25139699  1
  Zn  Zn102  1  0.00241426  0.74985829  0.24979113  1
  Zn  Zn103  1  0.74755950  0.38206349  0.11383181  1
  Zn  Zn104  1  0.49826947  0.75547205  0.74603574  1
  Zn  Zn105  1  -0.00113687  0.24852946  0.75176058  1
  Zn  Zn106  1  0.48996054  -0.01340322  0.00317896  1
  Zn  Zn107  1  0.18520806  0.19218656  0.18878230  1
  Zn  Zn108  1  0.18773707  0.18793877  0.68904378  1
  Zn  Zn109  1  0.18757877  0.68729082  0.18235200  1
  Zn  Zn110  1  0.18364569  0.68386117  0.69408615  1
  Zn  Zn111  1  0.68802827  0.18854062  0.19134511  1
  Zn  Zn112  1  0.69082730  0.18626916  0.68347782  1
  Zn  Zn113  1  0.68766977  0.68863723  0.19098957  1
  Zn  Zn114  1  0.68652398  0.68543459  0.68592717  1
  Zn  Zn115  1  0.31353540  0.31171817  0.30569610  1
  Zn  Zn116  1  0.31127588  0.31435872  0.80933192  1
  Zn  Zn117  1  0.31287071  0.81280318  0.30956043  1
  Zn  Zn118  1  0.31042993  0.81136266  0.80449592  1
  Zn  Zn119  1  0.81133026  0.31056019  0.30963310  1
  Zn  Zn120  1  0.81308078  0.30833487  0.81034051  1
  Zn  Zn121  1  0.81135163  0.81500608  0.31872638  1
  Zn  Zn122  1  0.80986422  0.81321534  0.81568761  1
  Zn  Zn123  1  0.18825185  0.44369431  0.43931568  1
  Zn  Zn124  1  0.18669851  0.44303080  0.94213411  1
  Zn  Zn125  1  0.18800243  0.93626852  0.43714974  1
  Zn  Zn126  1  0.18445078  0.94079488  0.93658809  1
  Zn  Zn127  1  0.68257432  0.43798055  0.43166023  1
  Zn  Zn128  1  0.68762055  0.43532949  0.93504230  1
  Zn  Zn129  1  0.68467359  0.93623019  0.43793886  1
  Zn  Zn130  1  0.65143927  0.91817900  0.95575362  1
  Zn  Zn131  1  0.31243264  0.05836274  0.06126253  1
  Zn  Zn132  1  0.31254011  0.06365979  0.56261357  1
  Zn  Zn133  1  0.31536708  0.55914884  0.06108421  1
  Zn  Zn134  1  0.31267568  0.56440098  0.55966201  1
  Zn  Zn135  1  0.81275531  0.06367806  0.06969003  1
  Zn  Zn136  1  0.81020950  0.06454306  0.56492149  1
  Zn  Zn137  1  0.81740420  0.56410063  0.06551984  1
  Zn  Zn138  1  0.81483610  0.56092722  0.56187938  1
  Zn  Zn139  1  0.43332311  0.43629756  0.18856136  1
  Zn  Zn140  1  0.43926668  0.43851572  0.68489970  1
  Zn  Zn141  1  0.43703328  0.93830899  0.19014105  1
  Zn  Zn142  1  0.43599087  0.93875896  0.68775456  1
  Zn  Zn143  1  0.93388072  0.44373592  0.18799769  1
  Zn  Zn144  1  0.94216061  0.43902242  0.69198024  1
  Zn  Zn145  1  0.94020158  0.93381749  0.18792360  1
  Zn  Zn146  1  0.93447838  0.93978941  0.68463520  1
  Zn  Zn147  1  0.06357796  0.05956435  0.31324988  1
  Zn  Zn148  1  0.06121280  0.06424695  0.81501403  1
  Zn  Zn149  1  0.05762743  0.56227198  0.31302598  1
  Zn  Zn150  1  0.07595336  0.54846994  0.84048469  1
  Zn  Zn151  1  0.56296019  0.06232272  0.31955772  1
  Zn  Zn152  1  0.56302761  0.06148652  0.81331367  1
  Zn  Zn153  1  0.56414159  0.56101684  0.31326522  1
  Zn  Zn154  1  0.56332576  0.56342739  0.80917000  1
  Zn  Zn155  1  0.43850333  0.18516289  0.43821061  1
  Zn  Zn156  1  0.44032031  0.18392405  0.93809415  1
  Zn  Zn157  1  0.43277984  0.68618491  0.43982192  1
  Zn  Zn158  1  0.43804306  0.68556157  0.93621352  1
  Zn  Zn159  1  0.93458099  0.19197467  0.43561926  1
  Zn  Zn160  1  0.94199269  0.18728296  0.93960902  1
  Zn  Zn161  1  0.93529595  0.69226036  0.43319612  1
  Zn  Zn162  1  0.93585470  0.68953868  0.93607606  1
  Zn  Zn163  1  0.06108426  0.31061478  0.06451397  1
  Zn  Zn164  1  0.06379107  0.30879328  0.56334245  1
  Zn  Zn165  1  0.06226339  0.80336085  0.06528528  1
  Zn  Zn166  1  0.06160039  0.81336329  0.56111752  1
  Zn  Zn167  1  0.56290490  0.30824658  0.06173274  1
  Zn  Zn168  1  0.56391136  0.31474498  0.55932027  1
  Zn  Zn169  1  0.56452210  0.80888582  0.06853201  1
  Zn  Zn170  1  0.56525171  0.81676857  0.56043412  1
  O  O171  1  0.12084465  0.11881722  0.12192783  1
  O  O172  1  0.11758810  0.11923872  0.62146747  1
  O  O173  1  0.11277240  0.62105130  0.12553307  1
  O  O174  1  0.11934184  0.61986336  0.61714858  1
  O  O175  1  0.61628952  0.12845842  0.12048428  1
  O  O176  1  0.62284214  0.12917259  0.61136199  1
  O  O177  1  0.61319541  0.62836364  0.12252507  1
  O  O178  1  0.61726118  0.61025709  0.62942783  1
  O  O179  1  0.38515468  0.38347741  0.36589749  1
  O  O180  1  0.38054251  0.38185365  0.87473408  1
  O  O181  1  0.37269454  0.88282572  0.38023966  1
  O  O182  1  0.37579857  0.88562981  0.86595947  1
  O  O183  1  0.87072076  0.39031322  0.37132972  1
  O  O184  1  0.88668866  0.37517603  0.87071049  1
  O  O185  1  0.88322286  0.87538753  0.38366260  1
  O  O186  1  0.88600214  0.87474722  0.88058660  1
  O  O187  1  0.26085156  0.00982158  0.38100662  1
  O  O188  1  0.25762506  0.00188888  0.86430428  1
  O  O189  1  0.25572240  0.50628805  0.36596140  1
  O  O190  1  0.26611216  0.50505810  0.87025991  1
  O  O191  1  0.74822028  -0.00333902  0.36179175  1
  O  O192  1  0.74977841  0.01261588  0.86848356  1
  O  O193  1  0.75752168  0.50644843  0.37183220  1
  O  O194  1  0.75525932  0.50333621  0.86259965  1
  O  O195  1  0.25492052  0.49245643  0.13771898  1
  O  O196  1  0.24392276  0.49261008  0.62257190  1
  O  O197  1  0.24188694  0.99189882  0.12331177  1
  O  O198  1  0.24076764  1.00750849  0.63759562  1
  O  O199  1  0.75578790  0.49967030  0.13916457  1
  O  O200  1  0.74388949  0.50382497  0.63402477  1
  O  O201  1  0.74673436  0.99097841  0.13718264  1
  O  O202  1  0.75138297  0.99228180  0.63554626  1
  O  O203  1  0.00055667  0.36844108  0.24831539  1
  O  O204  1  0.01341672  0.36964461  0.75154651  1
  O  O205  1  0.01170831  0.87237065  0.25405334  1
  O  O206  1  0.00340437  0.87304958  0.75577088  1
  O  O207  1  0.50550870  0.37519200  0.25622735  1
  O  O208  1  0.50720766  0.36987403  0.75396453  1
  O  O209  1  0.50878095  0.87281622  0.25466064  1
  O  O210  1  0.51556743  0.87528591  0.74115800  1
  O  O211  1  0.49275727  0.12473607  0.24432376  1
  O  O212  1  0.49372698  0.13147887  0.74724574  1
  O  O213  1  0.49248035  0.62263212  0.24339458  1
  O  O214  1  0.49483074  0.62536617  0.73824471  1
  O  O215  1  1.00394304  0.12699230  0.23979647  1
  O  O216  1  0.99237737  0.12597711  0.74364457  1
  O  O217  1  0.98521197  0.62860748  0.25290061  1
  O  O218  1  0.99603904  0.63368832  0.74814650  1
  O  O219  1  0.37596070  0.24730068  0.01239842  1
  O  O220  1  0.36982713  0.24469415  0.51244812  1
  O  O221  1  0.37739060  0.74775074  0.01204511  1
  O  O222  1  0.35919432  0.75659163  0.49686009  1
  O  O223  1  0.88056370  0.24560074  0.01950364  1
  O  O224  1  0.86490423  0.25100364  0.51184837  1
  O  O225  1  0.86006537  0.75823794  -0.00750129  1
  O  O226  1  0.86460138  0.76055812  0.50115072  1
  O  O227  1  0.13072713  0.24402967  0.49197748  1
  O  O228  1  0.11818546  0.23943055  0.99329707  1
  O  O229  1  0.13621926  0.74331092  0.50412192  1
  O  O230  1  0.12899552  0.73947156  0.99631370  1
  O  O231  1  0.63825552  0.24612918  0.50078152  1
  O  O232  1  0.62479785  0.23857968  0.99179996  1
  O  O233  1  0.63453233  0.75558747  0.48797520  1
  O  O234  1  0.63559704  0.74066789  0.99236968  1
  O  O235  1  0.49087203  0.23781904  0.12618847  1
  O  O236  1  0.49185935  0.25162778  0.62894035  1
  O  O237  1  0.49451030  0.74120010  0.13013866  1
  O  O238  1  0.50888515  0.73523367  0.62075339  1
  O  O239  1  0.99478530  0.24580683  0.13656449  1
  O  O240  1  0.99094343  0.23989089  0.62462838  1
  O  O241  1  0.99894814  0.73386301  0.13333428  1
  O  O242  1  0.99784295  0.74657178  0.63599971  1
  O  O243  1  0.00684700  0.25160448  0.36269692  1
  O  O244  1  0.00686853  0.26031920  0.87342838  1
  O  O245  1  0.00034020  0.76509568  0.37158762  1
  O  O246  1  0.00121370  0.75766246  0.86410409  1
  O  O247  1  0.49899298  0.25965198  0.37479959  1
  O  O248  1  0.50731348  0.25327869  0.86777286  1
  O  O249  1  0.50761793  0.74744556  0.37547416  1
  O  O250  1  0.51493642  0.74298745  0.87188852  1
  O  O251  1  0.24671848  0.13247180  0.48947056  1
  O  O252  1  0.23536836  0.11944046  0.99935471  1
  O  O253  1  0.24343798  0.63461792  0.49311583  1
  O  O254  1  0.25329059  0.62419184  0.98735514  1
  O  O255  1  0.74362328  0.13236506  0.50168777  1
  O  O256  1  0.74889011  0.13129271  0.99478001  1
  O  O257  1  0.75467697  0.63562230  0.49435126  1
  O  O258  1  0.74630406  0.62967495  0.99776744  1
  O  O259  1  0.25252182  0.38581322  0.01578181  1
  O  O260  1  0.24565470  0.37027632  0.51150919  1
  O  O261  1  0.24342704  0.87451818  0.01253927  1
  O  O262  1  0.25218910  0.86021345  0.49866705  1
  O  O263  1  0.74229172  0.36710571  0.00194905  1
  O  O264  1  0.74425346  0.36449533  0.49997655  1
  O  O265  1  0.74894270  0.86879906  0.01032850  1
  O  O266  1  0.75424368  0.86953051  0.50574730  1
  O  O267  1  0.13839575  0.50227744  0.25588939  1
  O  O268  1  0.12741879  0.49087478  0.74481615  1
  O  O269  1  0.12371883  0.99041049  0.23835913  1
  O  O270  1  0.13010386  0.99752774  0.74511337  1
  O  O271  1  0.63576637  0.49109389  0.25681607  1
  O  O272  1  0.63283966  0.49280525  0.74332773  1
  O  O273  1  0.63185949  0.99211370  0.25211062  1
  O  O274  1  0.63686225  0.99274972  0.75536867  1
  O  O275  1  0.37672668  0.01210845  0.25877079  1
  O  O276  1  0.36786844  0.00651532  0.75550272  1
  O  O277  1  0.36859451  0.51002879  0.25794277  1
  O  O278  1  0.37820175  0.50816235  0.75615237  1
  O  O279  1  0.86196553  -0.00136397  0.24578586  1
  O  O280  1  0.86565591  0.01215265  0.74651105  1
  O  O281  1  0.86741208  0.50961895  0.26275456  1
  O  O282  1  0.86737044  0.50346908  0.75317035  1
  O  O283  1  0.13202997  0.36460735  0.37849095  1
  O  O284  1  0.11741079  0.36890515  0.86948019  1
  O  O285  1  0.12456848  0.87825650  0.35980356  1
  O  O286  1  0.11341834  0.87565274  0.86634253  1
  O  O287  1  0.61144931  0.37384268  0.36615846  1
  O  O288  1  0.61881243  0.36976409  0.86145729  1
  O  O289  1  0.62258260  0.86614850  0.36784849  1
  O  O290  1  0.64163151  0.86036697  0.85827206  1
  O  O291  1  0.37775247  0.12706520  0.13075501  1
  O  O292  1  0.37503769  0.13316750  0.63625432  1
  O  O293  1  0.38325525  0.62998310  0.13043298  1
  O  O294  1  0.38715418  0.61676195  0.63080809  1
  O  O295  1  0.88440268  0.13367810  0.13369531  1
  O  O296  1  0.88231888  0.13104215  0.63061985  1
  O  O297  1  0.87513395  0.62801642  0.14214064  1
  O  O298  1  0.88194246  0.62661673  0.63307879  1
  O  O299  1  0.25417372  0.26616485  0.13167317  1
  O  O300  1  0.25562536  0.25621793  0.61976736  1
  O  O301  1  0.26006329  0.75634375  0.12242726  1
  O  O302  1  0.24865269  0.74443655  0.61560370  1
  O  O303  1  0.76687299  0.24876441  0.12961301  1
  O  O304  1  0.76282732  0.24976551  0.61591634  1
  O  O305  1  0.74543082  0.75720627  0.11714129  1
  O  O306  1  0.75024435  0.75476626  0.61683014  1
  O  O307  1  0.24554727  0.24563178  0.37651479  1
  O  O308  1  0.23767173  0.25126148  0.87390606  1
  O  O309  1  0.25150106  0.73792889  0.37636030  1
  O  O310  1  0.25434606  0.74349932  0.87763665  1
  O  O311  1  0.75130763  0.25013046  0.38926357  1
  O  O312  1  0.74345335  0.23822872  0.87193502  1
  O  O313  1  0.74385744  0.74297658  0.38312674  1
  O  O314  1  0.74352273  0.74070813  0.88111801  1
  O  O315  1  0.00719468  0.11845620  0.01178620  1
  O  O316  1  0.00639270  0.12557756  0.50656308  1
  O  O317  1  -0.00630189  0.62949150  0.01352295  1
  O  O318  1  0.00579099  0.62501987  0.50317754  1
  O  O319  1  0.50839723  0.11912764  0.00769321  1
  O  O320  1  0.50739848  0.11738462  0.50168427  1
  O  O321  1  0.50533210  0.61773594  0.00748753  1
  O  O322  1  0.49461951  0.61153882  0.50493669  1
  O  O323  1  0.50134176  0.38750040  0.49138561  1
  O  O324  1  0.49932847  0.38073041  0.99318883  1
  O  O325  1  0.49014345  0.88043571  0.49880976  1
  O  O326  1  0.54421375  0.88842410  0.99495425  1
  O  O327  1  1.00509065  0.38735687  0.50408722  1
  O  O328  1  1.00265746  0.37572146  0.98810283  1
  O  O329  1  0.99122593  0.87587193  0.49349048  1
  O  O330  1  0.99622139  0.87989461  0.99474211  1
  O  O331  1  0.49264664  0.49625947  0.38043957  1
  O  O332  1  0.49286821  0.49651237  0.87830204  1
  O  O333  1  0.48551799  1.00029094  0.38632276  1
  O  O334  1  0.48258764  1.00399499  0.87255528  1
  O  O335  1  0.98526415  0.50375861  0.38214321  1
  O  O336  1  0.98539458  0.48015288  0.86188301  1
  O  O337  1  1.00830438  0.98346438  0.37674677  1
  O  O338  1  1.00417675  0.99315537  0.88673887  1
  O  O339  1  0.00721084  0.00671861  0.12159562  1
  O  O340  1  0.00538565  0.01215575  0.62261629  1
  O  O341  1  -0.01120740  0.52358867  0.13182504  1
  O  O342  1  0.00369585  0.50672739  0.61777089  1
  O  O343  1  0.50067470  0.01095607  0.12366767  1
  O  O344  1  0.49270586  0.00333757  0.61088215  1
  O  O345  1  0.49311352  0.50739496  0.11588764  1
  O  O346  1  0.50726823  0.50423534  0.61591406  1
  O  O347  1  0.25363171  0.38881058  0.24036157  1
  O  O348  1  0.23993789  0.37594352  0.73948440  1
  O  O349  1  0.23992425  0.87326752  0.24099790  1
  O  O350  1  0.23491318  0.88292826  0.75128729  1
  O  O351  1  0.74125047  0.38260115  0.24912502  1
  O  O352  1  0.74195230  0.38247955  0.75274894  1
  O  O353  1  0.74637053  0.88217012  0.24798868  1
  O  O354  1  0.74798210  0.88279107  0.74287661  1
  O  O355  1  0.25517396  0.12921550  0.26055422  1
  O  O356  1  0.25699505  0.11880783  0.75362938  1
  O  O357  1  0.25403033  0.61643469  0.25349150  1
  O  O358  1  0.26432874  0.62098033  0.74892091  1
  O  O359  1  0.74898529  0.10975103  0.25192069  1
  O  O360  1  0.75533218  0.11783984  0.75456855  1
  O  O361  1  0.75696392  0.61891170  0.25675347  1
  O  O362  1  0.75656678  0.61713965  0.75372590  1
  O  O363  1  0.36754797  0.12103356  0.36805151  1
  O  O364  1  0.37265072  0.12586074  0.86267124  1
  O  O365  1  0.36613026  0.61888495  0.36677931  1
  O  O366  1  0.37085737  0.61965897  0.86506133  1
  O  O367  1  0.87393669  0.12365236  0.37303941  1
  O  O368  1  0.86958716  0.13263202  0.86584926  1
  O  O369  1  0.86377808  0.62086363  0.36891692  1
  O  O370  1  0.87139869  0.61523861  0.86869980  1
  O  O371  1  0.13703175  0.37474271  0.12285847  1
  O  O372  1  0.13114188  0.37785637  0.63172005  1
  O  O373  1  0.13083814  0.87993654  0.13361577  1
  O  O374  1  0.11513108  0.89102835  0.63216959  1
  O  O375  1  0.62370674  0.37070562  0.13736147  1
  O  O376  1  0.61956579  0.38544771  0.63549824  1
  O  O377  1  0.63676100  0.87202200  0.14261654  1
  O  O378  1  0.63947055  0.87054379  0.63205462  1
  O  O379  1  0.11046062  0.24992521  0.25648311  1
  O  O380  1  0.12310753  0.25599122  0.75816401  1
  O  O381  1  0.12715957  0.76334486  0.24725704  1
  O  O382  1  0.11567082  0.76310179  0.74647771  1
  O  O383  1  0.62269516  0.25868259  0.25523102  1
  O  O384  1  0.62292445  0.25622398  0.75102043  1
  O  O385  1  0.62526493  0.75594137  0.26384136  1
  O  O386  1  0.62508759  0.75621754  0.75546761  1
  O  O387  1  0.37639307  0.23722076  0.23933824  1
  O  O388  1  0.37824212  0.24426774  0.74167228  1
  O  O389  1  0.37498269  0.73645042  0.24403130  1
  O  O390  1  0.38080382  0.73826571  0.74942792  1
  O  O391  1  0.88814779  0.24942438  0.24464855  1
  O  O392  1  0.87417337  0.23854136  0.73757193  1
  O  O393  1  0.86985910  0.73642041  0.25697079  1
  O  O394  1  0.88132447  0.74350951  0.75102966  1
  O  O395  1  0.37842397  0.50236373  0.48488566  1
  O  O396  1  0.38788538  0.49924264  0.98970382  1
  O  O397  1  0.37640506  0.99207205  0.49503509  1
  O  O398  1  0.37346793  1.00060347  0.98192944  1
  O  O399  1  0.88140944  0.50335690  0.48758131  1
  O  O400  1  0.86772373  0.50018871  0.98551980  1
  O  O401  1  0.87392024  0.98681632  0.50752641  1
  O  O402  1  0.88786682  0.99556800  1.00859818  1
  O  O403  1  0.11420880  0.00502816  0.00997817  1
  O  O404  1  0.12705622  0.00682274  0.50838089  1
  O  O405  1  0.11329711  0.52413136  -0.05023623  1
  O  O406  1  0.11683355  0.51007409  0.50496636  1
  O  O407  1  0.63638884  0.01891247  0.00814751  1
  O  O408  1  0.61448038  0.00626987  0.49568211  1
  O  O409  1  0.61151693  0.50641258  -0.00850716  1
  O  O410  1  0.61724846  0.49702485  0.50755893  1
  O  O411  1  0.36800995  0.36565668  0.12314954  1
  O  O412  1  0.36489724  0.36599022  0.63140079  1
  O  O413  1  0.36684044  0.86592211  0.13321781  1
  O  O414  1  0.37192879  0.87708714  0.61453202  1
  O  O415  1  0.87362960  0.36212422  0.13079982  1
  O  O416  1  0.88143706  0.35947165  0.63254053  1
  O  O417  1  0.86398134  0.87553984  0.11983849  1
  O  O418  1  0.86404705  0.87173505  0.62012271  1
  O  O419  1  0.13266673  0.13105631  0.37733273  1
  O  O420  1  0.12428258  0.13360462  0.88398094  1
  O  O421  1  0.13083741  0.62002072  0.38597245  1
  O  O422  1  0.14844081  0.63869309  0.84494188  1
  O  O423  1  0.62963250  0.12844431  0.38879271  1
  O  O424  1  0.63268695  0.12835268  0.88179068  1
  O  O425  1  0.63909082  0.63022364  0.37100475  1
  O  O426  1  0.63267749  0.62901884  0.87861809  1
