# generated using pymatgen
data_V85Zn86O256
_symmetry_space_group_name_H-M   'P 1'
_cell_length_a   16.93874045
_cell_length_b   16.92868007
_cell_length_c   16.93711422
_cell_angle_alpha   89.95664342
_cell_angle_beta   90.00792622
_cell_angle_gamma   89.94312922
_symmetry_Int_Tables_number   1
_chemical_formula_structural   V85Zn86O256
_chemical_formula_sum   'V85 Zn86 O256'
_cell_volume   4856.72244465
_cell_formula_units_Z   1
loop_
 _symmetry_equiv_pos_site_id
 _symmetry_equiv_pos_as_xyz
  1  'x, y, z'
loop_
 _atom_site_type_symbol
 _atom_site_label
 _atom_site_symmetry_multiplicity
 _atom_site_fract_x
 _atom_site_fract_y
 _atom_site_fract_z
 _atom_site_occupancy
  V  V0  1  0.12591309  0.38646819  0.75119795  1
  V  V1  1  0.62930690  0.37817304  0.73401189  1
  V  V2  1  0.48821508  0.87227953  0.37989621  1
  V  V3  1  0.50261886  0.37725015  0.87609287  1
  V  V4  1  0.74905975  0.12429882  0.87257155  1
  V  V5  1  0.49719458  0.74575314  0.25052260  1
  V  V6  1  0.12125182  0.75557700  0.87658125  1
  V  V7  1  0.00378004  0.61973363  0.61079269  1
  V  V8  1  -0.00389755  0.50303954  0.01657852  1
  V  V9  1  0.75388108  0.49763160  0.25137043  1
  V  V10  1  0.50100132  0.61558697  0.62745395  1
  V  V11  1  0.25075365  0.00290165  0.25212439  1
  V  V12  1  0.11709242  0.01459752  0.12619032  1
  V  V13  1  0.13796703  0.36947118  0.24802848  1
  V  V14  1  0.25384210  0.25263981  0.49405255  1
  V  V15  1  0.75382548  0.12192522  0.37821260  1
  V  V16  1  0.88068082  0.37621723  0.50367677  1
  V  V17  1  0.00199353  0.87894284  0.87752734  1
  V  V18  1  0.62455751  0.50090196  0.12575824  1
  V  V19  1  0.36881888  0.26396388  0.10779000  1
  V  V20  1  0.25137829  0.87595120  0.12448790  1
  V  V21  1  0.74893299  0.24811582  0.00116932  1
  V  V22  1  0.87644849  0.62317337  0.74829379  1
  V  V23  1  0.49740923  0.49797429  -0.00166718  1
  V  V24  1  0.13339730  0.24719050  0.88794876  1
  V  V25  1  0.88125245  0.74525033  0.12429675  1
  V  V26  1  0.24372988  0.62731117  0.86528511  1
  V  V27  1  0.49852422  0.12281356  0.12294488  1
  V  V28  1  0.87591986  0.36689332  0.00081607  1
  V  V29  1  0.61774616  0.75415822  0.87479010  1
  V  V30  1  0.74943964  0.36770804  0.12504823  1
  V  V31  1  0.36295870  0.62247784  0.24956482  1
  V  V32  1  0.74890378  0.49612554  0.73616499  1
  V  V33  1  0.00575651  0.25197039  0.74957156  1
  V  V34  1  0.87379832  0.74880464  0.62412404  1
  V  V35  1  0.11991788  0.62940623  0.00757248  1
  V  V36  1  0.75009854  0.62477336  0.87287793  1
  V  V37  1  0.62376618  0.62532800  0.00042551  1
  V  V38  1  0.61901970  0.87827089  0.74950109  1
  V  V39  1  0.37939817  -0.01380329  0.86849930  1
  V  V40  1  0.25555074  0.75854707  -0.00169868  1
  V  V41  1  0.12946274  0.50296287  0.60648507  1
  V  V42  1  0.01009219  0.35813531  0.37456732  1
  V  V43  1  0.87739547  0.49958249  0.87529341  1
  V  V44  1  0.01237304  0.11754673  0.62638834  1
  V  V45  1  0.49656810  0.24823429  0.24850282  1
  V  V46  1  0.24418979  0.62164736  0.38626048  1
  V  V47  1  0.49126057  0.75056562  0.75335569  1
  V  V48  1  0.62520742  0.24732986  0.37658857  1
  V  V49  1  -0.00152928  0.75268383  0.25263726  1
  V  V50  1  0.75101621  0.74988327  -0.00020436  1
  V  V51  1  0.00043738  0.75169985  0.74787835  1
  V  V52  1  0.49351853  0.25133577  0.74395475  1
  V  V53  1  0.12166417  0.74790793  0.38122090  1
  V  V54  1  0.49432849  -0.01540619  -0.00353769  1
  V  V55  1  0.25660564  0.37130171  0.63301846  1
  V  V56  1  0.87885491  0.87863432  0.49308595  1
  V  V57  1  0.62268683  0.12204681  -0.00171911  1
  V  V58  1  0.74393104  0.87909531  0.62410836  1
  V  V59  1  0.89098160  0.49852923  0.37588757  1
  V  V60  1  0.11823471  0.87703998  0.25451126  1
  V  V61  1  0.62307339  0.74732099  0.37730253  1
  V  V62  1  0.49620690  -0.00596958  0.50486143  1
  V  V63  1  0.74820453  -0.00128520  0.25239434  1
  V  V64  1  0.74749713  0.74905982  0.50074664  1
  V  V65  1  0.87561707  0.12667699  0.74582265  1
  V  V66  1  0.37086423  0.49761759  0.37602335  1
  V  V67  1  0.75354209  0.25380149  0.50691921  1
  V  V68  1  0.49240131  0.12430073  0.62451245  1
  V  V69  1  0.75088662  0.62102021  0.37476716  1
  V  V70  1  0.50011190  0.37622829  0.37734217  1
  V  V71  1  0.62565841  0.25114089  0.87165918  1
  V  V72  1  0.62567101  0.11801247  0.50862125  1
  V  V73  1  0.74643947  0.00004436  0.74742825  1
  V  V74  1  0.88327941  0.61734578  0.24499098  1
  V  V75  1  0.87683403  0.13246494  0.23628737  1
  V  V76  1  -0.00142720  0.01372173  0.00567274  1
  V  V77  1  0.14540119  0.49896880  0.13109364  1
  V  V78  1  0.37254304  0.75605362  0.61547342  1
  V  V79  1  0.87471146  0.00000367  0.87462236  1
  V  V80  1  0.74985212  0.87397696  0.12597890  1
  V  V81  1  0.62595863  0.37442043  0.25101428  1
  V  V82  1  0.34647251  0.48354522  0.88648601  1
  V  V83  1  0.12611408  0.12627824  0.49030831  1
  V  V84  1  0.24086526  0.00377940  0.74579726  1
  Zn  Zn85  1  0.12105343  0.88359153  0.74219790  1
  Zn  Zn86  1  0.26000915  0.13146431  0.88951650  1
  Zn  Zn87  1  0.37169799  0.00238140  0.37806987  1
  Zn  Zn88  1  0.36841589  0.61382824  0.74997950  1
  Zn  Zn89  1  0.01462020  -0.00834711  0.50025233  1
  Zn  Zn90  1  0.50809255  0.49176239  0.50963785  1
  Zn  Zn91  1  0.62979470  0.61494171  0.51020642  1
  Zn  Zn92  1  0.00162435  0.37580821  0.87596347  1
  Zn  Zn93  1  0.49598572  0.62467694  0.12639171  1
  Zn  Zn94  1  0.37271891  0.12746024  0.75234480  1
  Zn  Zn95  1  0.00838173  0.23829906  0.23494928  1
  Zn  Zn96  1  0.62264948  0.87392016  0.25201091  1
  Zn  Zn97  1  0.62207033  -0.00361176  0.12476822  1
  Zn  Zn98  1  0.87613765  0.87521485  0.00115171  1
  Zn  Zn99  1  0.25107002  0.75836928  0.49643211  1
  Zn  Zn100  1  0.87729787  0.25346991  0.62584446  1
  Zn  Zn101  1  0.24235209  0.88715545  0.61278007  1
  Zn  Zn102  1  0.24978030  0.13311055  0.36844496  1
  Zn  Zn103  1  0.37487204  0.12442912  0.25084893  1
  Zn  Zn104  1  0.37553792  0.75206358  0.12231413  1
  Zn  Zn105  1  0.88624121  -0.00263570  0.37100917  1
  Zn  Zn106  1  0.37889136  0.37178183  0.50786058  1
  Zn  Zn107  1  0.19382466  0.19075583  0.17958975  1
  Zn  Zn108  1  0.18939822  0.18998151  0.69196462  1
  Zn  Zn109  1  0.18517429  0.68830408  0.18795241  1
  Zn  Zn110  1  0.18276267  0.69266301  0.68051669  1
  Zn  Zn111  1  0.68545119  0.18432383  0.18816424  1
  Zn  Zn112  1  0.68467537  0.18981707  0.68544237  1
  Zn  Zn113  1  0.68928546  0.68658371  0.18982472  1
  Zn  Zn114  1  0.68496015  0.68781309  0.68980373  1
  Zn  Zn115  1  0.31670730  0.31141773  0.31097087  1
  Zn  Zn116  1  0.31163358  0.31430607  0.81723638  1
  Zn  Zn117  1  0.30731599  0.81092412  0.31193444  1
  Zn  Zn118  1  0.30854490  0.81773090  0.80783807  1
  Zn  Zn119  1  0.81514998  0.31123203  0.31890154  1
  Zn  Zn120  1  0.81321858  0.31371883  0.81055162  1
  Zn  Zn121  1  0.81130342  0.80940007  0.31187768  1
  Zn  Zn122  1  0.81253423  0.81339889  0.81236728  1
  Zn  Zn123  1  0.19086540  0.43265172  0.43534630  1
  Zn  Zn124  1  0.17789408  0.44143645  0.93712515  1
  Zn  Zn125  1  0.18703186  0.93742972  0.43783687  1
  Zn  Zn126  1  0.20959026  0.97467596  0.96029277  1
  Zn  Zn127  1  0.69052469  0.43805539  0.44211955  1
  Zn  Zn128  1  0.68755235  0.43797324  0.93267067  1
  Zn  Zn129  1  0.68289232  0.93594241  0.43701415  1
  Zn  Zn130  1  0.68470504  0.93609189  0.93738220  1
  Zn  Zn131  1  0.31713473  0.06729071  0.06419949  1
  Zn  Zn132  1  0.31395542  0.06578305  0.56104234  1
  Zn  Zn133  1  0.31143297  0.57060679  0.05769925  1
  Zn  Zn134  1  0.31638961  0.56055527  0.56229869  1
  Zn  Zn135  1  0.81110611  0.05957104  0.06174837  1
  Zn  Zn136  1  0.81536727  0.06253534  0.56640058  1
  Zn  Zn137  1  0.81086458  0.55990547  0.06417075  1
  Zn  Zn138  1  0.81776776  0.56100063  0.55791172  1
  Zn  Zn139  1  0.43490630  0.43946082  0.18872783  1
  Zn  Zn140  1  0.43048380  0.44018352  0.70393204  1
  Zn  Zn141  1  0.43482861  0.93417730  0.18861831  1
  Zn  Zn142  1  0.43863392  0.93751162  0.68412453  1
  Zn  Zn143  1  0.95192471  0.39815059  0.17429904  1
  Zn  Zn144  1  0.94339452  0.43967641  0.68486148  1
  Zn  Zn145  1  0.93427711  0.93848311  0.18977211  1
  Zn  Zn146  1  0.93506642  0.93827760  0.68318454  1
  Zn  Zn147  1  0.05865911  0.06161118  0.31724677  1
  Zn  Zn148  1  0.06391501  0.06819534  0.81864335  1
  Zn  Zn149  1  0.06552887  0.56193352  0.30675459  1
  Zn  Zn150  1  0.06080946  0.56558053  0.81319619  1
  Zn  Zn151  1  0.56283196  0.06004606  0.31599663  1
  Zn  Zn152  1  0.55846638  0.06113328  0.81225031  1
  Zn  Zn153  1  0.56169070  0.56187439  0.31550672  1
  Zn  Zn154  1  0.56273938  0.56213773  0.80952939  1
  Zn  Zn155  1  0.43205887  0.18590817  0.43909539  1
  Zn  Zn156  1  0.43911424  0.18359266  0.93364303  1
  Zn  Zn157  1  0.43808883  0.67961285  0.43994452  1
  Zn  Zn158  1  0.43274976  0.68213451  0.93436081  1
  Zn  Zn159  1  0.93944135  0.18439467  0.43635380  1
  Zn  Zn160  1  0.93948992  0.18970400  0.93282024  1
  Zn  Zn161  1  0.93513754  0.69053516  0.43383833  1
  Zn  Zn162  1  0.93893388  0.68651927  0.93823204  1
  Zn  Zn163  1  0.06220002  0.31354842  0.06680954  1
  Zn  Zn164  1  0.06728946  0.31026343  0.56286757  1
  Zn  Zn165  1  0.06334205  0.82064762  0.06461479  1
  Zn  Zn166  1  0.06382652  0.81244993  0.56454092  1
  Zn  Zn167  1  0.55993014  0.31133466  0.06159501  1
  Zn  Zn168  1  0.56413580  0.30838851  0.56138295  1
  Zn  Zn169  1  0.56384641  0.80920423  0.06743884  1
  Zn  Zn170  1  0.55961399  0.80750916  0.56463047  1
  O  O171  1  0.12073680  0.11342958  0.13062826  1
  O  O172  1  0.11603849  0.13084761  0.62122952  1
  O  O173  1  0.12891866  0.61229809  0.11944210  1
  O  O174  1  0.12029032  0.61107850  0.62673631  1
  O  O175  1  0.61437533  0.12118956  0.11883589  1
  O  O176  1  0.62068360  0.12673973  0.61231830  1
  O  O177  1  0.62531533  0.62031412  0.11657492  1
  O  O178  1  0.60585521  0.63138413  0.62924237  1
  O  O179  1  0.38382907  0.38070318  0.37542091  1
  O  O180  1  0.39762379  0.37571978  0.86511582  1
  O  O181  1  0.38603427  0.87381348  0.37173207  1
  O  O182  1  0.37850063  0.88653028  0.87190105  1
  O  O183  1  0.89052529  0.37968908  0.37867971  1
  O  O184  1  0.87451378  0.38381700  0.88354862  1
  O  O185  1  0.86656541  0.87407377  0.38995501  1
  O  O186  1  0.88378578  0.88167978  0.87492710  1
  O  O187  1  0.24728902  0.00170229  0.36061119  1
  O  O188  1  0.26701285  -0.00381148  0.86002142  1
  O  O189  1  0.25916896  0.50668825  0.37929837  1
  O  O190  1  0.23013565  0.52558791  0.86497014  1
  O  O191  1  0.74989173  0.00503834  0.36799631  1
  O  O192  1  0.75439489  0.00386911  0.86897088  1
  O  O193  1  0.76015071  0.50208858  0.36698424  1
  O  O194  1  0.76155395  0.50672013  0.87123754  1
  O  O195  1  0.24339118  0.49922076  0.11870403  1
  O  O196  1  0.23792233  0.49118018  0.61975560  1
  O  O197  1  0.23699842  0.99433102  0.13523285  1
  O  O198  1  0.26175922  1.00344426  0.64271364  1
  O  O199  1  0.74157678  0.49307100  0.13144394  1
  O  O200  1  0.75703391  0.50475865  0.63741585  1
  O  O201  1  0.74750336  0.99030621  0.13159895  1
  O  O202  1  0.75137024  0.98959515  0.63279381  1
  O  O203  1  0.01422102  0.38319808  0.26892320  1
  O  O204  1  0.00658317  0.36783602  0.75159939  1
  O  O205  1  0.00396928  0.86490854  0.24631138  1
  O  O206  1  -0.00463832  0.86786842  0.75499067  1
  O  O207  1  0.50706192  0.36719989  0.25573425  1
  O  O208  1  0.51099680  0.36945894  0.75321661  1
  O  O209  1  0.50062430  0.86206012  0.25726949  1
  O  O210  1  0.50990163  0.86470074  0.74340644  1
  O  O211  1  0.50259262  0.13104620  0.24231382  1
  O  O212  1  0.50562818  0.13426108  0.74073630  1
  O  O213  1  0.49245379  0.63468736  0.25317155  1
  O  O214  1  0.49494354  0.63153855  0.74450644  1
  O  O215  1  0.98196025  0.12480619  0.25216378  1
  O  O216  1  0.99740815  0.13077946  0.74380849  1
  O  O217  1  0.98840405  0.63185647  0.24876192  1
  O  O218  1  0.99312229  0.63259736  0.74422139  1
  O  O219  1  0.38681940  0.25097559  0.00927651  1
  O  O220  1  0.35966294  0.25116022  0.50506733  1
  O  O221  1  0.35885503  0.74378766  0.00022649  1
  O  O222  1  0.37919077  0.74743350  0.51343739  1
  O  O223  1  0.86909587  0.26174845  -0.00772472  1
  O  O224  1  0.87004149  0.25607750  0.49851500  1
  O  O225  1  0.86928336  0.74862938  0.00781459  1
  O  O226  1  0.86675846  0.75942116  0.50310784  1
  O  O227  1  0.14021166  0.23977763  0.50655004  1
  O  O228  1  0.12187664  0.26257412  0.98629508  1
  O  O229  1  0.11844344  0.75058372  0.48337979  1
  O  O230  1  0.12651334  0.74508802  0.99760712  1
  O  O231  1  0.63412544  0.24205033  0.49364733  1
  O  O232  1  0.62816130  0.24241465  0.99191976  1
  O  O233  1  0.63051527  0.74368394  0.49393780  1
  O  O234  1  0.62909918  0.74414595  0.99408473  1
  O  O235  1  0.49882506  0.24162739  0.13191939  1
  O  O236  1  0.50694847  0.23999167  0.63364912  1
  O  O237  1  0.49680506  0.74669926  0.13542144  1
  O  O238  1  0.48880373  0.74147632  0.63346725  1
  O  O239  1  0.98154596  0.29025056  0.13790140  1
  O  O240  1  1.00177350  0.24438130  0.63753767  1
  O  O241  1  0.98669735  0.75488084  0.13084193  1
  O  O242  1  0.99354473  0.74252796  0.63232794  1
  O  O243  1  -0.00062387  0.25742426  0.36429851  1
  O  O244  1  0.00832617  0.25271185  0.86409314  1
  O  O245  1  0.00466819  0.74527808  0.36083765  1
  O  O246  1  0.00022956  0.75826284  0.86863707  1
  O  O247  1  0.50231013  0.25745204  0.36868052  1
  O  O248  1  0.51055659  0.25518767  0.86809333  1
  O  O249  1  0.50493795  0.75185698  0.37266497  1
  O  O250  1  0.50654244  0.74243234  0.86765784  1
  O  O251  1  0.24333922  0.13634258  0.50138834  1
  O  O252  1  0.23830297  0.08355057  0.99066248  1
  O  O253  1  0.25478553  0.63078195  0.48858075  1
  O  O254  1  0.23591700  0.63528532  0.99081628  1
  O  O255  1  0.74460834  0.12672840  0.49522987  1
  O  O256  1  0.74326202  0.12803493  0.99403635  1
  O  O257  1  0.75178659  0.63197053  0.49311992  1
  O  O258  1  0.74030814  0.62875919  0.99517517  1
  O  O259  1  0.28788957  0.42208938  -0.05285251  1
  O  O260  1  0.25113331  0.36558372  0.51036283  1
  O  O261  1  0.23953089  0.86966924  0.00935438  1
  O  O262  1  0.25093063  0.87207885  0.50024086  1
  O  O263  1  0.75266859  0.36912978  0.00481929  1
  O  O264  1  0.76526787  0.36316371  0.48924316  1
  O  O265  1  0.75156772  0.86808829  0.00776542  1
  O  O266  1  0.75165251  0.86904033  0.50763494  1
  O  O267  1  0.12756084  0.49560246  0.23559209  1
  O  O268  1  0.11710736  0.48866003  0.74756733  1
  O  O269  1  0.12507492  0.99484280  0.24296074  1
  O  O270  1  0.13777582  1.00458979  0.75581447  1
  O  O271  1  0.63141907  0.49440252  0.24661449  1
  O  O272  1  0.63708819  0.49089771  0.75562572  1
  O  O273  1  0.63608097  0.99744911  0.24830436  1
  O  O274  1  0.62871407  0.98520398  0.75790596  1
  O  O275  1  0.36412611  0.00110145  0.25029040  1
  O  O276  1  0.37983536  0.00214197  0.76033835  1
  O  O277  1  0.38237820  0.50995237  0.26319677  1
  O  O278  1  0.36650467  0.49890525  0.77808470  1
  O  O279  1  0.86297096  0.00834305  0.25178245  1
  O  O280  1  0.86821106  0.00674445  0.75472436  1
  O  O281  1  0.87225677  0.50475493  0.25538121  1
  O  O282  1  0.87117012  0.50165213  0.75745498  1
  O  O283  1  0.11720497  0.37741150  0.36620358  1
  O  O284  1  0.12224878  0.36960100  0.86692291  1
  O  O285  1  0.12734737  0.86561298  0.36088333  1
  O  O286  1  0.10912263  0.87199886  0.86738432  1
  O  O287  1  0.61980429  0.36691303  0.36939861  1
  O  O288  1  0.61965836  0.36878584  0.86785552  1
  O  O289  1  0.61878704  0.85987901  0.37335684  1
  O  O290  1  0.63050553  0.86060452  0.86690471  1
  O  O291  1  0.38853490  0.13177874  0.12637199  1
  O  O292  1  0.38920780  0.12532261  0.62923517  1
  O  O293  1  0.37527942  0.62792634  0.13501024  1
  O  O294  1  0.38274116  0.63108639  0.63114051  1
  O  O295  1  0.86633792  0.12524090  0.13775784  1
  O  O296  1  0.88473479  0.12974950  0.63111881  1
  O  O297  1  0.86820235  0.63272511  0.13322259  1
  O  O298  1  0.88240707  0.62885616  0.63000894  1
  O  O299  1  0.26932683  0.24888267  0.11908207  1
  O  O300  1  0.24616009  0.26703331  0.62168099  1
  O  O301  1  0.24631801  0.75813658  0.11606678  1
  O  O302  1  0.26511818  0.74534238  0.62186218  1
  O  O303  1  0.74132191  0.25838425  0.11727372  1
  O  O304  1  0.75425686  0.24556752  0.61088032  1
  O  O305  1  0.75853810  0.75489869  0.12180254  1
  O  O306  1  0.75520289  0.75380584  0.62118962  1
  O  O307  1  0.25230771  0.25417981  0.38991816  1
  O  O308  1  0.23910278  0.24989339  0.87697481  1
  O  O309  1  0.23949501  0.74125574  0.37469713  1
  O  O310  1  0.24063984  0.75040115  0.88087511  1
  O  O311  1  0.74574250  0.24043845  0.38362836  1
  O  O312  1  0.74362002  0.24483586  0.87955490  1
  O  O313  1  0.74188645  0.74322002  0.37906446  1
  O  O314  1  0.74391632  0.74381071  0.87972922  1
  O  O315  1  -0.00595077  0.11350162  -0.00231542  1
  O  O316  1  0.01454090  0.13194693  0.50795331  1
  O  O317  1  0.01178596  0.61879566  -0.00215834  1
  O  O318  1  -0.00772003  0.62982602  0.51235135  1
  O  O319  1  0.50644166  0.11627881  0.00658696  1
  O  O320  1  0.50781461  0.12178306  0.50639564  1
  O  O321  1  0.51279114  0.62228846  -0.00015540  1
  O  O322  1  0.50115815  0.62145828  0.51756503  1
  O  O323  1  0.49758727  0.37096226  0.49187559  1
  O  O324  1  0.51064159  0.38670677  0.99008837  1
  O  O325  1  0.50731749  0.88198091  0.49307065  1
  O  O326  1  0.50555729  0.88637146  1.00496102  1
  O  O327  1  0.99821921  0.36629283  0.48407461  1
  O  O328  1  0.98944072  0.38631439  0.99610286  1
  O  O329  1  0.98113102  0.87332353  0.50815605  1
  O  O330  1  0.99572048  0.88153929  0.99121684  1
  O  O331  1  0.49664408  0.48530439  0.37371776  1
  O  O332  1  0.50330075  0.49283056  0.88263065  1
  O  O333  1  0.49983705  0.98733047  0.38045098  1
  O  O334  1  0.49351049  0.99948381  0.88638659  1
  O  O335  1  0.99271844  0.50015046  0.37396395  1
  O  O336  1  0.98776263  0.50226518  0.88235963  1
  O  O337  1  0.99721030  1.00220595  0.38807148  1
  O  O338  1  0.99596804  0.99610376  0.88210473  1
  O  O339  1  0.00755686  -0.00321471  0.12106669  1
  O  O340  1  -0.00569459  0.01273354  0.61834287  1
  O  O341  1  -0.00218827  0.49514900  0.11722080  1
  O  O342  1  0.01479545  0.50801376  0.62579723  1
  O  O343  1  0.49868881  0.00376092  0.11555172  1
  O  O344  1  0.50216787  0.00809673  0.61710435  1
  O  O345  1  0.50821143  0.50215733  0.11833893  1
  O  O346  1  0.49145235  0.51249930  0.63292097  1
  O  O347  1  0.23654126  0.37558661  0.25886529  1
  O  O348  1  0.24221237  0.37226928  0.74019641  1
  O  O349  1  0.23980623  0.88087839  0.24467960  1
  O  O350  1  0.24675076  0.89093406  0.74524996  1
  O  O351  1  0.74694406  0.37561155  0.24353299  1
  O  O352  1  0.74250736  0.38407576  0.75323449  1
  O  O353  1  0.74971584  0.88120077  0.24425541  1
  O  O354  1  0.74293140  0.87791333  0.74268418  1
  O  O355  1  0.25051033  0.11767160  0.24876158  1
  O  O356  1  0.25341051  0.11668861  0.75535573  1
  O  O357  1  0.26017783  0.62995602  0.25783848  1
  O  O358  1  0.24855861  0.64214427  0.76343640  1
  O  O359  1  0.75357497  0.11762281  0.25777259  1
  O  O360  1  0.75292427  0.12056416  0.75259525  1
  O  O361  1  0.76082246  0.61940400  0.25549619  1
  O  O362  1  0.75594109  0.61924165  0.75463972  1
  O  O363  1  0.36975822  0.12224920  0.36937718  1
  O  O364  1  0.37684931  0.11332837  0.87116715  1
  O  O365  1  0.36829120  0.61734277  0.37041065  1
  O  O366  1  0.35350672  0.61470870  0.87968836  1
  O  O367  1  0.86184213  0.12159868  0.37404391  1
  O  O368  1  0.86839667  0.12039669  0.86663300  1
  O  O369  1  0.87125526  0.61697245  0.36740164  1
  O  O370  1  0.87089647  0.61921041  0.86922404  1
  O  O371  1  0.12665408  0.38910255  0.13603174  1
  O  O372  1  0.13122837  0.38651059  0.63019568  1
  O  O373  1  0.13132513  0.87981300  0.13826391  1
  O  O374  1  0.12922479  0.86939324  0.63093596  1
  O  O375  1  0.63242344  0.37973358  0.12985447  1
  O  O376  1  0.62574429  0.37220912  0.63476399  1
  O  O377  1  0.63807351  0.87279006  0.12974449  1
  O  O378  1  0.63607583  0.86481569  0.63449930  1
  O  O379  1  0.12519043  0.26491993  0.23898262  1
  O  O380  1  0.12015880  0.26166102  0.75657758  1
  O  O381  1  0.11450614  0.75609517  0.25236596  1
  O  O382  1  0.10982961  0.74826466  0.75559508  1
  O  O383  1  0.61551258  0.25267000  0.25551612  1
  O  O384  1  0.62188725  0.25882111  0.75505314  1
  O  O385  1  0.61637858  0.74777034  0.25834639  1
  O  O386  1  0.61573170  0.75561180  0.75809944  1
  O  O387  1  0.38828085  0.24974265  0.24293623  1
  O  O388  1  0.39063719  0.25065040  0.75533691  1
  O  O389  1  0.38132968  0.74082732  0.25104088  1
  O  O390  1  0.38311863  0.74745521  0.74862836  1
  O  O391  1  0.86768195  0.23327619  0.25331442  1
  O  O392  1  0.88407105  0.24498273  0.74986635  1
  O  O393  1  0.88019729  0.74224926  0.24466672  1
  O  O394  1  0.88264646  0.74515345  0.74554231  1
  O  O395  1  0.38336304  0.49617309  0.48826175  1
  O  O396  1  0.39480087  0.51621994  0.99651516  1
  O  O397  1  0.39105526  1.00613295  0.49719323  1
  O  O398  1  0.38892096  0.99803630  0.99014973  1
  O  O399  1  0.87184152  0.48898049  0.48721910  1
  O  O400  1  0.87854884  0.49626884  0.99354390  1
  O  O401  1  0.86803813  0.98339975  0.50023888  1
  O  O402  1  0.88034015  0.99733600  0.99354568  1
  O  O403  1  0.11060858  -0.00937431  0.02052118  1
  O  O404  1  0.13090072  0.02062412  0.50116949  1
  O  O405  1  0.11619025  0.50553107  0.01245150  1
  O  O406  1  0.12497812  0.49731664  0.50842390  1
  O  O407  1  0.61451748  0.00443126  -0.00038552  1
  O  O408  1  0.61392652  0.00972171  0.49317442  1
  O  O409  1  0.62109286  0.50848345  0.00338300  1
  O  O410  1  0.62098355  0.50289137  0.49672370  1
  O  O411  1  0.38342309  0.36300004  0.12380101  1
  O  O412  1  0.35956346  0.38568724  0.62824312  1
  O  O413  1  0.35658577  0.87162814  0.13031848  1
  O  O414  1  0.37496264  0.85774975  0.62973847  1
  O  O415  1  0.85505420  0.38763503  0.11178023  1
  O  O416  1  0.88606268  0.37445749  0.60811567  1
  O  O417  1  0.86384631  0.86655990  0.12541633  1
  O  O418  1  0.86238351  0.86805600  0.61853891  1
  O  O419  1  0.12760526  0.13043315  0.38687454  1
  O  O420  1  0.12628917  0.14494198  0.87512956  1
  O  O421  1  0.13449193  0.63303595  0.36471980  1
  O  O422  1  0.12671799  0.63643264  0.88225506  1
  O  O423  1  0.63466054  0.12886030  0.38232330  1
  O  O424  1  0.63018113  0.13051672  0.87764684  1
  O  O425  1  0.63096806  0.63432902  0.37477053  1
  O  O426  1  0.62989475  0.63389145  0.88024826  1
