# generated using pymatgen
data_V85Zn86O256
_symmetry_space_group_name_H-M   'P 1'
_cell_length_a   16.96450538
_cell_length_b   16.96916038
_cell_length_c   16.95601385
_cell_angle_alpha   90.12029996
_cell_angle_beta   90.03069045
_cell_angle_gamma   89.94997482
_symmetry_Int_Tables_number   1
_chemical_formula_structural   V85Zn86O256
_chemical_formula_sum   'V85 Zn86 O256'
_cell_volume   4881.17225573
_cell_formula_units_Z   1
loop_
 _symmetry_equiv_pos_site_id
 _symmetry_equiv_pos_as_xyz
  1  'x, y, z'
loop_
 _atom_site_type_symbol
 _atom_site_label
 _atom_site_symmetry_multiplicity
 _atom_site_fract_x
 _atom_site_fract_y
 _atom_site_fract_z
 _atom_site_occupancy
  V  V0  1  0.37796697  0.49085522  0.87760661  1
  V  V1  1  0.25245025  0.75039807  0.49872553  1
  V  V2  1  0.75388766  0.62659692  0.87485144  1
  V  V3  1  0.75049238  0.36390744  0.12574589  1
  V  V4  1  0.50090512  0.49070262  -0.00376784  1
  V  V5  1  0.87883648  0.63856964  0.74723563  1
  V  V6  1  0.00455664  0.37040283  0.37378917  1
  V  V7  1  0.50041705  0.49518225  0.49523804  1
  V  V8  1  0.74859247  0.37190662  0.62580657  1
  V  V9  1  -0.00245511  0.63808218  0.62627552  1
  V  V10  1  0.37614973  0.74807317  0.12767841  1
  V  V11  1  0.62613371  0.49705110  0.62475354  1
  V  V12  1  0.24974275  0.87452900  0.13095762  1
  V  V13  1  -0.00570427  0.87576627  0.37532801  1
  V  V14  1  0.62774609  0.62399495  -0.00157574  1
  V  V15  1  0.87709837  0.50276892  0.87371326  1
  V  V16  1  0.12315674  0.87228501  0.25795307  1
  V  V17  1  0.12610205  0.75584244  0.86087773  1
  V  V18  1  -0.00270795  0.63459729  0.12620892  1
  V  V19  1  0.75135696  -0.00363955  0.23996117  1
  V  V20  1  0.86844373  0.50359437  0.37353408  1
  V  V21  1  0.24944615  -0.00178945  0.26773769  1
  V  V22  1  0.61661235  0.37557514  0.25415670  1
  V  V23  1  0.37841340  0.49755535  0.36746150  1
  V  V24  1  0.75420230  0.74824095  0.50749693  1
  V  V25  1  0.50517317  0.88292624  0.38108677  1
  V  V26  1  0.62922529  0.87409885  0.24140192  1
  V  V27  1  0.63048366  0.74756713  0.37725324  1
  V  V28  1  0.75003389  0.12274221  0.36921031  1
  V  V29  1  0.50123400  0.74909437  0.25392979  1
  V  V30  1  0.87243021  0.87408056  0.51128235  1
  V  V31  1  0.62629725  0.75313603  0.87228301  1
  V  V32  1  0.00013577  0.24359787  0.24374672  1
  V  V33  1  0.24784673  0.49959728  0.23762379  1
  V  V34  1  0.37446204  0.61810579  0.75151005  1
  V  V35  1  0.12856075  0.24940232  0.88257969  1
  V  V36  1  0.61389800  0.01500210  0.11416484  1
  V  V37  1  0.13345702  0.12773382  0.00823892  1
  V  V38  1  -0.00133877  0.37792283  0.87717442  1
  V  V39  1  0.87942813  0.87102933  0.01237913  1
  V  V40  1  0.63064100  0.49855259  0.12525489  1
  V  V41  1  0.24916110  0.75566760  0.00262440  1
  V  V42  1  0.62267746  0.37482345  0.75572788  1
  V  V43  1  0.75410613  -0.00443968  0.74885853  1
  V  V44  1  0.87082839  0.36926599  0.00135638  1
  V  V45  1  0.58949974  0.90562477  0.76528076  1
  V  V46  1  0.12464004  0.37605143  0.75140090  1
  V  V47  1  0.24888445  0.62318443  0.87946600  1
  V  V48  1  0.37485964  0.25600297  0.61967247  1
  V  V49  1  0.12614833  0.62447255  0.00685925  1
  V  V50  1  0.87377942  0.12663126  0.75120390  1
  V  V51  1  0.37023223  0.75144526  0.62637348  1
  V  V52  1  0.37672657  0.12717038  0.23983234  1
  V  V53  1  0.11756156  0.12103875  0.49196631  1
  V  V54  1  0.37259046  0.35726496  0.00090678  1
  V  V55  1  0.12030946  0.00614529  0.13062831  1
  V  V56  1  0.74590250  0.24433524  0.49677304  1
  V  V57  1  0.87323086  0.24838206  0.62400867  1
  V  V58  1  0.86766332  0.63244769  0.24964006  1
  V  V59  1  0.50004359  0.62214504  0.62231185  1
  V  V60  1  0.74671366  0.12775652  0.88687048  1
  V  V61  1  0.50195720  0.74095835  0.75635201  1
  V  V62  1  -0.00234366  0.25214086  0.75133564  1
  V  V63  1  0.38974377  0.87818896  0.00053782  1
  V  V64  1  0.63151789  0.62336105  0.49540702  1
  V  V65  1  0.24864844  0.50095353  0.75128928  1
  V  V66  1  0.38329647  0.88389800  0.50637172  1
  V  V67  1  -0.00001884  0.50040963  0.50157574  1
  V  V68  1  0.50075153  0.11692219  0.62209206  1
  V  V69  1  0.12540357  0.62448689  0.49963008  1
  V  V70  1  0.23613964  0.25904253  0.49085090  1
  V  V71  1  0.35982974  0.12406466  0.74711732  1
  V  V72  1  0.12470991  0.37719973  0.24904738  1
  V  V73  1  0.00640029  0.87526919  0.86328658  1
  V  V74  1  0.37873740  0.37555238  0.49088280  1
  V  V75  1  0.75627430  0.75436883  0.01026451  1
  V  V76  1  0.49865439  0.25435058  0.75200209  1
  V  V77  1  0.50119649  0.61947485  0.12675787  1
  V  V78  1  0.00158884  0.00567517  0.00503262  1
  V  V79  1  0.87399270  0.37407449  0.49764228  1
  V  V80  1  0.37457838  0.62240061  0.25115493  1
  V  V81  1  0.24556737  0.35854301  0.11757036  1
  V  V82  1  0.61321799  0.25157323  0.37353422  1
  V  V83  1  0.00362443  0.50134352  0.00827456  1
  V  V84  1  0.62539873  0.24952462  0.88456932  1
  Zn  Zn85  1  0.12474549  0.74701123  0.37326107  1
  Zn  Zn86  1  0.13217218  -0.01645455  0.64957150  1
  Zn  Zn87  1  0.87572383  0.23753793  0.11799309  1
  Zn  Zn88  1  0.12394843  0.50162676  0.62684533  1
  Zn  Zn89  1  0.24893067  0.38026683  0.62236806  1
  Zn  Zn90  1  0.61303177  0.11391852  0.49031530  1
  Zn  Zn91  1  0.24767477  0.62208083  0.37330149  1
  Zn  Zn92  1  -0.00390504  -0.00298284  0.50708218  1
  Zn  Zn93  1  -0.00300533  0.75098984  0.24863732  1
  Zn  Zn94  1  0.74715679  0.86946511  0.63501864  1
  Zn  Zn95  1  0.49954737  0.23611919  0.23597792  1
  Zn  Zn96  1  0.75101351  0.50005637  0.25378648  1
  Zn  Zn97  1  0.25058856  0.13603813  0.37362853  1
  Zn  Zn98  1  0.38290305  0.00356819  0.89070036  1
  Zn  Zn99  1  0.62675729  -0.00333903  0.61864980  1
  Zn  Zn100  1  0.87950421  0.11990336  0.24346131  1
  Zn  Zn101  1  0.24426026  0.12188288  0.87124952  1
  Zn  Zn102  1  0.87186567  -0.00176832  0.37576375  1
  Zn  Zn103  1  0.38279258  0.00410320  0.37997097  1
  Zn  Zn104  1  0.00309382  0.12268659  0.62510688  1
  Zn  Zn105  1  0.75268752  0.49972356  0.74895283  1
  Zn  Zn106  1  0.87619967  -0.00200965  0.87920525  1
  Zn  Zn107  1  0.18402381  0.18594220  0.19549266  1
  Zn  Zn108  1  0.18226980  0.19544231  0.67640675  1
  Zn  Zn109  1  0.18546990  0.68596491  0.18765064  1
  Zn  Zn110  1  0.19496546  0.81770739  0.68750660  1
  Zn  Zn111  1  0.68521992  0.18481429  0.18562513  1
  Zn  Zn112  1  0.68518158  0.18467488  0.69129433  1
  Zn  Zn113  1  0.68881614  0.68679706  0.18873506  1
  Zn  Zn114  1  0.68959272  0.68338777  0.68822485  1
  Zn  Zn115  1  0.31568414  0.31361150  0.30696407  1
  Zn  Zn116  1  0.31178982  0.30938453  0.81358685  1
  Zn  Zn117  1  0.31433373  0.81267918  0.32032224  1
  Zn  Zn118  1  0.32537218  0.80714710  0.82423774  1
  Zn  Zn119  1  0.81228769  0.31244976  0.31025732  1
  Zn  Zn120  1  0.80834350  0.31176524  0.81516580  1
  Zn  Zn121  1  0.80945725  0.81186987  0.31739651  1
  Zn  Zn122  1  0.81851366  0.81481188  0.82260322  1
  Zn  Zn123  1  0.18879727  0.44014903  0.43121497  1
  Zn  Zn124  1  0.18755505  0.43651824  0.94052376  1
  Zn  Zn125  1  0.20516706  0.94962415  0.48655326  1
  Zn  Zn126  1  0.20853098  0.94913257  0.82264118  1
  Zn  Zn127  1  0.68863946  0.43410307  0.43732489  1
  Zn  Zn128  1  0.69145346  0.43548307  0.93742254  1
  Zn  Zn129  1  0.68888974  0.93732703  0.43806548  1
  Zn  Zn130  1  0.69136795  0.93792763  0.93820130  1
  Zn  Zn131  1  0.30337287  0.05556255  0.06361769  1
  Zn  Zn132  1  0.30578369  0.07197173  0.56717185  1
  Zn  Zn133  1  0.31414306  0.55867106  0.06306138  1
  Zn  Zn134  1  0.31096729  0.56141513  0.56284953  1
  Zn  Zn135  1  0.81337275  0.05798211  0.06652189  1
  Zn  Zn136  1  0.81149382  0.06130645  0.56246534  1
  Zn  Zn137  1  0.81489745  0.56259480  0.06320448  1
  Zn  Zn138  1  0.81351084  0.56229067  0.56384317  1
  Zn  Zn139  1  0.44816729  0.40612015  0.17275682  1
  Zn  Zn140  1  0.43820064  0.43434647  0.68461829  1
  Zn  Zn141  1  0.43773325  0.93865306  0.19007622  1
  Zn  Zn142  1  0.42748298  0.93924558  0.69913520  1
  Zn  Zn143  1  0.93647383  0.43937174  0.18683229  1
  Zn  Zn144  1  0.93602552  0.43967271  0.68685523  1
  Zn  Zn145  1  0.93771157  0.93829275  0.18936459  1
  Zn  Zn146  1  0.94184454  0.94282972  0.68499503  1
  Zn  Zn147  1  0.06585583  0.06232282  0.32310909  1
  Zn  Zn148  1  0.05975106  0.06378376  0.81692200  1
  Zn  Zn149  1  0.05916161  0.55866037  0.31212566  1
  Zn  Zn150  1  0.06314234  0.56825982  0.81395268  1
  Zn  Zn151  1  0.56451648  0.06126279  0.30582713  1
  Zn  Zn152  1  0.54469467  0.07560213  0.83117420  1
  Zn  Zn153  1  0.56286573  0.55912036  0.31228408  1
  Zn  Zn154  1  0.56440342  0.55970620  0.81477343  1
  Zn  Zn155  1  0.43227614  0.18441022  0.43432948  1
  Zn  Zn156  1  0.43866444  0.17848330  0.93108175  1
  Zn  Zn157  1  0.44061317  0.68682736  0.43730811  1
  Zn  Zn158  1  0.43823943  0.68258372  0.94075668  1
  Zn  Zn159  1  0.93425289  0.18920292  0.43029200  1
  Zn  Zn160  1  0.93967069  0.18614116  0.93701032  1
  Zn  Zn161  1  0.93619975  0.69037089  0.43396768  1
  Zn  Zn162  1  0.94216596  0.69286546  0.93567561  1
  Zn  Zn163  1  0.06319372  0.31517585  0.06600806  1
  Zn  Zn164  1  0.05883246  0.31521611  0.56725280  1
  Zn  Zn165  1  0.06520340  0.81676812  0.06182839  1
  Zn  Zn166  1  0.06100608  0.81203798  0.55744580  1
  Zn  Zn167  1  0.55925543  0.30937281  0.06449605  1
  Zn  Zn168  1  0.56127606  0.30899469  0.56170033  1
  Zn  Zn169  1  0.56701565  0.80647914  0.06516763  1
  Zn  Zn170  1  0.56439525  0.81463706  0.57250563  1
  O  O171  1  0.12512676  0.11704149  0.12399921  1
  O  O172  1  0.11934200  0.13944023  0.60041180  1
  O  O173  1  0.11693861  0.62637995  0.11330295  1
  O  O174  1  0.10717393  0.61898480  0.61045343  1
  O  O175  1  0.61930345  0.11623713  0.12271912  1
  O  O176  1  0.60746500  0.12565367  0.62860947  1
  O  O177  1  0.62233707  0.61680968  0.11934959  1
  O  O178  1  0.61821835  0.61607272  0.61912952  1
  O  O179  1  0.37416886  0.38216505  0.38261866  1
  O  O180  1  0.36641556  0.38436404  0.88482862  1
  O  O181  1  0.38937547  0.87456750  0.38561975  1
  O  O182  1  0.38304460  0.87700428  0.89618647  1
  O  O183  1  0.88061371  0.38249385  0.38029550  1
  O  O184  1  0.87717021  0.38321570  0.88139294  1
  O  O185  1  0.87983835  0.87400706  0.38458775  1
  O  O186  1  0.89249923  0.87588126  0.88548499  1
  O  O187  1  0.24793709  -0.00475756  0.37089621  1
  O  O188  1  0.26868971  0.01357033  0.89220260  1
  O  O189  1  0.26264734  0.50170748  0.36432942  1
  O  O190  1  0.25667313  0.50383111  0.87238931  1
  O  O191  1  0.74788987  0.00885181  0.36442742  1
  O  O192  1  0.75319239  0.01087645  0.86612139  1
  O  O193  1  0.76465945  0.49757397  0.37801065  1
  O  O194  1  0.76079230  0.50793241  0.87521727  1
  O  O195  1  0.24931508  0.49720456  0.13535236  1
  O  O196  1  0.24690872  0.49883372  0.63622965  1
  O  O197  1  0.23722137  0.99047031  0.13781514  1
  O  O198  1  0.23004397  0.99737459  0.58915396  1
  O  O199  1  0.73937685  0.49509254  0.12219545  1
  O  O200  1  0.74346126  0.49126550  0.62501947  1
  O  O201  1  0.73762280  1.00133520  0.13656105  1
  O  O202  1  0.75250774  0.99695354  0.63865379  1
  O  O203  1  0.00722260  0.37557418  0.25519849  1
  O  O204  1  0.00548236  0.37434690  0.75703400  1
  O  O205  1  0.00534848  0.87086573  0.25520457  1
  O  O206  1  -0.00438907  0.87863582  0.76498448  1
  O  O207  1  0.51889856  0.39567612  0.26414478  1
  O  O208  1  0.51094305  0.36847883  0.74442595  1
  O  O209  1  0.50762741  0.86628536  0.26060127  1
  O  O210  1  0.49334171  0.84304304  0.73977478  1
  O  O211  1  0.48336223  0.12091344  0.25085735  1
  O  O212  1  0.48406933  0.13840947  0.73821967  1
  O  O213  1  0.49532631  0.62780145  0.24466816  1
  O  O214  1  0.49575425  0.62331655  0.74193398  1
  O  O215  1  1.00365297  0.14213405  0.26034563  1
  O  O216  1  0.98670864  0.13325302  0.75456910  1
  O  O217  1  0.99344211  0.62516801  0.24126002  1
  O  O218  1  0.99601576  0.62015400  0.73392780  1
  O  O219  1  0.38818686  0.25906935  -0.00681683  1
  O  O220  1  0.37004117  0.25888852  0.50391404  1
  O  O221  1  0.36984773  0.75080297  0.00877910  1
  O  O222  1  0.37243691  0.74854999  0.50967543  1
  O  O223  1  0.88457017  0.26596217  0.00017779  1
  O  O224  1  0.86650207  0.25556402  0.50248552  1
  O  O225  1  0.87082846  0.76069609  -0.00311845  1
  O  O226  1  0.86160891  0.75453193  0.49489748  1
  O  O227  1  0.13467813  0.26100096  0.49869301  1
  O  O228  1  0.11051535  0.24047683  0.99365486  1
  O  O229  1  0.13580887  0.74047943  0.49718004  1
  O  O230  1  0.13478782  0.74465765  0.99713178  1
  O  O231  1  0.63121665  0.24630123  0.49146714  1
  O  O232  1  0.61661527  0.25797566  0.98403720  1
  O  O233  1  0.62819962  0.74142053  0.49653811  1
  O  O234  1  0.63214815  0.74625237  0.98869397  1
  O  O235  1  0.48638290  0.29794193  0.14428122  1
  O  O236  1  0.49212691  0.24620064  0.63156481  1
  O  O237  1  0.49706468  0.73926708  0.13407524  1
  O  O238  1  0.49677332  0.73282634  0.62955162  1
  O  O239  1  0.99657270  0.25765000  0.14075879  1
  O  O240  1  0.99011346  0.25098473  0.63422243  1
  O  O241  1  1.00306458  0.73751076  0.12394915  1
  O  O242  1  0.99686464  0.73581371  0.61833086  1
  O  O243  1  -0.00593815  0.26632822  0.36539222  1
  O  O244  1  0.00511038  0.25935933  0.86881406  1
  O  O245  1  0.00335699  0.76168780  0.37266680  1
  O  O246  1  0.01318576  0.76373252  0.87928988  1
  O  O247  1  0.51161289  0.24500796  0.37313392  1
  O  O248  1  0.50935529  0.24582467  0.85842224  1
  O  O249  1  0.51128674  0.75400056  0.37128136  1
  O  O250  1  0.51068276  0.73706896  0.86817066  1
  O  O251  1  0.23848529  0.14527716  0.49597330  1
  O  O252  1  0.23580548  0.12913726  1.00546902  1
  O  O253  1  0.24131096  0.63049478  0.50061585  1
  O  O254  1  0.24342334  0.63061722  1.00073211  1
  O  O255  1  0.75047047  0.13515201  0.49251245  1
  O  O256  1  0.75329618  0.11891618  0.98449664  1
  O  O257  1  0.73844647  0.62974603  0.50656449  1
  O  O258  1  0.74777629  0.63091720  0.99394957  1
  O  O259  1  0.25336174  0.37229026  0.00955992  1
  O  O260  1  0.25671983  0.37212275  0.49942951  1
  O  O261  1  0.26040875  0.85896040  0.01207058  1
  O  O262  1  0.26859242  0.85529887  0.49145010  1
  O  O263  1  0.76066940  0.38001188  0.00986894  1
  O  O264  1  0.75297790  0.36205054  0.50504106  1
  O  O265  1  0.76943252  0.86785584  -0.00881599  1
  O  O266  1  0.75571556  0.86544501  0.50502754  1
  O  O267  1  0.13403819  0.48913736  0.25414900  1
  O  O268  1  0.13211714  0.49456561  0.75359661  1
  O  O269  1  0.13011677  0.99438764  0.24963539  1
  O  O270  1  0.13436541  1.00726364  0.75920585  1
  O  O271  1  0.63221221  0.49874998  0.24158527  1
  O  O272  1  0.62690564  0.49140235  0.74497261  1
  O  O273  1  0.63151792  0.99047999  0.24225506  1
  O  O274  1  0.64775110  1.00500034  0.74741283  1
  O  O275  1  0.36453084  0.00317297  0.25542760  1
  O  O276  1  0.36786327  0.02288738  0.75354991  1
  O  O277  1  0.36969065  0.50217833  0.25377511  1
  O  O278  1  0.37009161  0.49766755  0.75780361  1
  O  O279  1  0.86445681  -0.00188154  0.25287738  1
  O  O280  1  0.87046358  0.01058242  0.75383890  1
  O  O281  1  0.87426732  0.50786382  0.25816778  1
  O  O282  1  0.87660198  0.50436609  0.76330009  1
  O  O283  1  0.11501270  0.38094154  0.36477497  1
  O  O284  1  0.11805717  0.37249088  0.86798368  1
  O  O285  1  0.11720991  0.87403778  0.36345778  1
  O  O286  1  0.11479326  0.86829966  0.87639418  1
  O  O287  1  0.63557493  0.36288925  0.36597184  1
  O  O288  1  0.63457546  0.36815561  0.86171750  1
  O  O289  1  0.62037953  0.86524888  0.37022297  1
  O  O290  1  0.62986900  0.86727277  0.86193025  1
  O  O291  1  0.36537222  0.11700126  0.14147926  1
  O  O292  1  0.37840777  0.13709776  0.62898560  1
  O  O293  1  0.38106217  0.62793090  0.13161571  1
  O  O294  1  0.38335860  0.62700147  0.62973499  1
  O  O295  1  0.87262274  0.12607057  0.13023115  1
  O  O296  1  0.87678644  0.13211403  0.63298612  1
  O  O297  1  0.88285555  0.61937222  0.13930110  1
  O  O298  1  0.88782282  0.61740544  0.63329434  1
  O  O299  1  0.24630827  0.26101116  0.12920176  1
  O  O300  1  0.25804580  0.25983020  0.61047066  1
  O  O301  1  0.25609124  0.75223493  0.12169040  1
  O  O302  1  0.26623179  0.74459916  0.61864413  1
  O  O303  1  0.75160338  0.26108079  0.12798874  1
  O  O304  1  0.75228508  0.25079734  0.61676233  1
  O  O305  1  0.74432794  0.74600947  0.10886449  1
  O  O306  1  0.73965513  0.75314300  0.61386643  1
  O  O307  1  0.25417447  0.25812389  0.38856161  1
  O  O308  1  0.22997488  0.25371289  0.87216362  1
  O  O309  1  0.24910598  0.74112452  0.38392755  1
  O  O310  1  0.24766375  0.74143253  0.88730494  1
  O  O311  1  0.74395270  0.24305508  0.38002391  1
  O  O312  1  0.74199320  0.23702421  0.87228497  1
  O  O313  1  0.73606148  0.75106216  0.38754639  1
  O  O314  1  0.74385084  0.74401378  0.88089038  1
  O  O315  1  0.00315396  0.10977590  -0.00511084  1
  O  O316  1  0.00836110  0.13119269  0.49530678  1
  O  O317  1  0.00531697  0.62128220  0.00577977  1
  O  O318  1  0.00054390  0.61832691  0.50514091  1
  O  O319  1  0.47047602  0.07339681  -0.08270893  1
  O  O320  1  0.49692283  0.13268452  0.51745361  1
  O  O321  1  0.50755407  0.61411561  0.00788366  1
  O  O322  1  0.50913345  0.61766758  0.50670810  1
  O  O323  1  0.49231148  0.38340687  0.50293888  1
  O  O324  1  0.49027656  0.38714630  1.00047254  1
  O  O325  1  0.49513774  0.86429543  0.49327853  1
  O  O326  1  0.48746785  0.86394293  1.00989407  1
  O  O327  1  0.99531039  0.38097665  0.49293658  1
  O  O328  1  0.99549615  0.38561428  0.99659890  1
  O  O329  1  0.98906133  0.87398624  0.49205909  1
  O  O330  1  0.99417344  0.88224330  0.99779759  1
  O  O331  1  0.48639583  0.50624195  0.38148134  1
  O  O332  1  0.49019198  0.50441515  0.88368172  1
  O  O333  1  0.50486227  0.98589522  0.37306751  1
  O  O334  1  0.51330902  0.97000732  0.79413100  1
  O  O335  1  0.99053044  0.49246975  0.38478886  1
  O  O336  1  0.99376522  0.49816175  0.88308279  1
  O  O337  1  0.99426155  0.98619889  0.37310782  1
  O  O338  1  0.99998046  0.98880314  0.88665222  1
  O  O339  1  0.01284229  -0.00673778  0.12145600  1
  O  O340  1  0.01162941  0.00601929  0.62322490  1
  O  O341  1  -0.00394966  0.50923034  0.11236072  1
  O  O342  1  -0.00103519  0.49995159  0.61039427  1
  O  O343  1  0.51688253  -0.00693113  0.13053338  1
  O  O344  1  0.49429984  0.01630231  0.63082967  1
  O  O345  1  0.51276499  0.49920558  0.11798681  1
  O  O346  1  0.50415931  0.50744024  0.61818669  1
  O  O347  1  0.24473657  0.37916859  0.23967852  1
  O  O348  1  0.24171112  0.38483373  0.75171277  1
  O  O349  1  0.24373172  0.87914719  0.25092741  1
  O  O350  1  0.26143674  0.87021796  0.75991848  1
  O  O351  1  0.74451032  0.37948715  0.24133752  1
  O  O352  1  0.74296567  0.37595857  0.74223606  1
  O  O353  1  0.74059620  0.88298911  0.25794382  1
  O  O354  1  0.76283026  0.89084396  0.75419565  1
  O  O355  1  0.25380346  0.11510642  0.25602535  1
  O  O356  1  0.25779200  0.13620904  0.73690301  1
  O  O357  1  0.25530369  0.61604745  0.24941390  1
  O  O358  1  0.25729508  0.60870157  0.75983057  1
  O  O359  1  0.74760774  0.11577790  0.25585030  1
  O  O360  1  0.76063556  0.11889130  0.75367203  1
  O  O361  1  0.76416621  0.62145671  0.24698552  1
  O  O362  1  0.76075048  0.62067836  0.75550791  1
  O  O363  1  0.36820331  0.11844535  0.36902242  1
  O  O364  1  0.35638231  0.16164756  0.84539952  1
  O  O365  1  0.37505781  0.61778558  0.36633091  1
  O  O366  1  0.36887921  0.61288939  0.87299385  1
  O  O367  1  0.86107543  0.12476427  0.36758666  1
  O  O368  1  0.86387319  0.12644061  0.86867814  1
  O  O369  1  0.88327804  0.61668360  0.36007700  1
  O  O370  1  0.87616594  0.61978821  0.86907664  1
  O  O371  1  0.13783716  0.37758079  0.12934119  1
  O  O372  1  0.12415070  0.37925513  0.64039759  1
  O  O373  1  0.13038639  0.87984417  0.13809508  1
  O  O374  1  0.13236437  0.87224839  0.61426548  1
  O  O375  1  0.63398192  0.38219040  0.13198625  1
  O  O376  1  0.62928417  0.37819739  0.63178804  1
  O  O377  1  0.62539539  0.86812141  0.14038358  1
  O  O378  1  0.61995619  0.88065000  0.65404429  1
  O  O379  1  0.11277310  0.26464233  0.24759847  1
  O  O380  1  0.11704565  0.25881321  0.75478900  1
  O  O381  1  0.12295795  0.75774091  0.25221179  1
  O  O382  1  0.13598942  0.74390854  0.76328594  1
  O  O383  1  0.62008707  0.25776505  0.25524789  1
  O  O384  1  0.61735400  0.25774143  0.75330569  1
  O  O385  1  0.62358198  0.75253113  0.25958375  1
  O  O386  1  0.61905121  0.73905773  0.76300805  1
  O  O387  1  0.37386782  0.23161612  0.25416255  1
  O  O388  1  0.38036087  0.26100934  0.73188126  1
  O  O389  1  0.38016168  0.74247531  0.24774125  1
  O  O390  1  0.38198371  0.73451895  0.74636337  1
  O  O391  1  0.89030437  0.25344519  0.24835424  1
  O  O392  1  0.87686064  0.24562674  0.74613906  1
  O  O393  1  0.87438550  0.73586784  0.25523181  1
  O  O394  1  0.87216194  0.73729350  0.75556656  1
  O  O395  1  0.37825128  0.49406495  0.49147068  1
  O  O396  1  0.38236311  0.49556201  0.99323482  1
  O  O397  1  0.37378169  0.98594818  0.50138300  1
  O  O398  1  0.37460838  0.97773180  1.01919725  1
  O  O399  1  0.88071709  0.49506126  0.49392886  1
  O  O400  1  0.88271516  0.49573269  0.99017714  1
  O  O401  1  0.87480928  0.99045033  0.49666119  1
  O  O402  1  0.88230439  0.98777837  1.00078808  1
  O  O403  1  0.11689649  0.01152852  0.01568104  1
  O  O404  1  0.11249628  0.01800959  0.48188848  1
  O  O405  1  0.11503387  0.51150215  -0.00800020  1
  O  O406  1  0.11703629  0.50459740  0.49963900  1
  O  O407  1  0.62986515  -0.00930019  0.01692331  1
  O  O408  1  0.63193622  0.00387228  0.50664511  1
  O  O409  1  0.61924642  0.50166965  0.00393223  1
  O  O410  1  0.62142897  0.50503998  0.50224789  1
  O  O411  1  0.35377937  0.38406361  0.11121053  1
  O  O412  1  0.37375486  0.37228172  0.60998143  1
  O  O413  1  0.36962481  0.86302749  0.12796067  1
  O  O414  1  0.38740332  0.86251102  0.61893032  1
  O  O415  1  0.86622458  0.37782939  0.11703453  1
  O  O416  1  0.86837940  0.36957637  0.61843565  1
  O  O417  1  0.88087279  0.87264672  0.11167252  1
  O  O418  1  0.87496180  0.87615119  0.61433129  1
  O  O419  1  0.12900082  0.13717804  0.38687087  1
  O  O420  1  0.12411979  0.13515137  0.88714739  1
  O  O421  1  0.12198795  0.62264946  0.38769886  1
  O  O422  1  0.12886913  0.63383458  0.88621565  1
  O  O423  1  0.63350315  0.13307600  0.37252811  1
  O  O424  1  0.63869657  0.13503920  0.86662655  1
  O  O425  1  0.61970699  0.63156887  0.38571609  1
  O  O426  1  0.63313293  0.62872864  0.88174955  1
