# generated using pymatgen
data_V85Zn86O256
_symmetry_space_group_name_H-M   'P 1'
_cell_length_a   16.95597758
_cell_length_b   16.96582190
_cell_length_c   16.95843961
_cell_angle_alpha   89.95476715
_cell_angle_beta   89.94528759
_cell_angle_gamma   90.01350816
_symmetry_Int_Tables_number   1
_chemical_formula_structural   V85Zn86O256
_chemical_formula_sum   'V85 Zn86 O256'
_cell_volume   4878.46598175
_cell_formula_units_Z   1
loop_
 _symmetry_equiv_pos_site_id
 _symmetry_equiv_pos_as_xyz
  1  'x, y, z'
loop_
 _atom_site_type_symbol
 _atom_site_label
 _atom_site_symmetry_multiplicity
 _atom_site_fract_x
 _atom_site_fract_y
 _atom_site_fract_z
 _atom_site_occupancy
  V  V0  1  0.74902413  0.12122682  0.86900020  1
  V  V1  1  0.49957887  0.50263692  0.49937117  1
  V  V2  1  0.49728365  0.00476895  -0.01010036  1
  V  V3  1  0.62249869  0.24814410  0.87447972  1
  V  V4  1  0.25113245  0.88241821  0.12519765  1
  V  V5  1  0.88805384  -0.00556426  0.37759269  1
  V  V6  1  -0.00252227  0.24539555  0.24954040  1
  V  V7  1  0.49864601  0.76423628  0.74982598  1
  V  V8  1  0.07080130  -0.05980699  0.18394716  1
  V  V9  1  0.24334245  0.24478696  0.49705429  1
  V  V10  1  0.37442587  0.24645048  0.62426203  1
  V  V11  1  0.75303587  0.62794949  0.37650227  1
  V  V12  1  0.25336079  0.49764489  0.24701467  1
  V  V13  1  0.24861462  0.87431636  0.62083134  1
  V  V14  1  0.50304466  0.37446419  0.36984414  1
  V  V15  1  0.87421914  0.75049987  0.12428174  1
  V  V16  1  0.00630456  0.11930440  0.61303425  1
  V  V17  1  0.87448497  0.50123161  0.37539762  1
  V  V18  1  0.37061818  0.50535684  0.37568532  1
  V  V19  1  0.87451100  0.25080792  0.12018909  1
  V  V20  1  0.25241533  0.74359821  0.49024771  1
  V  V21  1  0.12125145  0.37181658  0.75019972  1
  V  V22  1  0.63066253  0.63412691  0.49984707  1
  V  V23  1  0.88006938  0.87891603  0.51314846  1
  V  V24  1  0.87409106  -0.00067749  0.86827804  1
  V  V25  1  0.00302028  -0.00287035  -0.00202798  1
  V  V26  1  0.87775973  0.48351535  0.88139983  1
  V  V27  1  0.25082023  0.37257859  0.62507345  1
  V  V28  1  0.74059940  0.24533317  0.49511840  1
  V  V29  1  0.25175480  0.11389953  0.37858762  1
  V  V30  1  0.87360402  0.37609217  0.49992193  1
  V  V31  1  0.25049470  0.11828990  0.87709144  1
  V  V32  1  0.37160466  0.62907935  0.25229523  1
  V  V33  1  0.37489065  0.74894253  0.62267465  1
  V  V34  1  0.11906099  0.24450503  0.87494445  1
  V  V35  1  0.49765885  0.24773332  0.75029240  1
  V  V36  1  0.64458709  0.88058342  0.74818162  1
  V  V37  1  0.50310349  0.00043697  0.49516717  1
  V  V38  1  0.62227123  0.75447737  0.87276011  1
  V  V39  1  0.37925566  0.87870957  -0.01550529  1
  V  V40  1  0.37498814  0.11958980  0.75428480  1
  V  V41  1  0.25190590  -0.00248818  0.74955772  1
  V  V42  1  -0.00241851  0.24595589  0.75064854  1
  V  V43  1  0.62300782  0.50217599  0.12397318  1
  V  V44  1  0.62151742  0.12494864  0.01010154  1
  V  V45  1  0.37518148  0.37443473  0.49943389  1
  V  V46  1  0.62980853  0.75671988  0.36873355  1
  V  V47  1  0.87422841  0.24810112  0.62385478  1
  V  V48  1  0.00422714  0.86830773  0.87466048  1
  V  V49  1  0.50013694  0.62714789  0.62575628  1
  V  V50  1  0.76132431  0.62757311  0.87206808  1
  V  V51  1  0.12627520  0.50199680  0.12656568  1
  V  V52  1  0.75079202  0.75644038  0.00239311  1
  V  V53  1  0.87860013  0.62680200  0.25072288  1
  V  V54  1  0.62239087  0.37601783  0.75309533  1
  V  V55  1  0.25823997  -0.00432958  0.24831425  1
  V  V56  1  0.12553921  0.86810312  0.74947530  1
  V  V57  1  0.48954519  0.49898697  -0.00909410  1
  V  V58  1  0.37771146  0.87847686  0.49228991  1
  V  V59  1  0.12354925  0.11942286  0.01057518  1
  V  V60  1  0.75124037  0.25530544  -0.00250926  1
  V  V61  1  0.50575635  0.87856042  0.36611640  1
  V  V62  1  -0.00211092  0.74145116  0.74843345  1
  V  V63  1  0.50255814  0.12056083  0.61943133  1
  V  V64  1  0.75552827  0.37949450  0.12305145  1
  V  V65  1  0.12483528  0.62872136  -0.00579716  1
  V  V66  1  0.25290397  0.49685889  0.76341853  1
  V  V67  1  0.86489385  0.74200302  0.62318004  1
  V  V68  1  0.74914192  0.37451927  0.62502148  1
  V  V69  1  0.24491900  0.25385345  0.01165136  1
  V  V70  1  0.12983981  0.37220481  0.24693228  1
  V  V71  1  0.37364755  0.75555980  0.12317876  1
  V  V72  1  0.37615521  0.62133503  0.75812654  1
  V  V73  1  0.75708020  0.50346177  0.75015045  1
  V  V74  1  0.63845938  -0.00059471  0.62376697  1
  V  V75  1  0.12624531  0.50264761  0.62491288  1
  V  V76  1  0.62485195  0.50242846  0.62605207  1
  V  V77  1  0.12110005  0.75970900  0.36805431  1
  V  V78  1  0.62969583  -0.01971169  0.12670409  1
  V  V79  1  0.49817530  0.62496786  0.12354462  1
  V  V80  1  0.12788004  0.62286449  0.49018415  1
  V  V81  1  0.00034552  0.37485429  0.37507061  1
  V  V82  1  0.38709959  0.25332757  0.12383390  1
  V  V83  1  0.86037045  0.12375673  0.25222865  1
  V  V84  1  0.62344078  0.62658867  -0.00243808  1
  Zn  Zn85  1  -0.01127969  0.48965839  0.00709263  1
  Zn  Zn86  1  0.74864229  0.50227437  0.24883613  1
  Zn  Zn87  1  0.35658638  0.38394611  -0.00564239  1
  Zn  Zn88  1  0.24440457  0.75611002  -0.00998433  1
  Zn  Zn89  1  0.50486981  0.24384864  0.24554432  1
  Zn  Zn90  1  0.61874664  0.23672907  0.37281357  1
  Zn  Zn91  1  0.50501317  0.75475702  0.24641907  1
  Zn  Zn92  1  0.71652166  0.96012957  0.28355228  1
  Zn  Zn93  1  0.37833980  0.12385772  0.24701019  1
  Zn  Zn94  1  -0.00294670  0.11690165  0.12953979  1
  Zn  Zn95  1  0.87128390  0.11914776  0.74497046  1
  Zn  Zn96  1  0.48573563  0.37843513  0.87122955  1
  Zn  Zn97  1  0.00464656  0.75992594  0.24972294  1
  Zn  Zn98  1  0.00182834  0.62400969  0.12645415  1
  Zn  Zn99  1  0.74126725  0.11125592  0.38190900  1
  Zn  Zn100  1  0.87095184  0.87823845  -0.00028150  1
  Zn  Zn101  1  0.00076058  0.50005127  0.50304105  1
  Zn  Zn102  1  0.12266058  -0.00172030  0.61346761  1
  Zn  Zn103  1  0.62431500  0.37585464  0.24905798  1
  Zn  Zn104  1  -0.00095465  0.62392860  0.62577097  1
  Zn  Zn105  1  0.24888224  0.62801790  0.87573111  1
  Zn  Zn106  1  0.12454380  0.24592939  0.37652713  1
  Zn  Zn107  1  0.18538106  0.18085901  0.19442952  1
  Zn  Zn108  1  0.18634650  0.18376805  0.68573019  1
  Zn  Zn109  1  0.19253179  0.68840386  0.18516053  1
  Zn  Zn110  1  0.18846410  0.68680884  0.68697136  1
  Zn  Zn111  1  0.68217827  0.19300591  0.18807269  1
  Zn  Zn112  1  0.68574932  0.18541701  0.68478205  1
  Zn  Zn113  1  0.69604873  0.80476773  0.18766730  1
  Zn  Zn114  1  0.68718682  0.68797677  0.69036094  1
  Zn  Zn115  1  0.31466210  0.31187515  0.31295996  1
  Zn  Zn116  1  0.30864956  0.30896555  0.81793058  1
  Zn  Zn117  1  0.31266929  0.81423543  0.31222141  1
  Zn  Zn118  1  0.30905337  0.80731240  0.81212677  1
  Zn  Zn119  1  0.80886556  0.31551767  0.30933795  1
  Zn  Zn120  1  0.81128316  0.31026793  0.81002549  1
  Zn  Zn121  1  0.82085268  0.80684564  0.32885365  1
  Zn  Zn122  1  0.81939961  0.81048910  0.81270922  1
  Zn  Zn123  1  0.18905063  0.43564120  0.43506460  1
  Zn  Zn124  1  0.14737851  0.42034012  0.95134994  1
  Zn  Zn125  1  0.18987768  0.93376195  0.43469106  1
  Zn  Zn126  1  0.18683246  0.93556672  0.93665957  1
  Zn  Zn127  1  0.68675467  0.44071812  0.43934939  1
  Zn  Zn128  1  0.68607148  0.43897851  0.93698062  1
  Zn  Zn129  1  0.69716921  0.92938373  0.45357468  1
  Zn  Zn130  1  0.68418878  0.93883201  0.93408697  1
  Zn  Zn131  1  0.31642425  0.06505211  0.06417344  1
  Zn  Zn132  1  0.31361300  0.05932975  0.56155865  1
  Zn  Zn133  1  0.30701834  0.56604076  0.06392843  1
  Zn  Zn134  1  0.31021605  0.56275376  0.56740958  1
  Zn  Zn135  1  0.81029758  0.06403935  0.05929404  1
  Zn  Zn136  1  0.81921528  0.06308762  0.55862294  1
  Zn  Zn137  1  0.81053566  0.56884581  0.06008874  1
  Zn  Zn138  1  0.81372473  0.56511650  0.56327274  1
  Zn  Zn139  1  0.43277840  0.43135979  0.18068213  1
  Zn  Zn140  1  0.43618923  0.43808451  0.68840643  1
  Zn  Zn141  1  0.44213783  0.94438438  0.18018137  1
  Zn  Zn142  1  0.43470099  0.93897719  0.68234374  1
  Zn  Zn143  1  0.93822364  0.43709490  0.18929252  1
  Zn  Zn144  1  0.93878231  0.43507550  0.69004059  1
  Zn  Zn145  1  0.88323078  0.91451931  0.21007350  1
  Zn  Zn146  1  0.93802371  0.93529838  0.68728484  1
  Zn  Zn147  1  0.06914952  0.06605631  0.43832272  1
  Zn  Zn148  1  0.06385661  0.05923105  0.80927074  1
  Zn  Zn149  1  0.06308626  0.56233038  0.31375505  1
  Zn  Zn150  1  0.06079161  0.55746643  0.81394015  1
  Zn  Zn151  1  0.56109172  0.06894190  0.30907679  1
  Zn  Zn152  1  0.56469721  0.06024251  0.81117220  1
  Zn  Zn153  1  0.56060048  0.56574133  0.31025489  1
  Zn  Zn154  1  0.56481783  0.56775043  0.81228805  1
  Zn  Zn155  1  0.43453641  0.18511165  0.43376074  1
  Zn  Zn156  1  0.43370274  0.18896248  0.93848551  1
  Zn  Zn157  1  0.44277766  0.69026936  0.43449052  1
  Zn  Zn158  1  0.43680663  0.69160999  0.93584569  1
  Zn  Zn159  1  0.92770030  0.18945252  0.43384142  1
  Zn  Zn160  1  0.93671783  0.18384330  0.93882765  1
  Zn  Zn161  1  0.94410314  0.69109711  0.44324978  1
  Zn  Zn162  1  0.94201001  0.68248210  0.93904315  1
  Zn  Zn163  1  0.05840110  0.31501348  0.06458222  1
  Zn  Zn164  1  0.06076987  0.31088350  0.56410116  1
  Zn  Zn165  1  0.05619772  0.80634197  0.06126072  1
  Zn  Zn166  1  0.05988795  0.81336979  0.55998692  1
  Zn  Zn167  1  0.56548916  0.31954407  0.05819848  1
  Zn  Zn168  1  0.56010821  0.31447745  0.56329434  1
  Zn  Zn169  1  0.55498776  0.81381418  0.05540666  1
  Zn  Zn170  1  0.56671414  0.81571100  0.56271615  1
  O  O171  1  0.12053534  0.12807817  0.11332560  1
  O  O172  1  0.10981163  0.12394039  0.62488305  1
  O  O173  1  0.12479916  0.61784011  0.12225209  1
  O  O174  1  0.12603982  0.61517297  0.61786180  1
  O  O175  1  0.62898209  0.12408791  0.11114745  1
  O  O176  1  0.61518058  0.10952287  0.63288639  1
  O  O177  1  0.61230515  0.61733508  0.11288295  1
  O  O178  1  0.62062353  0.62367696  0.61838441  1
  O  O179  1  0.38418239  0.38331846  0.38072214  1
  O  O180  1  0.37347031  0.37031769  0.88252980  1
  O  O181  1  0.38610917  0.86767728  0.38673084  1
  O  O182  1  0.37087024  0.87559915  0.88652317  1
  O  O183  1  0.88035970  0.38081598  0.37887045  1
  O  O184  1  0.86723784  0.38487728  0.87707762  1
  O  O185  1  0.88745936  0.89069428  0.37080569  1
  O  O186  1  0.88554932  0.88180921  0.87718767  1
  O  O187  1  0.25080131  0.00711180  0.36613985  1
  O  O188  1  0.24427386  0.01054173  0.86697056  1
  O  O189  1  0.26419345  0.49693784  0.36768464  1
  O  O190  1  0.24231389  0.50145693  0.86261978  1
  O  O191  1  0.76006884  -0.00397327  0.38080208  1
  O  O192  1  0.76023235  0.01007254  0.88455526  1
  O  O193  1  0.75600412  0.50995841  0.37584718  1
  O  O194  1  0.75616333  0.50590671  0.86909822  1
  O  O195  1  0.24586457  0.50092524  0.14008208  1
  O  O196  1  0.23962303  0.49248725  0.63179393  1
  O  O197  1  0.25210290  0.98937910  0.12744541  1
  O  O198  1  0.24886893  0.99176083  0.63172122  1
  O  O199  1  0.74224352  0.49544009  0.12051914  1
  O  O200  1  0.74519140  0.49635249  0.63307112  1
  O  O201  1  0.72932539  0.99849712  0.11009514  1
  O  O202  1  0.73724312  1.00830135  0.62126665  1
  O  O203  1  0.00428885  0.36625589  0.25773780  1
  O  O204  1  0.00864583  0.35779228  0.74294076  1
  O  O205  1  0.00315153  0.88312256  0.23603297  1
  O  O206  1  0.00820086  0.86801405  0.75504629  1
  O  O207  1  0.49967260  0.37445017  0.25803631  1
  O  O208  1  0.50647524  0.36997733  0.75071388  1
  O  O209  1  0.49335914  0.87845786  0.26381939  1
  O  O210  1  0.49958309  0.86557185  0.74529370  1
  O  O211  1  0.49054185  0.13118069  0.25130121  1
  O  O212  1  0.49408786  0.12567098  0.74232811  1
  O  O213  1  0.48896318  0.62673621  0.24035273  1
  O  O214  1  0.49497794  0.63218145  0.74340608  1
  O  O215  1  0.98645303  0.14258902  0.24786126  1
  O  O216  1  0.99954654  0.13438802  0.74184465  1
  O  O217  1  0.98772351  0.62357037  0.25285416  1
  O  O218  1  1.00949158  0.63890902  0.75000212  1
  O  O219  1  0.35781308  0.24780279  0.00683856  1
  O  O220  1  0.36706697  0.25516719  0.50681734  1
  O  O221  1  0.37721998  0.76468365  0.00492822  1
  O  O222  1  0.37011151  0.75236105  0.50302747  1
  O  O223  1  0.86732186  0.24489661  0.01127992  1
  O  O224  1  0.86455770  0.25938637  0.50508807  1
  O  O225  1  0.86696129  0.74428119  0.00612430  1
  O  O226  1  0.88189970  0.75283517  0.51863678  1
  O  O227  1  0.14022351  0.25638830  0.50035498  1
  O  O228  1  0.12947338  0.23888061  0.99271362  1
  O  O229  1  0.13265603  0.74256009  0.49117898  1
  O  O230  1  0.12417026  0.73244082  1.00614425  1
  O  O231  1  0.63829679  0.25750973  0.50156694  1
  O  O232  1  0.62906840  0.24358562  0.99387031  1
  O  O233  1  0.61949800  0.74041710  0.49051922  1
  O  O234  1  0.62806943  0.74810499  0.98925152  1
  O  O235  1  0.48946245  0.25474585  0.11750603  1
  O  O236  1  0.49652310  0.24023046  0.62923401  1
  O  O237  1  0.48935684  0.74680470  0.12541220  1
  O  O238  1  0.49681356  0.74623177  0.63131377  1
  O  O239  1  0.98943969  0.25205744  0.13048793  1
  O  O240  1  0.99481459  0.24034610  0.63016031  1
  O  O241  1  0.99099356  0.74271592  0.13025177  1
  O  O242  1  0.99593436  0.74779596  0.63644538  1
  O  O243  1  -0.00166450  0.25943178  0.36868759  1
  O  O244  1  0.01069626  0.24080751  0.86761465  1
  O  O245  1  0.01662795  0.74681256  0.37134066  1
  O  O246  1  -0.00798912  0.75745557  0.86335320  1
  O  O247  1  0.50015118  0.26319322  0.38011492  1
  O  O248  1  0.50640608  0.24960791  0.86800937  1
  O  O249  1  0.51113921  0.76008426  0.37155767  1
  O  O250  1  0.51386195  0.74472054  0.86434531  1
  O  O251  1  0.25817108  0.13097813  0.49002295  1
  O  O252  1  0.24190469  0.12749191  0.99351927  1
  O  O253  1  0.24302798  0.63414445  0.50651245  1
  O  O254  1  0.23950389  0.63073403  0.99937291  1
  O  O255  1  0.75544428  0.14349555  0.50210304  1
  O  O256  1  0.74256784  0.13721263  0.99129138  1
  O  O257  1  0.73791653  0.61888604  0.49431283  1
  O  O258  1  0.74217661  0.63500638  0.98982461  1
  O  O259  1  0.23791191  0.35560229  -0.00560410  1
  O  O260  1  0.25672910  0.36810662  0.50478587  1
  O  O261  1  0.26088902  0.87816135  0.00525306  1
  O  O262  1  0.26116228  0.86593664  0.50118635  1
  O  O263  1  0.74283654  0.36220933  0.00453418  1
  O  O264  1  0.75363908  0.37110841  0.50774821  1
  O  O265  1  0.75090196  0.85972082  -0.01204859  1
  O  O266  1  0.78152044  0.86090911  0.48638111  1
  O  O267  1  0.13346565  0.49588402  0.24623209  1
  O  O268  1  0.12937012  0.48987714  0.74481478  1
  O  O269  1  0.13392375  0.99395426  0.23958990  1
  O  O270  1  0.13490089  0.98860758  0.74512414  1
  O  O271  1  0.62430677  0.50344973  0.23405481  1
  O  O272  1  0.63106781  0.49345750  0.74635647  1
  O  O273  1  0.62426292  0.99823840  0.23127203  1
  O  O274  1  0.62277881  0.98686380  0.74111443  1
  O  O275  1  0.36230857  0.00241667  0.23988736  1
  O  O276  1  0.36088788  0.00312176  0.74552826  1
  O  O277  1  0.37017312  0.50425814  0.25444688  1
  O  O278  1  0.36570563  0.50947075  0.74316855  1
  O  O279  1  0.87470521  0.01248443  0.26374675  1
  O  O280  1  0.88034912  0.00084825  0.76402132  1
  O  O281  1  0.87487831  0.50531524  0.26057842  1
  O  O282  1  0.86191271  0.49229480  0.75759673  1
  O  O283  1  0.11600376  0.37359464  0.36627141  1
  O  O284  1  0.13387305  0.35912453  0.85529886  1
  O  O285  1  0.13013932  0.85768324  0.37223315  1
  O  O286  1  0.11259934  0.87868540  0.86593611  1
  O  O287  1  0.61007016  0.38359057  0.37521719  1
  O  O288  1  0.62422696  0.37059543  0.86288347  1
  O  O289  1  0.62208777  0.86830144  0.38012438  1
  O  O290  1  0.62775656  0.86871354  0.85877404  1
  O  O291  1  0.36462377  0.14803084  0.12533015  1
  O  O292  1  0.38244580  0.12702129  0.63309815  1
  O  O293  1  0.37853776  0.63558848  0.12890839  1
  O  O294  1  0.38107929  0.63091859  0.63207079  1
  O  O295  1  0.87457736  0.13231227  0.13166149  1
  O  O296  1  0.88480464  0.13072281  0.62613714  1
  O  O297  1  0.87511033  0.63099711  0.13427445  1
  O  O298  1  0.87927076  0.63575417  0.62493851  1
  O  O299  1  0.24109260  0.24750488  0.11189093  1
  O  O300  1  0.25517686  0.25137956  0.61889660  1
  O  O301  1  0.26036989  0.76190553  0.12099109  1
  O  O302  1  0.25519177  0.75572104  0.61540658  1
  O  O303  1  0.75481123  0.25896823  0.11729455  1
  O  O304  1  0.75305524  0.25497100  0.61768924  1
  O  O305  1  0.75694926  0.74336465  0.11221022  1
  O  O306  1  0.76589692  0.74581410  0.63215157  1
  O  O307  1  0.24931579  0.24567974  0.38332785  1
  O  O308  1  0.23675780  0.23474159  0.87877414  1
  O  O309  1  0.24516492  0.74986728  0.38530402  1
  O  O310  1  0.24887997  0.74262129  0.87695764  1
  O  O311  1  0.74740336  0.25797971  0.39013806  1
  O  O312  1  0.74389047  0.24584563  0.88138014  1
  O  O313  1  0.74450135  0.73599238  0.37579078  1
  O  O314  1  0.74320518  0.74317719  0.87481439  1
  O  O315  1  0.00629723  0.11512227  0.00362810  1
  O  O316  1  -0.00147964  0.13342541  0.50933380  1
  O  O317  1  0.01197148  0.61442996  0.00303869  1
  O  O318  1  0.01319833  0.61993118  0.50459994  1
  O  O319  1  0.50540516  0.11392526  -0.00373213  1
  O  O320  1  0.49251796  0.11665962  0.51152730  1
  O  O321  1  0.50125745  0.61736200  0.00268821  1
  O  O322  1  0.50820368  0.62075182  0.50486665  1
  O  O323  1  0.49346946  0.38417076  0.49628593  1
  O  O324  1  0.50233890  0.39273854  0.99442089  1
  O  O325  1  0.49559584  0.88065701  0.49381929  1
  O  O326  1  0.48649099  0.88404464  0.99562219  1
  O  O327  1  0.99390196  0.37458214  0.49212319  1
  O  O328  1  1.03970701  0.39080418  0.98709935  1
  O  O329  1  0.98185138  0.86727925  0.49811806  1
  O  O330  1  1.00034301  0.87960785  0.99046360  1
  O  O331  1  0.49005233  0.49702466  0.37924289  1
  O  O332  1  0.50480388  0.50321350  0.88814758  1
  O  O333  1  0.51025511  0.99276172  0.38901368  1
  O  O334  1  0.50651661  0.99982907  0.89033556  1
  O  O335  1  0.99490407  0.48773175  0.37665645  1
  O  O336  1  0.97825623  0.50014353  0.86837940  1
  O  O337  1  0.98442509  1.01664402  0.37801948  1
  O  O338  1  0.99422658  0.99365840  0.88084579  1
  O  O339  1  0.00832476  -0.00304557  0.11961801  1
  O  O340  1  -0.00088482  0.01674679  0.62938673  1
  O  O341  1  0.01041826  0.50190697  0.12667930  1
  O  O342  1  0.01362013  0.49875802  0.62694940  1
  O  O343  1  0.51899186  -0.00845346  0.10875532  1
  O  O344  1  0.50656642  0.00488931  0.61712049  1
  O  O345  1  0.50483910  0.50291970  0.11488799  1
  O  O346  1  0.50587899  0.50683832  0.62050300  1
  O  O347  1  0.24056878  0.38395567  0.25846775  1
  O  O348  1  0.24501201  0.37843469  0.74185332  1
  O  O349  1  0.25491980  0.88224955  0.24032284  1
  O  O350  1  0.24485432  0.87919138  0.74409106  1
  O  O351  1  0.74648569  0.38274680  0.23854358  1
  O  O352  1  0.74121217  0.38035694  0.74422401  1
  O  O353  1  0.77142163  0.87078531  0.24381548  1
  O  O354  1  0.74238430  0.87452225  0.75108528  1
  O  O355  1  0.25156199  0.11520414  0.25923952  1
  O  O356  1  0.25264963  0.11580524  0.75503067  1
  O  O357  1  0.26511058  0.61742958  0.24685329  1
  O  O358  1  0.25851186  0.61509352  0.74793278  1
  O  O359  1  0.75824893  0.13114485  0.24957014  1
  O  O360  1  0.75070128  0.13248302  0.76462376  1
  O  O361  1  0.76769049  0.61962893  0.26391559  1
  O  O362  1  0.74172889  0.61317676  0.75932349  1
  O  O363  1  0.35652493  0.13206282  0.36888742  1
  O  O364  1  0.36371115  0.12984057  0.86568790  1
  O  O365  1  0.38323390  0.61736470  0.36529785  1
  O  O366  1  0.37698539  0.62719891  0.86080080  1
  O  O367  1  0.86362457  0.11944645  0.36928259  1
  O  O368  1  0.86705882  0.11744040  0.87369743  1
  O  O369  1  0.87103000  0.62218571  0.37624208  1
  O  O370  1  0.86315074  0.62047576  0.87592587  1
  O  O371  1  0.12211311  0.38324215  0.14156048  1
  O  O372  1  0.13056011  0.37825672  0.63289341  1
  O  O373  1  0.12901634  0.87565264  0.12395739  1
  O  O374  1  0.13148696  0.87447562  0.63074600  1
  O  O375  1  0.63566466  0.38523686  0.12283186  1
  O  O376  1  0.62775689  0.38082321  0.63536600  1
  O  O377  1  0.62718976  0.87489374  0.12346560  1
  O  O378  1  0.62489247  0.88483101  0.63750782  1
  O  O379  1  0.11576106  0.25642477  0.25126816  1
  O  O380  1  0.11898702  0.25144358  0.75444201  1
  O  O381  1  0.12754597  0.74070130  0.26475468  1
  O  O382  1  0.11712464  0.76133644  0.74431233  1
  O  O383  1  0.62161994  0.25900115  0.25505364  1
  O  O384  1  0.61799577  0.25719854  0.75238520  1
  O  O385  1  0.62511060  0.75076752  0.26348493  1
  O  O386  1  0.61978576  0.76243513  0.75206462  1
  O  O387  1  0.37469816  0.25758926  0.23140734  1
  O  O388  1  0.37896090  0.24157963  0.74284521  1
  O  O389  1  0.37647805  0.74422043  0.24203135  1
  O  O390  1  0.38275902  0.74408872  0.74287324  1
  O  O391  1  0.87648381  0.24803806  0.23965151  1
  O  O392  1  0.88205225  0.24781344  0.74317626  1
  O  O393  1  0.88030149  0.74256979  0.24469601  1
  O  O394  1  0.88830698  0.75584311  0.73763018  1
  O  O395  1  0.37783050  0.49781864  0.49364554  1
  O  O396  1  0.38647859  0.50226011  1.00575476  1
  O  O397  1  0.38740507  0.98801400  0.50514375  1
  O  O398  1  0.38786956  0.99292870  1.00497771  1
  O  O399  1  0.87706494  0.49363380  0.49425539  1
  O  O400  1  0.87248468  0.50185545  0.98641319  1
  O  O401  1  0.87585700  0.98903105  0.49320773  1
  O  O402  1  0.88731379  1.00037481  0.99347864  1
  O  O403  1  0.11233246  0.00606443  -0.00709880  1
  O  O404  1  0.12880868  -0.00309172  0.50084897  1
  O  O405  1  0.13960056  0.51284199  0.01968607  1
  O  O406  1  0.12829537  0.50493885  0.50732565  1
  O  O407  1  0.61637765  0.00523951  0.00297397  1
  O  O408  1  0.61933871  -0.01055881  0.51744082  1
  O  O409  1  0.61754265  0.50605537  0.00609570  1
  O  O410  1  0.61881440  0.50893171  0.50802517  1
  O  O411  1  0.37098737  0.36072444  0.11142527  1
  O  O412  1  0.37044834  0.36821648  0.61943467  1
  O  O413  1  0.37010797  0.87043871  0.11726662  1
  O  O414  1  0.37053066  0.86682685  0.61377017  1
  O  O415  1  0.86340517  0.36980229  0.12623444  1
  O  O416  1  0.86924446  0.36919255  0.62046531  1
  O  O417  1  0.87792465  0.85618383  0.11430713  1
  O  O418  1  0.87626248  0.86749754  0.61957761  1
  O  O419  1  0.14472393  0.13064226  0.37697908  1
  O  O420  1  0.12940190  0.12777503  0.88130664  1
  O  O421  1  0.12732267  0.62528071  0.38714985  1
  O  O422  1  0.12438124  0.61371506  0.89190851  1
  O  O423  1  0.63033710  0.12399183  0.37769668  1
  O  O424  1  0.63147239  0.12877916  0.88114734  1
  O  O425  1  0.63227249  0.63010029  0.38067223  1
  O  O426  1  0.63351059  0.63490914  0.87842538  1
