# generated using pymatgen
data_V85Zn86O256
_symmetry_space_group_name_H-M   'P 1'
_cell_length_a   16.96267467
_cell_length_b   16.97224114
_cell_length_c   16.96537031
_cell_angle_alpha   90.03058929
_cell_angle_beta   89.97000360
_cell_angle_gamma   89.96352548
_symmetry_Int_Tables_number   1
_chemical_formula_structural   V85Zn86O256
_chemical_formula_sum   'V85 Zn86 O256'
_cell_volume   4884.23622640
_cell_formula_units_Z   1
loop_
 _symmetry_equiv_pos_site_id
 _symmetry_equiv_pos_as_xyz
  1  'x, y, z'
loop_
 _atom_site_type_symbol
 _atom_site_label
 _atom_site_symmetry_multiplicity
 _atom_site_fract_x
 _atom_site_fract_y
 _atom_site_fract_z
 _atom_site_occupancy
  V  V0  1  0.00151179  0.12893998  0.63341105  1
  V  V1  1  0.37065551  0.87402128  0.51345105  1
  V  V2  1  0.74722167  0.74840291  0.00163545  1
  V  V3  1  0.62533251  0.87271597  0.25321469  1
  V  V4  1  0.74379963  0.75206478  0.49234849  1
  V  V5  1  0.87844998  0.23649578  0.12929183  1
  V  V6  1  0.75147279  0.12273013  0.87056677  1
  V  V7  1  0.25019447  0.75435375  0.51266321  1
  V  V8  1  0.87837519  0.37280565  0.00303459  1
  V  V9  1  0.62504055  0.24874972  0.37474702  1
  V  V10  1  0.87817289  0.37709812  0.49859464  1
  V  V11  1  0.88524411  0.87261330  -0.00291442  1
  V  V12  1  0.19597904  0.04893536  0.19059704  1
  V  V13  1  0.62553144  0.12330389  0.50253531  1
  V  V14  1  0.13008714  -0.00398208  0.62501698  1
  V  V15  1  0.89004165  0.74592204  0.12677155  1
  V  V16  1  0.12570780  0.12619509  0.49931177  1
  V  V17  1  0.12618209  0.87259224  0.74686071  1
  V  V18  1  0.74423607  0.50153413  0.74973751  1
  V  V19  1  0.48021219  0.74789895  0.74662694  1
  V  V20  1  0.87294969  0.62564793  0.75026405  1
  V  V21  1  0.50003911  0.00054015  0.50133118  1
  V  V22  1  -0.00037147  0.23557330  0.24912020  1
  V  V23  1  0.87850486  0.25124986  0.63425784  1
  V  V24  1  0.88890125  0.62794813  0.24868603  1
  V  V25  1  -0.00177666  0.75514126  0.75315565  1
  V  V26  1  0.00058271  0.87382237  0.36486404  1
  V  V27  1  0.25161163  0.62341212  0.86638461  1
  V  V28  1  0.50506433  0.87272273  0.87119755  1
  V  V29  1  0.12001581  0.75025259  0.37127308  1
  V  V30  1  0.62699906  -0.00188303  0.12558311  1
  V  V31  1  0.50254097  0.87243824  0.37673416  1
  V  V32  1  -0.00087514  0.50845992  0.00425778  1
  V  V33  1  0.24920091  0.62583360  0.37373199  1
  V  V34  1  0.24634142  0.48204760  0.24502512  1
  V  V35  1  0.12402195  0.49095292  0.12564973  1
  V  V36  1  0.87270072  0.49899689  0.87573122  1
  V  V37  1  0.37388470  0.87533771  0.00410320  1
  V  V38  1  0.12325056  0.62509744  0.50101026  1
  V  V39  1  0.13836515  0.37286928  0.74894927  1
  V  V40  1  0.74768389  0.37582276  0.62392557  1
  V  V41  1  0.75182499  0.37284415  0.12684259  1
  V  V42  1  0.75158645  0.87112131  0.12645641  1
  V  V43  1  0.00055261  -0.00210867  0.50129334  1
  V  V44  1  0.36912744  -0.00055148  0.37437506  1
  V  V45  1  0.37119644  0.62315021  0.24939045  1
  V  V46  1  0.00941300  0.01012611  0.01306943  1
  V  V47  1  0.49759894  0.12908171  0.63136254  1
  V  V48  1  0.36983016  0.75221195  0.12823419  1
  V  V49  1  0.12887858  0.26168773  0.37651630  1
  V  V50  1  -0.00532182  0.37018385  0.86231007  1
  V  V51  1  0.49481966  0.37866280  0.38632259  1
  V  V52  1  0.62608316  0.12585666  -0.00032199  1
  V  V53  1  0.61910539  0.25051719  0.86714705  1
  V  V54  1  0.11656031  0.24463815  0.87903640  1
  V  V55  1  0.25611894  0.24927900  0.51876392  1
  V  V56  1  0.37391193  0.25644467  0.11831370  1
  V  V57  1  0.24511597  0.12344065  0.88457561  1
  V  V58  1  0.75776045  0.00243942  0.25053251  1
  V  V59  1  0.00211856  0.37690879  0.36662498  1
  V  V60  1  0.13708509  0.49892821  0.63363099  1
  V  V61  1  0.86774786  0.75468770  0.62412788  1
  V  V62  1  0.25262258  -0.00478318  0.75088155  1
  V  V63  1  0.75861020  0.12567152  0.37257489  1
  V  V64  1  0.62681347  0.74902375  0.86189791  1
  V  V65  1  0.50568744  0.74680801  0.25361585  1
  V  V66  1  0.87333123  0.87615780  0.50054102  1
  V  V67  1  0.62398350  0.50821014  0.61239158  1
  V  V68  1  0.50413998  -0.00465626  -0.00064690  1
  V  V69  1  0.62336798  0.50045726  0.12367073  1
  V  V70  1  0.74938205  -0.01485583  0.74811554  1
  V  V71  1  0.48706211  0.62955570  0.61977542  1
  V  V72  1  0.62943614  -0.01033103  0.62957599  1
  V  V73  1  0.88453111  -0.00459981  0.87407067  1
  V  V74  1  0.49435790  0.50024498  -0.00042647  1
  V  V75  1  0.37404456  0.13309368  0.75182983  1
  V  V76  1  0.14253168  0.87087684  0.24143596  1
  V  V77  1  -0.00130976  0.62295894  0.62493559  1
  V  V78  1  0.75177637  0.50373826  0.25114173  1
  V  V79  1  0.75161713  0.24961100  0.49998863  1
  V  V80  1  0.37890950  0.11940842  0.24767057  1
  V  V81  1  0.50093633  0.25129582  0.24956866  1
  V  V82  1  0.37135854  0.50469911  0.86438598  1
  V  V83  1  0.24980465  0.75093438  0.00298918  1
  V  V84  1  0.12114965  0.75223385  0.87727119  1
  Zn  Zn85  1  0.74424323  0.63195440  0.36965490  1
  Zn  Zn86  1  0.24830381  0.12403815  0.37338663  1
  Zn  Zn87  1  0.49884356  0.62424646  0.12517464  1
  Zn  Zn88  1  0.87782664  0.12532519  0.75251407  1
  Zn  Zn89  1  0.50371033  0.12583354  0.12392348  1
  Zn  Zn90  1  0.62424469  0.37550958  0.25149855  1
  Zn  Zn91  1  0.37602328  -0.00108942  0.87497263  1
  Zn  Zn92  1  0.61648238  0.63060936  0.49034921  1
  Zn  Zn93  1  0.62273227  0.62583963  -0.00165927  1
  Zn  Zn94  1  0.75090572  0.24925213  0.00014111  1
  Zn  Zn95  1  0.44230163  0.29593593  0.69723002  1
  Zn  Zn96  1  0.23397091  0.25301243  0.00768057  1
  Zn  Zn97  1  0.36630859  0.38085849  0.52620773  1
  Zn  Zn98  1  0.37822558  0.50048308  0.38121292  1
  Zn  Zn99  1  0.74750915  0.62357644  0.87650145  1
  Zn  Zn100  1  0.49518144  0.37334604  0.87224867  1
  Zn  Zn101  1  0.12213664  0.62704833  0.00718472  1
  Zn  Zn102  1  0.61911809  0.37377804  0.74599432  1
  Zn  Zn103  1  0.36310611  0.38438323  0.00339133  1
  Zn  Zn104  1  0.87734349  0.50415920  0.37587257  1
  Zn  Zn105  1  0.00600170  0.49670320  0.49962941  1
  Zn  Zn106  1  0.87904347  0.00412611  0.37248483  1
  Zn  Zn107  1  0.18807313  0.21299228  0.19248947  1
  Zn  Zn108  1  0.18362511  0.18597522  0.69818403  1
  Zn  Zn109  1  0.18157627  0.68378918  0.18475526  1
  Zn  Zn110  1  0.18615972  0.68530558  0.68848230  1
  Zn  Zn111  1  0.68952189  0.18680700  0.18793228  1
  Zn  Zn112  1  0.68947745  0.18182487  0.68686896  1
  Zn  Zn113  1  0.68910294  0.68453072  0.18674577  1
  Zn  Zn114  1  0.68680592  0.68773907  0.68264627  1
  Zn  Zn115  1  0.31636018  0.30520612  0.31697321  1
  Zn  Zn116  1  0.30491858  0.31602515  0.83083144  1
  Zn  Zn117  1  0.31412230  0.81011695  0.31918117  1
  Zn  Zn118  1  0.30994319  0.81533272  0.81811321  1
  Zn  Zn119  1  0.81709634  0.31238873  0.31092238  1
  Zn  Zn120  1  0.80530615  0.31322849  0.81304492  1
  Zn  Zn121  1  0.81730580  0.81229047  0.31141557  1
  Zn  Zn122  1  0.81260653  0.81210567  0.81542883  1
  Zn  Zn123  1  0.20876324  0.44639301  0.45062824  1
  Zn  Zn124  1  0.18404518  0.43501870  0.93929788  1
  Zn  Zn125  1  0.18859563  0.93540444  0.43574571  1
  Zn  Zn126  1  0.18542343  0.93400608  0.93683270  1
  Zn  Zn127  1  0.68753433  0.43657106  0.43330437  1
  Zn  Zn128  1  0.68665040  0.43582283  0.93997229  1
  Zn  Zn129  1  0.68855664  0.93666015  0.43860793  1
  Zn  Zn130  1  0.69078582  0.93360305  0.93538346  1
  Zn  Zn131  1  0.31948735  0.06664977  0.05894046  1
  Zn  Zn132  1  0.31290888  0.06426431  0.56508822  1
  Zn  Zn133  1  0.30736114  0.56555828  0.06397417  1
  Zn  Zn134  1  0.30995284  0.56352661  0.56099282  1
  Zn  Zn135  1  0.81334557  0.05792676  0.05828889  1
  Zn  Zn136  1  0.81270448  0.06177539  0.56403285  1
  Zn  Zn137  1  0.81401245  0.56429622  0.06614818  1
  Zn  Zn138  1  0.81084299  0.56539941  0.56054871  1
  Zn  Zn139  1  0.43710689  0.43685352  0.19210157  1
  Zn  Zn140  1  0.44119099  0.45478053  0.69089751  1
  Zn  Zn141  1  0.43766611  0.93648248  0.18621619  1
  Zn  Zn142  1  0.44225556  0.94076528  0.69136991  1
  Zn  Zn143  1  0.93881943  0.43771143  0.18715957  1
  Zn  Zn144  1  0.93533809  0.44137020  0.68500320  1
  Zn  Zn145  1  0.93930627  0.93568780  0.18580367  1
  Zn  Zn146  1  0.93865668  0.93731930  0.68740949  1
  Zn  Zn147  1  0.06279124  0.06109707  0.31694690  1
  Zn  Zn148  1  0.06255489  0.05988126  0.81439863  1
  Zn  Zn149  1  0.06692118  0.55678428  0.31127861  1
  Zn  Zn150  1  0.06323236  0.56183151  0.81620267  1
  Zn  Zn151  1  0.56489833  0.06099910  0.31444269  1
  Zn  Zn152  1  0.56346280  0.06057938  0.81049178  1
  Zn  Zn153  1  0.56469356  0.56154838  0.31509340  1
  Zn  Zn154  1  0.55929671  0.56789301  0.81042627  1
  Zn  Zn155  1  0.43601612  0.18706684  0.43839105  1
  Zn  Zn156  1  0.43840675  0.18243978  0.93516753  1
  Zn  Zn157  1  0.43273688  0.69166356  0.43737809  1
  Zn  Zn158  1  0.43786108  0.68493868  0.93837947  1
  Zn  Zn159  1  0.94063960  0.19087558  0.44166954  1
  Zn  Zn160  1  0.93796133  0.18612064  0.93959416  1
  Zn  Zn161  1  0.93598424  0.68735738  0.43502386  1
  Zn  Zn162  1  0.93487092  0.68711236  0.93572006  1
  Zn  Zn163  1  0.05908453  0.31478064  0.06324722  1
  Zn  Zn164  1  0.06478342  0.31362562  0.56457622  1
  Zn  Zn165  1  0.06511290  0.81953343  0.06269395  1
  Zn  Zn166  1  0.05986725  0.81117515  0.56184653  1
  Zn  Zn167  1  0.56027522  0.31516396  0.05898568  1
  Zn  Zn168  1  0.56403595  0.31416108  0.56168576  1
  Zn  Zn169  1  0.56185450  0.80905227  0.06431398  1
  Zn  Zn170  1  0.55828296  0.81231884  0.56611562  1
  O  O171  1  0.14136397  0.11626220  0.14223781  1
  O  O172  1  0.11823538  0.11844267  0.62114487  1
  O  O173  1  0.13121111  0.60632135  0.12078547  1
  O  O174  1  0.11481504  0.61946381  0.62403919  1
  O  O175  1  0.62693598  0.11921312  0.11513319  1
  O  O176  1  0.62035615  0.11696078  0.61940808  1
  O  O177  1  0.62330199  0.61111660  0.12378891  1
  O  O178  1  0.62032599  0.62233681  0.61565574  1
  O  O179  1  0.39037830  0.37089189  0.37408212  1
  O  O180  1  0.37588663  0.39373922  0.87646768  1
  O  O181  1  0.38482096  0.88348782  0.37859639  1
  O  O182  1  0.38692794  0.87321557  0.88699080  1
  O  O183  1  0.88354511  0.37567950  0.38333515  1
  O  O184  1  0.87571645  0.37789020  0.88297731  1
  O  O185  1  0.88571258  0.87595568  0.38116785  1
  O  O186  1  0.87013481  0.88265857  0.88575261  1
  O  O187  1  0.26500557  0.00271480  0.37963987  1
  O  O188  1  0.24870394  0.00533538  0.86818135  1
  O  O189  1  0.24067970  0.51468823  0.35805177  1
  O  O190  1  0.25785847  0.51512961  0.88236415  1
  O  O191  1  0.75144508  0.00807234  0.36812076  1
  O  O192  1  0.75646115  0.00443355  0.86811026  1
  O  O193  1  0.75451441  0.49475843  0.35925101  1
  O  O194  1  0.75370283  0.49941580  0.86743238  1
  O  O195  1  0.24774930  0.49898750  0.13958972  1
  O  O196  1  0.23526630  0.51210189  0.63398796  1
  O  O197  1  0.25428404  0.99981314  0.12652240  1
  O  O198  1  0.23639524  1.00554218  0.63325358  1
  O  O199  1  0.74526656  0.49338415  0.13235423  1
  O  O200  1  0.74421572  0.49786676  0.63123225  1
  O  O201  1  0.74677828  0.99267310  0.13154719  1
  O  O202  1  0.74302193  1.00590305  0.63639574  1
  O  O203  1  -0.00519520  0.36977113  0.26421532  1
  O  O204  1  -0.00785901  0.37731533  0.76113732  1
  O  O205  1  0.00898375  0.88187818  0.26232852  1
  O  O206  1  0.00630357  0.86143825  0.74660629  1
  O  O207  1  0.50094675  0.36222446  0.25759238  1
  O  O208  1  0.50464988  0.37659069  0.75659064  1
  O  O209  1  0.50447628  0.86751562  0.25650183  1
  O  O210  1  0.49591644  0.86140056  0.75850609  1
  O  O211  1  0.49608383  0.13484583  0.25112527  1
  O  O212  1  0.48812426  0.11838241  0.74453678  1
  O  O213  1  0.48794486  0.63032599  0.25183994  1
  O  O214  1  0.50197263  0.64175463  0.73972078  1
  O  O215  1  1.00003375  0.13693149  0.25668962  1
  O  O216  1  0.99769396  0.11947737  0.73688534  1
  O  O217  1  0.98735158  0.62037092  0.25404878  1
  O  O218  1  0.99432990  0.63332500  0.74438790  1
  O  O219  1  0.38453981  0.24779330  0.01498571  1
  O  O220  1  0.35797250  0.24439335  0.49998363  1
  O  O221  1  0.37080033  0.75475673  0.00827293  1
  O  O222  1  0.36226120  0.76260307  0.49471795  1
  O  O223  1  0.87403569  0.25789836  0.00862602  1
  O  O224  1  0.87083306  0.26065054  0.50775592  1
  O  O225  1  0.86918121  0.75509040  0.00450886  1
  O  O226  1  0.87045078  0.75742156  0.50606930  1
  O  O227  1  0.13062355  0.24155887  0.49636925  1
  O  O228  1  0.11699011  0.25266438  0.98492277  1
  O  O229  1  0.12959528  0.74580991  0.49233673  1
  O  O230  1  0.13115094  0.75262481  0.99364325  1
  O  O231  1  0.63246276  0.24433282  0.49414275  1
  O  O232  1  0.62831416  0.24055215  0.99398308  1
  O  O233  1  0.64281200  0.75766396  0.50713470  1
  O  O234  1  0.63282415  0.74832426  0.99420242  1
  O  O235  1  0.49595304  0.24837221  0.13359543  1
  O  O236  1  0.51113561  0.23364133  0.62641795  1
  O  O237  1  0.48832434  0.74756271  0.13362364  1
  O  O238  1  0.50108507  0.74454520  0.63905112  1
  O  O239  1  0.99495268  0.25383665  0.14076015  1
  O  O240  1  0.99102444  0.24064047  0.61892824  1
  O  O241  1  0.98880749  0.75175881  0.11785529  1
  O  O242  1  0.99306958  0.73965040  0.63112314  1
  O  O243  1  0.00518585  0.25511438  0.36828500  1
  O  O244  1  0.00127691  0.25808654  0.87550893  1
  O  O245  1  0.01240669  0.75781286  0.38010142  1
  O  O246  1  0.00833883  0.74310354  0.86553083  1
  O  O247  1  0.50461780  0.25484718  0.36917351  1
  O  O248  1  0.51581989  0.24897967  0.87973809  1
  O  O249  1  0.49305233  0.76022040  0.36475740  1
  O  O250  1  0.50475896  0.75179572  0.86429549  1
  O  O251  1  0.23884096  0.13028417  0.50054011  1
  O  O252  1  0.25379698  0.12906926  0.98744206  1
  O  O253  1  0.24229645  0.63396236  0.49102654  1
  O  O254  1  0.24794681  0.63925076  0.99354290  1
  O  O255  1  0.74509138  0.13018916  0.49438963  1
  O  O256  1  0.74010273  0.12048299  0.98804867  1
  O  O257  1  0.75419947  0.64349991  0.49695931  1
  O  O258  1  0.75104939  0.63772469  1.00008428  1
  O  O259  1  0.25442973  0.36200417  -0.01689772  1
  O  O260  1  0.24605014  0.35153683  0.50414961  1
  O  O261  1  0.26039019  0.86170402  -0.00887289  1
  O  O262  1  0.25806842  0.86707318  0.49596812  1
  O  O263  1  0.76074708  0.37564828  0.01112598  1
  O  O264  1  0.75730555  0.36934418  0.50364215  1
  O  O265  1  0.75796368  0.86416466  0.00501991  1
  O  O266  1  0.76450403  0.86773609  0.49506937  1
  O  O267  1  0.13812607  0.49879814  0.24197104  1
  O  O268  1  0.11541246  0.48499880  0.74679839  1
  O  O269  1  0.13309760  0.99087591  0.25402910  1
  O  O270  1  0.12907843  0.99049854  0.74504888  1
  O  O271  1  0.63269629  0.49577399  0.24083618  1
  O  O272  1  0.63539827  0.50457308  0.74409246  1
  O  O273  1  0.63372148  0.99386431  0.24483497  1
  O  O274  1  0.63643468  1.00328929  0.74236916  1
  O  O275  1  0.38506286  0.01171073  0.25675505  1
  O  O276  1  0.36580351  0.00394858  0.75351008  1
  O  O277  1  0.36360924  0.50671240  0.25299627  1
  O  O278  1  0.37506897  0.51191070  0.76649042  1
  O  O279  1  0.86140763  -0.00723804  0.25180850  1
  O  O280  1  0.86949807  -0.00006123  0.75679139  1
  O  O281  1  0.86942305  0.51121342  0.24766375  1
  O  O282  1  0.86221734  0.50427324  0.75312037  1
  O  O283  1  0.11817569  0.36516531  0.38740908  1
  O  O284  1  0.11248494  0.37062826  0.86388659  1
  O  O285  1  0.12079238  0.86833874  0.36788890  1
  O  O286  1  0.12869218  0.86002992  0.86245458  1
  O  O287  1  0.61364846  0.36704787  0.37439895  1
  O  O288  1  0.62870040  0.35815536  0.87616844  1
  O  O289  1  0.61045112  0.88204281  0.37033076  1
  O  O290  1  0.61218440  0.86497983  0.88215455  1
  O  O291  1  0.38306651  0.13243412  0.13228786  1
  O  O292  1  0.38488180  0.11972516  0.63704491  1
  O  O293  1  0.37571984  0.63253421  0.13461158  1
  O  O294  1  0.38810710  0.62175573  0.62102804  1
  O  O295  1  0.86529724  0.13827059  0.12034745  1
  O  O296  1  0.88381261  0.13383989  0.62373160  1
  O  O297  1  0.87360875  0.63262246  0.13782817  1
  O  O298  1  0.88103492  0.63212362  0.62986607  1
  O  O299  1  0.26844997  0.24716578  0.12213422  1
  O  O300  1  0.24595762  0.23926723  0.61705436  1
  O  O301  1  0.26167734  0.74676973  0.11899168  1
  O  O302  1  0.24272193  0.74620156  0.61183155  1
  O  O303  1  0.75717476  0.25827214  0.12498296  1
  O  O304  1  0.75600141  0.25389459  0.61889032  1
  O  O305  1  0.75571492  0.75416849  0.11815167  1
  O  O306  1  0.76359992  0.74929916  0.61744290  1
  O  O307  1  0.24006504  0.24401907  0.37697775  1
  O  O308  1  0.23539542  0.23738030  0.87468001  1
  O  O309  1  0.24025343  0.74054792  0.38005225  1
  O  O310  1  0.24353130  0.74178399  0.88178971  1
  O  O311  1  0.74607460  0.24436420  0.37740189  1
  O  O312  1  0.74300457  0.23932463  0.87899690  1
  O  O313  1  0.75381444  0.75385028  0.38874071  1
  O  O314  1  0.74215406  0.74986493  0.88282380  1
  O  O315  1  -0.00307942  0.10889565  -0.00187592  1
  O  O316  1  0.01030808  0.11974520  0.50764525  1
  O  O317  1  -0.00155629  0.61147353  -0.00522686  1
  O  O318  1  0.00473204  0.62459765  0.50808314  1
  O  O319  1  0.51296513  0.11524841  -0.00201224  1
  O  O320  1  0.50464763  0.11936693  0.50697250  1
  O  O321  1  0.50167190  0.61444426  0.00467984  1
  O  O322  1  0.50052138  0.64117502  0.51485438  1
  O  O323  1  0.49461949  0.36941926  0.48835885  1
  O  O324  1  0.49744346  0.38925058  0.99365803  1
  O  O325  1  0.49327220  0.87819223  0.49296126  1
  O  O326  1  0.49472947  0.87639739  0.99422862  1
  O  O327  1  0.99263093  0.37418442  0.49296899  1
  O  O328  1  0.98794691  0.38161288  0.99242660  1
  O  O329  1  0.99357819  0.87905900  0.49168084  1
  O  O330  1  0.98791925  0.88042448  1.00133582  1
  O  O331  1  0.49702288  0.48242925  0.36951401  1
  O  O332  1  0.48622460  0.50758997  0.88152970  1
  O  O333  1  0.49219783  0.99495906  0.38206679  1
  O  O334  1  0.50193537  0.98875477  0.88001507  1
  O  O335  1  0.99961233  0.49118001  0.37899196  1
  O  O336  1  0.99079678  0.49206275  0.88174718  1
  O  O337  1  0.99876080  0.99250665  0.38352702  1
  O  O338  1  0.98684846  1.00061217  0.87702642  1
  O  O339  1  -0.00358417  -0.00095742  0.11263252  1
  O  O340  1  0.01058988  0.00573332  0.62039856  1
  O  O341  1  0.00760031  0.49396669  0.11531910  1
  O  O342  1  0.00239623  0.51305535  0.62400244  1
  O  O343  1  0.50956508  0.00045994  0.11790997  1
  O  O344  1  0.50875875  0.00951165  0.62101698  1
  O  O345  1  0.50719855  0.49838005  0.12044653  1
  O  O346  1  0.51152713  0.52225622  0.63035595  1
  O  O347  1  0.25511320  0.38467602  0.25653096  1
  O  O348  1  0.23619228  0.37567036  0.75630453  1
  O  O349  1  0.24147817  0.87319001  0.25464854  1
  O  O350  1  0.24326312  0.88611173  0.75391264  1
  O  O351  1  0.75174395  0.38053384  0.23913869  1
  O  O352  1  0.74514572  0.38423499  0.74182237  1
  O  O353  1  0.74346751  0.87915495  0.24804886  1
  O  O354  1  0.75272934  0.88569310  0.75192640  1
  O  O355  1  0.25704857  0.11890628  0.24832811  1
  O  O356  1  0.25540816  0.11340816  0.75759488  1
  O  O357  1  0.26040096  0.62835548  0.25643145  1
  O  O358  1  0.24619996  0.63054439  0.76783720  1
  O  O359  1  0.74427784  0.11495584  0.26054373  1
  O  O360  1  0.75331799  0.11725499  0.76139715  1
  O  O361  1  0.75795497  0.61684477  0.24970399  1
  O  O362  1  0.75612775  0.61889852  0.74952768  1
  O  O363  1  0.37366277  0.11832396  0.36549241  1
  O  O364  1  0.36696203  0.11950150  0.86975546  1
  O  O365  1  0.36572506  0.62270957  0.36968941  1
  O  O366  1  0.36043308  0.61977620  0.88186796  1
  O  O367  1  0.86234786  0.12534458  0.38417061  1
  O  O368  1  0.86672266  0.11634116  0.87481041  1
  O  O369  1  0.87030185  0.62477715  0.36238446  1
  O  O370  1  0.87060739  0.61736719  0.86732668  1
  O  O371  1  0.12682630  0.38884941  0.11821345  1
  O  O372  1  0.11786568  0.38266969  0.64093289  1
  O  O373  1  0.12658681  0.87142854  0.14289608  1
  O  O374  1  0.11943300  0.88114816  0.63649531  1
  O  O375  1  0.63402551  0.38312263  0.12411242  1
  O  O376  1  0.63065366  0.38528810  0.62479574  1
  O  O377  1  0.63164182  0.87801558  0.13160498  1
  O  O378  1  0.62008771  0.89098600  0.62114285  1
  O  O379  1  0.11120048  0.25379168  0.26209361  1
  O  O380  1  0.12298120  0.26467745  0.75863204  1
  O  O381  1  0.12979037  0.76040866  0.25797343  1
  O  O382  1  0.11779930  0.75468848  0.75448196  1
  O  O383  1  0.61774187  0.25084395  0.25576488  1
  O  O384  1  0.63180381  0.24791764  0.76458063  1
  O  O385  1  0.61155832  0.75272005  0.24251221  1
  O  O386  1  0.62618415  0.75015274  0.76018717  1
  O  O387  1  0.38162683  0.23938309  0.24253049  1
  O  O388  1  0.36875130  0.23672865  0.76347290  1
  O  O389  1  0.38092142  0.74497508  0.24497009  1
  O  O390  1  0.38215107  0.75072195  0.75348097  1
  O  O391  1  0.88893011  0.25119456  0.24399106  1
  O  O392  1  0.86719893  0.24847279  0.73702455  1
  O  O393  1  0.87333750  0.73769005  0.24168102  1
  O  O394  1  0.88037678  0.74805566  0.74369226  1
  O  O395  1  0.33216508  0.48383146  0.48507844  1
  O  O396  1  0.38058780  0.50255631  0.99794260  1
  O  O397  1  0.38034536  0.99649037  0.49330253  1
  O  O398  1  0.38440268  0.99102025  0.99816099  1
  O  O399  1  0.87487679  0.48765843  0.50023363  1
  O  O400  1  0.87896723  0.49323486  0.99779903  1
  O  O401  1  0.88057848  0.99174335  0.49986402  1
  O  O402  1  0.87964180  0.99032024  0.99238238  1
  O  O403  1  0.10726842  -0.00954963  -0.00479647  1
  O  O404  1  0.12317031  0.00483215  0.50711507  1
  O  O405  1  0.11451496  0.50089407  0.00400486  1
  O  O406  1  0.12709399  0.50772126  0.51166790  1
  O  O407  1  0.62414151  0.00427976  0.00422141  1
  O  O408  1  0.62102703  0.00558719  0.50578484  1
  O  O409  1  0.61848170  0.50169785  0.00684766  1
  O  O410  1  0.63243616  0.50253438  0.51025500  1
  O  O411  1  0.38174404  0.35944477  0.12447519  1
  O  O412  1  0.39222706  0.37343935  0.63306718  1
  O  O413  1  0.38029030  0.86734724  0.11295191  1
  O  O414  1  0.38088918  0.88420904  0.61176440  1
  O  O415  1  0.86996642  0.36822679  0.11942841  1
  O  O416  1  0.86996835  0.36910692  0.61880924  1
  O  O417  1  0.86941115  0.86578538  0.11938797  1
  O  O418  1  0.88521613  0.86543597  0.61381074  1
  O  O419  1  0.12572817  0.13195129  0.38566539  1
  O  O420  1  0.13134002  0.13324477  0.86608784  1
  O  O421  1  0.12868522  0.63284977  0.37757311  1
  O  O422  1  0.13349848  0.63361813  0.87983528  1
  O  O423  1  0.63360936  0.12978490  0.38287296  1
  O  O424  1  0.63042124  0.13213719  0.87941379  1
  O  O425  1  0.63078195  0.62203499  0.37914119  1
  O  O426  1  0.62725554  0.63483160  0.87768479  1
