# generated using pymatgen
data_V85Zn86O256
_symmetry_space_group_name_H-M   'P 1'
_cell_length_a   16.93141540
_cell_length_b   16.92714460
_cell_length_c   16.93902785
_cell_angle_alpha   90.00252684
_cell_angle_beta   90.08595646
_cell_angle_gamma   90.05343342
_symmetry_Int_Tables_number   1
_chemical_formula_structural   V85Zn86O256
_chemical_formula_sum   'V85 Zn86 O256'
_cell_volume   4854.72655437
_cell_formula_units_Z   1
loop_
 _symmetry_equiv_pos_site_id
 _symmetry_equiv_pos_as_xyz
  1  'x, y, z'
loop_
 _atom_site_type_symbol
 _atom_site_label
 _atom_site_symmetry_multiplicity
 _atom_site_fract_x
 _atom_site_fract_y
 _atom_site_fract_z
 _atom_site_occupancy
  V  V0  1  0.62407267  0.75539725  0.87771231  1
  V  V1  1  0.87415968  0.49863893  0.87362456  1
  V  V2  1  0.25285524  0.74997208  0.00222228  1
  V  V3  1  0.49881117  0.25007610  0.74883554  1
  V  V4  1  0.49982091  0.75439043  0.75361103  1
  V  V5  1  0.00194229  0.12145776  0.62575021  1
  V  V6  1  0.75135478  0.74636196  0.50686891  1
  V  V7  1  0.75056420  0.37521193  0.12557007  1
  V  V8  1  0.37812556  0.87879068  -0.01403071  1
  V  V9  1  0.62555314  0.74432603  0.38048224  1
  V  V10  1  -0.00138879  0.11746958  0.12104354  1
  V  V11  1  0.75079597  0.11767630  0.87423772  1
  V  V12  1  0.12176998  0.62657765  0.49682373  1
  V  V13  1  0.01271162  0.38209048  0.36327901  1
  V  V14  1  0.25056788  0.37543988  0.12769418  1
  V  V15  1  0.49801155  0.37528921  0.87522077  1
  V  V16  1  0.37332605  0.49910477  0.37571068  1
  V  V17  1  0.80054115  0.19265895  0.44518140  1
  V  V18  1  -0.00481662  0.63645032  0.12456221  1
  V  V19  1  0.87454421  0.87644978  0.48809885  1
  V  V20  1  0.50016470  0.12420039  0.62612208  1
  V  V21  1  -0.00441293  0.50028955  0.49733736  1
  V  V22  1  0.63159882  -0.01956284  0.13356113  1
  V  V23  1  0.12133027  0.75048521  0.87494416  1
  V  V24  1  0.75922658  0.87084462  0.63169185  1
  V  V25  1  0.24718324  0.37239675  0.61451994  1
  V  V26  1  0.49901588  -0.00316380  -0.01268155  1
  V  V27  1  0.50180590  0.12509043  0.13113186  1
  V  V28  1  0.12613803  0.37629347  0.75058432  1
  V  V29  1  0.37051416  0.24789196  0.61953002  1
  V  V30  1  0.38214310  0.25560923  0.13197742  1
  V  V31  1  0.62548341  0.12054752  0.00400438  1
  V  V32  1  -0.00299390  0.87184348  0.87959566  1
  V  V33  1  0.87986202  0.63670294  0.74602357  1
  V  V34  1  0.87112918  0.63702814  0.24851653  1
  V  V35  1  0.87014643  0.37968096  0.48901590  1
  V  V36  1  0.25911200  -0.00208330  0.75542447  1
  V  V37  1  0.26104859  0.25538577  -0.00127152  1
  V  V38  1  0.37399880  0.62400169  0.24788639  1
  V  V39  1  0.75161817  0.62273695  0.38048630  1
  V  V40  1  0.12275676  0.49607241  0.13257965  1
  V  V41  1  0.13525335  0.87985136  0.25747542  1
  V  V42  1  0.62505046  0.49903762  0.12559065  1
  V  V43  1  0.88080156  -0.00093104  0.88098588  1
  V  V44  1  0.00804944  0.75179479  0.26010016  1
  V  V45  1  0.49885835  0.62327326  0.12432927  1
  V  V46  1  0.75455841  0.50152850  0.25427331  1
  V  V47  1  -0.00116102  0.49873222  0.00206890  1
  V  V48  1  0.62576356  0.62583804  -0.00237963  1
  V  V49  1  0.24269767  0.75498363  0.49354011  1
  V  V50  1  0.24750445  0.87666146  0.62393171  1
  V  V51  1  0.36718746  0.62468840  0.74975860  1
  V  V52  1  0.25681616  0.12085073  0.87768376  1
  V  V53  1  0.50136726  0.62702533  0.61959694  1
  V  V54  1  0.13519933  0.13360494  0.49568714  1
  V  V55  1  0.87438197  0.24696695  0.13707930  1
  V  V56  1  0.11706354  0.87764843  0.75062539  1
  V  V57  1  0.49886437  0.49811168  0.49878918  1
  V  V58  1  0.24504259  0.63064997  0.37150495  1
  V  V59  1  0.62729792  0.87960147  0.75455537  1
  V  V60  1  0.87680565  0.87789867  0.01892887  1
  V  V61  1  0.12557198  0.24902981  0.88037201  1
  V  V62  1  0.75178412  0.24889423  0.00223162  1
  V  V63  1  -0.00057913  0.24932971  0.75248173  1
  V  V64  1  0.25496371  0.88756821  0.12592582  1
  V  V65  1  0.50636723  0.75197870  0.25005663  1
  V  V66  1  0.50452695  0.87692514  0.37111120  1
  V  V67  1  0.49630654  0.49553334  -0.00104639  1
  V  V68  1  0.87201014  0.11836680  0.75137780  1
  V  V69  1  0.01778125  0.24738291  0.24933097  1
  V  V70  1  0.12377690  0.62587750  0.00057411  1
  V  V71  1  0.37200992  0.49532556  0.87584638  1
  V  V72  1  0.37108614  0.74951621  0.62444876  1
  V  V73  1  0.62557084  0.12959250  0.49737924  1
  V  V74  1  0.61405718  0.24599334  0.36811980  1
  V  V75  1  0.62415413  0.37634354  0.74734678  1
  V  V76  1  0.62613869  0.24922172  0.87474691  1
  V  V77  1  0.62501773  0.50331946  0.61855967  1
  V  V78  1  0.49751123  -0.00256435  0.49888288  1
  V  V79  1  0.77432994  0.00088604  0.27933444  1
  V  V80  1  0.75547334  0.75398188  0.01370503  1
  V  V81  1  0.63083571  -0.00204140  0.62709966  1
  V  V82  1  0.75036761  0.50000527  0.74853479  1
  V  V83  1  0.25139050  0.13240165  0.36214353  1
  V  V84  1  0.86799588  0.25138866  0.62637427  1
  Zn  Zn85  1  0.12224920  0.11364523  -0.00189434  1
  Zn  Zn86  1  0.12223642  0.49926479  0.62504828  1
  Zn  Zn87  1  0.00586286  0.87770249  0.37481708  1
  Zn  Zn88  1  0.37621981  0.12015487  0.24591314  1
  Zn  Zn89  1  0.12445445  0.00326621  0.62508128  1
  Zn  Zn90  1  -0.01103385  0.63348866  0.62034308  1
  Zn  Zn91  1  0.12338521  -0.00216335  0.12207658  1
  Zn  Zn92  1  0.74719813  0.37227186  0.61710597  1
  Zn  Zn93  1  0.37671583  0.75173400  0.12415893  1
  Zn  Zn94  1  0.36377791  -0.00662953  0.35816518  1
  Zn  Zn95  1  0.87537064  0.37415207  0.00025685  1
  Zn  Zn96  1  0.24775036  0.62300809  0.87536449  1
  Zn  Zn97  1  -0.00016517  0.37493484  0.87573946  1
  Zn  Zn98  1  0.24376311  0.49497018  0.25272792  1
  Zn  Zn99  1  -0.00270281  0.00413937  0.48932051  1
  Zn  Zn100  1  0.37823262  0.12009580  0.75377235  1
  Zn  Zn101  1  0.49394198  0.37033397  0.36668135  1
  Zn  Zn102  1  0.37377921  0.87591542  0.49795537  1
  Zn  Zn103  1  0.62114856  0.36892536  0.24924058  1
  Zn  Zn104  1  0.24682418  0.50084694  0.74845608  1
  Zn  Zn105  1  0.75025344  0.62706941  0.87559553  1
  Zn  Zn106  1  0.36926218  0.36857502  0.49397746  1
  Zn  Zn107  1  0.18670964  0.18743765  0.18149786  1
  Zn  Zn108  1  0.18854332  0.18731294  0.69018235  1
  Zn  Zn109  1  0.18525083  0.69073522  0.18510843  1
  Zn  Zn110  1  0.14975535  0.70738522  0.66954324  1
  Zn  Zn111  1  0.69249930  0.17759767  0.19311923  1
  Zn  Zn112  1  0.68815705  0.18526539  0.68841026  1
  Zn  Zn113  1  0.68342355  0.68828491  0.18861203  1
  Zn  Zn114  1  0.68779843  0.68592564  0.68940682  1
  Zn  Zn115  1  0.30650586  0.30838379  0.30992121  1
  Zn  Zn116  1  0.31161437  0.31181770  0.80784060  1
  Zn  Zn117  1  0.31817013  0.81328556  0.31108968  1
  Zn  Zn118  1  0.30647264  0.80975813  0.81172525  1
  Zn  Zn119  1  0.81441861  0.31687805  0.31043775  1
  Zn  Zn120  1  0.81104823  0.31276628  0.81174052  1
  Zn  Zn121  1  0.80512931  0.81518631  0.30432665  1
  Zn  Zn122  1  0.80722969  0.81374736  0.81902588  1
  Zn  Zn123  1  0.18583756  0.44078077  0.43672040  1
  Zn  Zn124  1  0.18780044  0.43628511  0.94037483  1
  Zn  Zn125  1  0.18321417  0.94989631  0.43762120  1
  Zn  Zn126  1  0.18717222  0.93998744  0.94156960  1
  Zn  Zn127  1  0.68460708  0.43517991  0.43580394  1
  Zn  Zn128  1  0.68698429  0.43703287  0.93760471  1
  Zn  Zn129  1  0.68578720  0.93370795  0.43721354  1
  Zn  Zn130  1  0.69151634  0.93676758  0.94193074  1
  Zn  Zn131  1  0.31623375  0.06508296  0.05904229  1
  Zn  Zn132  1  0.31190495  0.06215671  0.56148397  1
  Zn  Zn133  1  0.31143447  0.56042145  0.06138895  1
  Zn  Zn134  1  0.30744940  0.56172669  0.56184150  1
  Zn  Zn135  1  0.81299427  0.06117448  0.07092421  1
  Zn  Zn136  1  0.81469839  0.05331961  0.56749024  1
  Zn  Zn137  1  0.81325167  0.56526298  0.06311371  1
  Zn  Zn138  1  0.81345698  0.56146171  0.56310158  1
  Zn  Zn139  1  0.43527686  0.43401751  0.18884589  1
  Zn  Zn140  1  0.43353309  0.43634643  0.68604763  1
  Zn  Zn141  1  0.44181030  0.93867507  0.18076751  1
  Zn  Zn142  1  0.43853836  0.93470057  0.68617007  1
  Zn  Zn143  1  0.93336917  0.44230192  0.18944993  1
  Zn  Zn144  1  0.93933558  0.43919260  0.68246940  1
  Zn  Zn145  1  0.93724345  0.93926007  0.20323174  1
  Zn  Zn146  1  0.93626829  0.93820715  0.69192616  1
  Zn  Zn147  1  0.06417266  0.05985026  0.31209698  1
  Zn  Zn148  1  0.06470651  0.06051156  0.81567985  1
  Zn  Zn149  1  0.05879123  0.56417943  0.31379239  1
  Zn  Zn150  1  0.05981001  0.56215846  0.81267552  1
  Zn  Zn151  1  0.56656740  0.06052834  0.31055823  1
  Zn  Zn152  1  0.56363996  0.06173961  0.81234462  1
  Zn  Zn153  1  0.56502910  0.56058336  0.31244469  1
  Zn  Zn154  1  0.56064181  0.56679771  0.80983686  1
  Zn  Zn155  1  0.43361567  0.18265498  0.43628899  1
  Zn  Zn156  1  0.43862677  0.18644089  0.94042570  1
  Zn  Zn157  1  0.43293096  0.68752826  0.43830295  1
  Zn  Zn158  1  0.43735580  0.68620315  0.93524664  1
  Zn  Zn159  1  0.96851488  0.19482315  0.43629713  1
  Zn  Zn160  1  0.93620309  0.19030025  0.94285322  1
  Zn  Zn161  1  0.93076660  0.69113081  0.43660196  1
  Zn  Zn162  1  0.93409844  0.68820267  0.93551347  1
  Zn  Zn163  1  0.06369771  0.31237468  0.06361751  1
  Zn  Zn164  1  0.05773696  0.31244412  0.56260087  1
  Zn  Zn165  1  0.06415270  0.81841963  0.06496265  1
  Zn  Zn166  1  0.05674918  0.81109938  0.56253108  1
  Zn  Zn167  1  0.56349711  0.31229964  0.06220735  1
  Zn  Zn168  1  0.56026993  0.31338085  0.55823255  1
  Zn  Zn169  1  0.55730998  0.81110402  0.05966180  1
  Zn  Zn170  1  0.56633088  0.81231358  0.56202461  1
  O  O171  1  0.11186378  0.12493050  0.12166917  1
  O  O172  1  0.11643057  0.12680050  0.62299938  1
  O  O173  1  0.11676212  0.61906280  0.11768351  1
  O  O174  1  0.14051595  0.61436798  0.60193994  1
  O  O175  1  0.62044754  0.12667067  0.11223764  1
  O  O176  1  0.62186514  0.11727522  0.62055750  1
  O  O177  1  0.61849045  0.61930530  0.11746795  1
  O  O178  1  0.61323752  0.61540918  0.63218760  1
  O  O179  1  0.37136336  0.38655888  0.37352635  1
  O  O180  1  0.38078670  0.38733317  0.86695780  1
  O  O181  1  0.38786145  0.87624853  0.37938392  1
  O  O182  1  0.36986721  0.87117561  0.88733179  1
  O  O183  1  0.88559898  0.36956495  0.38536461  1
  O  O184  1  0.87603161  0.38626653  0.87584186  1
  O  O185  1  0.87238171  0.86857026  0.38780719  1
  O  O186  1  0.88136542  0.88227286  0.87694381  1
  O  O187  1  0.25684602  0.02313763  0.39134478  1
  O  O188  1  0.24742302  0.00869223  0.86801446  1
  O  O189  1  0.25639113  0.50988670  0.37305911  1
  O  O190  1  0.25763308  0.50196430  0.87285465  1
  O  O191  1  0.74766749  0.00594173  0.37819683  1
  O  O192  1  0.76098791  0.01112188  0.88122133  1
  O  O193  1  0.74041051  0.51002420  0.36633627  1
  O  O194  1  0.75585200  0.50100409  0.86742077  1
  O  O195  1  0.24092249  0.49333668  0.12357865  1
  O  O196  1  0.24848042  0.48709992  0.62867758  1
  O  O197  1  0.25346118  0.98973296  0.12090312  1
  O  O198  1  0.25000933  0.98887419  0.63112850  1
  O  O199  1  0.74590821  0.49256502  0.12831271  1
  O  O200  1  0.74055095  0.49925523  0.63102297  1
  O  O201  1  0.72995322  0.99640474  0.11199720  1
  O  O202  1  0.73709732  0.98985802  0.62464197  1
  O  O203  1  -0.00430993  0.37295322  0.25827146  1
  O  O204  1  0.00996738  0.36887678  0.74894503  1
  O  O205  1  0.01566170  0.86626983  0.24773185  1
  O  O206  1  0.01008625  0.87948317  0.76034390  1
  O  O207  1  0.50987579  0.38747980  0.25550449  1
  O  O208  1  0.50535945  0.37046404  0.75428471  1
  O  O209  1  0.49526656  0.86194774  0.25774729  1
  O  O210  1  0.50809060  0.86077966  0.74330744  1
  O  O211  1  0.50648381  0.12591239  0.23327635  1
  O  O212  1  0.50030697  0.13124496  0.74455670  1
  O  O213  1  0.49313111  0.62792482  0.24503837  1
  O  O214  1  0.49084049  0.63483993  0.74060536  1
  O  O215  1  1.00925906  0.14140769  0.24286348  1
  O  O216  1  0.99343100  0.13071697  0.74769735  1
  O  O217  1  0.99258481  0.63257641  0.24518880  1
  O  O218  1  0.98198989  0.61984822  0.75126483  1
  O  O219  1  0.36507101  0.24947394  0.00465396  1
  O  O220  1  0.38406048  0.25139293  0.51518918  1
  O  O221  1  0.37015997  0.75763974  -0.00087501  1
  O  O222  1  0.36116344  0.74967563  0.50767459  1
  O  O223  1  0.86794191  0.25445983  0.01174611  1
  O  O224  1  0.86967327  0.25333392  0.50431183  1
  O  O225  1  0.86276591  0.75847960  -0.00209264  1
  O  O226  1  0.86237477  0.76026967  0.50216833  1
  O  O227  1  0.10846434  0.23198444  0.49908170  1
  O  O228  1  0.13150836  0.25047795  0.98874906  1
  O  O229  1  0.13635472  0.74432076  0.49603564  1
  O  O230  1  0.13149048  0.74822586  0.99271054  1
  O  O231  1  0.62283070  0.23674649  0.49451745  1
  O  O232  1  0.63053492  0.24134412  0.99287747  1
  O  O233  1  0.63784812  0.75151899  0.49309500  1
  O  O234  1  0.63143098  0.74789992  0.99451994  1
  O  O235  1  0.49160686  0.24076921  0.11312883  1
  O  O236  1  0.49680177  0.24508456  0.63147147  1
  O  O237  1  0.49955007  0.74146278  0.13322135  1
  O  O238  1  0.49570370  0.74282072  0.62905656  1
  O  O239  1  0.99394916  0.24891652  0.13471302  1
  O  O240  1  0.98741303  0.24006289  0.63045403  1
  O  O241  1  1.00512620  0.73921861  0.13118161  1
  O  O242  1  1.03949603  0.73273431  0.63777123  1
  O  O243  1  0.00266620  0.26412693  0.35633273  1
  O  O244  1  0.00709807  0.25200137  0.87237903  1
  O  O245  1  -0.00248815  0.75419790  0.36351129  1
  O  O246  1  0.00650230  0.76101896  0.87943549  1
  O  O247  1  0.51032843  0.24949966  0.37767511  1
  O  O248  1  0.50530848  0.25466048  0.87019375  1
  O  O249  1  0.50558564  0.75169879  0.37161996  1
  O  O250  1  0.51176156  0.74477038  0.86635002  1
  O  O251  1  0.23661364  0.13206921  0.50940973  1
  O  O252  1  0.24769344  0.13488653  0.99338250  1
  O  O253  1  0.24555905  0.63231276  0.48896081  1
  O  O254  1  0.24367874  0.63302758  0.99897339  1
  O  O255  1  0.74571058  0.12674129  0.50601652  1
  O  O256  1  0.74417353  0.12942842  0.99537571  1
  O  O257  1  0.75612062  0.63229264  0.49239567  1
  O  O258  1  0.74605744  0.63681916  0.99902742  1
  O  O259  1  0.24684160  0.36541989  0.00971806  1
  O  O260  1  0.24773159  0.37596552  0.51040636  1
  O  O261  1  0.26123483  0.86940169  0.00523104  1
  O  O262  1  0.24785077  0.87108616  0.50602432  1
  O  O263  1  0.74963215  0.36816599  0.00858329  1
  O  O264  1  0.76291022  0.38293647  0.50130248  1
  O  O265  1  0.76335797  0.86348961  -0.00204223  1
  O  O266  1  0.75805352  0.86844392  0.50873819  1
  O  O267  1  0.12464674  0.50825504  0.23615986  1
  O  O268  1  0.12501310  0.49125477  0.74889812  1
  O  O269  1  0.12628411  0.98319458  0.24218842  1
  O  O270  1  0.13519396  0.99153027  0.75026127  1
  O  O271  1  0.63784709  0.50500011  0.23991391  1
  O  O272  1  0.63042805  0.49760069  0.74216838  1
  O  O273  1  0.62120805  0.99707674  0.23381249  1
  O  O274  1  0.61875751  0.98817134  0.74296303  1
  O  O275  1  0.38544244  0.00607315  0.24806315  1
  O  O276  1  0.36374904  -0.00212762  0.74711820  1
  O  O277  1  0.37176808  0.51144494  0.25643853  1
  O  O278  1  0.37471464  0.50873650  0.75639606  1
  O  O279  1  0.87553406  0.00333363  0.26986230  1
  O  O280  1  0.87630371  0.01241810  0.76116039  1
  O  O281  1  0.86033822  0.51247063  0.24640754  1
  O  O282  1  0.86695085  0.50111078  0.75523266  1
  O  O283  1  0.11158659  0.38034815  0.37256715  1
  O  O284  1  0.12368897  0.36821882  0.86783185  1
  O  O285  1  0.13467610  0.87543130  0.36081058  1
  O  O286  1  0.11559600  0.87106565  0.87337468  1
  O  O287  1  0.62352414  0.35604433  0.37839912  1
  O  O288  1  0.61975349  0.36983091  0.86753032  1
  O  O289  1  0.61259806  0.86145970  0.38053290  1
  O  O290  1  0.62992225  0.86900889  0.86718794  1
  O  O291  1  0.38601327  0.13394321  0.12091873  1
  O  O292  1  0.38165327  0.13075554  0.62887425  1
  O  O293  1  0.37954390  0.62573345  0.13230389  1
  O  O294  1  0.37902107  0.62929637  0.63147273  1
  O  O295  1  0.88593876  0.13451677  0.12248891  1
  O  O296  1  0.87779633  0.12873119  0.63465062  1
  O  O297  1  0.88420992  0.62209422  0.13424563  1
  O  O298  1  0.87210772  0.62475503  0.64068946  1
  O  O299  1  0.25688955  0.25591456  0.11641679  1
  O  O300  1  0.25976457  0.25866446  0.63352392  1
  O  O301  1  0.25214125  0.75451583  0.11184666  1
  O  O302  1  0.24770215  0.76196933  0.61858567  1
  O  O303  1  0.75527132  0.25504885  0.12504765  1
  O  O304  1  0.76292561  0.25226342  0.63110281  1
  O  O305  1  0.74435656  0.74921530  0.11222581  1
  O  O306  1  0.74095576  0.75787703  0.61783171  1
  O  O307  1  0.25489500  0.23339008  0.37927711  1
  O  O308  1  0.24454059  0.24675550  0.88037365  1
  O  O309  1  0.25869123  0.73993768  0.38119928  1
  O  O310  1  0.24285603  0.74800815  0.88788329  1
  O  O311  1  0.74484470  0.24880998  0.37930232  1
  O  O312  1  0.74641462  0.24075229  0.88023386  1
  O  O313  1  0.74221152  0.74507902  0.38066842  1
  O  O314  1  0.73751579  0.74762519  0.88498034  1
  O  O315  1  0.00183202  0.13228753  0.01708716  1
  O  O316  1  0.00443730  0.12121554  0.51179879  1
  O  O317  1  0.00024379  0.61827264  0.00687800  1
  O  O318  1  0.00454955  0.62064214  0.49540269  1
  O  O319  1  0.50860729  0.11722389  0.00285630  1
  O  O320  1  0.50833006  0.11752596  0.50589255  1
  O  O321  1  0.50524178  0.61633575  0.00320690  1
  O  O322  1  0.49251724  0.61669977  0.51264739  1
  O  O323  1  0.49432645  0.38817983  0.49584523  1
  O  O324  1  0.50720944  0.38842860  0.99242923  1
  O  O325  1  0.50003070  0.88137304  0.49439413  1
  O  O326  1  0.48628380  0.87980205  0.99959678  1
  O  O327  1  0.99497776  0.38190810  0.48930790  1
  O  O328  1  0.99757398  0.38786010  1.00088969  1
  O  O329  1  0.98507433  0.87063740  0.50004770  1
  O  O330  1  0.98422826  0.86768678  0.99475224  1
  O  O331  1  0.49216337  0.50580276  0.38485763  1
  O  O332  1  0.49471750  0.49683568  0.87979700  1
  O  O333  1  0.50553320  0.99096286  0.38303136  1
  O  O334  1  0.50115990  1.00377262  0.88735768  1
  O  O335  1  0.99745523  0.48926773  0.37739902  1
  O  O336  1  0.99182020  0.49851183  0.88442288  1
  O  O337  1  1.00671095  0.99140249  0.37693507  1
  O  O338  1  0.98831415  0.99277073  0.87496585  1
  O  O339  1  -0.00459901  0.01661323  0.13483209  1
  O  O340  1  -0.00099721  0.01355629  0.63007326  1
  O  O341  1  0.00434542  0.50713619  0.11936509  1
  O  O342  1  0.00236472  0.50788142  0.61313461  1
  O  O343  1  0.51250880  0.00752501  0.11155215  1
  O  O344  1  0.51035879  0.00227441  0.61971914  1
  O  O345  1  0.50295099  0.50395274  0.11535503  1
  O  O346  1  0.50373929  0.50592836  0.61934562  1
  O  O347  1  0.25226654  0.37703840  0.23425444  1
  O  O348  1  0.23665277  0.37450275  0.74320815  1
  O  O349  1  0.24358250  0.86561878  0.24019269  1
  O  O350  1  0.24248986  0.88050939  0.74458696  1
  O  O351  1  0.74649031  0.38463398  0.24449222  1
  O  O352  1  0.74449711  0.38582143  0.74635334  1
  O  O353  1  0.75456761  0.90039992  0.25336058  1
  O  O354  1  0.73833408  0.86875556  0.74425608  1
  O  O355  1  0.24724311  0.12755213  0.25886013  1
  O  O356  1  0.25132569  0.11486078  0.75792302  1
  O  O357  1  0.25656966  0.62628983  0.25470811  1
  O  O358  1  0.26274223  0.62721366  0.75059639  1
  O  O359  1  0.74956109  0.09441263  0.23843627  1
  O  O360  1  0.75931385  0.12979205  0.76195578  1
  O  O361  1  0.75533577  0.62324061  0.25475955  1
  O  O362  1  0.75659363  0.61348517  0.75233125  1
  O  O363  1  0.36508358  0.12389399  0.36864360  1
  O  O364  1  0.36133003  0.13215450  0.87264278  1
  O  O365  1  0.36784884  0.61665053  0.36847091  1
  O  O366  1  0.37552693  0.61488700  0.86623592  1
  O  O367  1  0.86800124  0.14339445  0.39368887  1
  O  O368  1  0.87111222  0.11937052  0.87342727  1
  O  O369  1  0.86025309  0.62922408  0.36552015  1
  O  O370  1  0.87197256  0.61349864  0.86760014  1
  O  O371  1  0.13251782  0.38685004  0.11836562  1
  O  O372  1  0.12967977  0.37298438  0.63127296  1
  O  O373  1  0.13887540  0.87364880  0.13222758  1
  O  O374  1  0.13005625  0.87890512  0.63486004  1
  O  O375  1  0.63647503  0.37816460  0.12566792  1
  O  O376  1  0.62470891  0.38316362  0.62966607  1
  O  O377  1  0.61967079  0.88177404  0.12228584  1
  O  O378  1  0.63172744  0.88086534  0.63261251  1
  O  O379  1  0.11503137  0.25912901  0.24058975  1
  O  O380  1  0.12024710  0.25518846  0.76142277  1
  O  O381  1  0.11787539  0.75977131  0.24699444  1
  O  O382  1  0.13769666  0.76364898  0.76973489  1
  O  O383  1  0.63217440  0.24616281  0.26576630  1
  O  O384  1  0.61883749  0.25442820  0.75499660  1
  O  O385  1  0.61314431  0.74452432  0.25986386  1
  O  O386  1  0.61881805  0.75516357  0.75808247  1
  O  O387  1  0.37337506  0.24536961  0.23470230  1
  O  O388  1  0.38463821  0.24929193  0.74078524  1
  O  O389  1  0.38588702  0.73722252  0.25049416  1
  O  O390  1  0.38091273  0.74532126  0.74616115  1
  O  O391  1  0.88154129  0.25450158  0.23973313  1
  O  O392  1  0.88014097  0.24328569  0.74528001  1
  O  O393  1  0.88090427  0.74240440  0.25058065  1
  O  O394  1  0.86785688  0.73437741  0.76008212  1
  O  O395  1  0.37977102  0.49946819  0.49126459  1
  O  O396  1  0.38490395  0.50537476  0.98900328  1
  O  O397  1  0.39097774  0.99982864  0.50336351  1
  O  O398  1  0.38256695  0.98708378  1.00097371  1
  O  O399  1  0.88607245  0.49360156  0.50211725  1
  O  O400  1  0.88065375  0.50016193  0.99203621  1
  O  O401  1  0.87753940  0.98041713  0.50746607  1
  O  O402  1  0.87039959  0.98502989  0.99651002  1
  O  O403  1  0.12249764  -0.00045391  0.00744886  1
  O  O404  1  0.11958355  0.01602544  0.50787620  1
  O  O405  1  0.11561094  0.50701360  0.00463944  1
  O  O406  1  0.11118147  0.50662189  0.49673380  1
  O  O407  1  0.61829733  0.00494101  0.00169091  1
  O  O408  1  0.61765413  0.00785375  0.50752583  1
  O  O409  1  0.61947289  0.50614190  0.00474142  1
  O  O410  1  0.61616898  0.49714594  0.51082434  1
  O  O411  1  0.36770630  0.36771445  0.12232341  1
  O  O412  1  0.36475573  0.36730908  0.62354577  1
  O  O413  1  0.36934251  0.87014814  0.11531922  1
  O  O414  1  0.36557912  0.86702818  0.62262450  1
  O  O415  1  0.86305539  0.37147670  0.12506898  1
  O  O416  1  0.87777060  0.36535848  0.61289460  1
  O  O417  1  0.88263019  0.87893658  0.11684760  1
  O  O418  1  0.86209909  0.87615062  0.62906190  1
  O  O419  1  0.13708719  0.12367801  0.38630595  1
  O  O420  1  0.13454168  0.13339594  0.87611868  1
  O  O421  1  0.13474231  0.62104408  0.38229321  1
  O  O422  1  0.12332575  0.63362380  0.88073256  1
  O  O423  1  0.62197417  0.13484568  0.38341308  1
  O  O424  1  0.63369083  0.12679284  0.88287907  1
  O  O425  1  0.63472415  0.63551107  0.37290171  1
  O  O426  1  0.62632243  0.63261426  0.88115880  1
