# generated using pymatgen
data_V85Zn86O256
_symmetry_space_group_name_H-M   'P 1'
_cell_length_a   16.94518801
_cell_length_b   16.94371563
_cell_length_c   16.95404111
_cell_angle_alpha   90.01233367
_cell_angle_beta   90.03043368
_cell_angle_gamma   90.03925334
_symmetry_Int_Tables_number   1
_chemical_formula_structural   V85Zn86O256
_chemical_formula_sum   'V85 Zn86 O256'
_cell_volume   4867.74819334
_cell_formula_units_Z   1
loop_
 _symmetry_equiv_pos_site_id
 _symmetry_equiv_pos_as_xyz
  1  'x, y, z'
loop_
 _atom_site_type_symbol
 _atom_site_label
 _atom_site_symmetry_multiplicity
 _atom_site_fract_x
 _atom_site_fract_y
 _atom_site_fract_z
 _atom_site_occupancy
  V  V0  1  0.24644596  0.62549871  0.37430502  1
  V  V1  1  0.00201989  -0.00157634  0.49896146  1
  V  V2  1  0.37574964  0.50081675  0.37516305  1
  V  V3  1  -0.02964053  0.02153549  0.03515755  1
  V  V4  1  0.24860699  0.74908479  0.49941140  1
  V  V5  1  0.87062547  0.61954145  0.23826449  1
  V  V6  1  0.87005382  0.61571790  0.73741999  1
  V  V7  1  -0.01334287  0.23709907  0.23985957  1
  V  V8  1  0.73523831  0.13020890  0.38403961  1
  V  V9  1  0.61925047  0.00169037  0.61122900  1
  V  V10  1  0.88465694  -0.01543699  0.86887008  1
  V  V11  1  0.37401467  0.62645550  0.24904707  1
  V  V12  1  -0.00715353  0.74652912  0.23239392  1
  V  V13  1  0.12957820  0.00108545  0.62531328  1
  V  V14  1  0.25399995  0.87346827  0.12114229  1
  V  V15  1  0.75093390  0.74616729  0.50003586  1
  V  V16  1  0.75261480  0.86961592  0.62808874  1
  V  V17  1  0.11002106  0.50523228  0.11907907  1
  V  V18  1  0.50179108  0.62416041  0.62542306  1
  V  V19  1  0.37604295  0.74897341  0.62579926  1
  V  V20  1  0.00112465  0.25114251  0.75129271  1
  V  V21  1  0.25091931  0.87817360  0.62415752  1
  V  V22  1  0.12470690  0.87581041  0.24545479  1
  V  V23  1  0.00002073  0.12472960  0.62493397  1
  V  V24  1  0.38185481  -0.00022945  0.37503605  1
  V  V25  1  0.62909180  0.62440458  -0.00081200  1
  V  V26  1  0.62934325  0.26292442  0.87384393  1
  V  V27  1  0.74916064  0.12570186  0.87639703  1
  V  V28  1  0.87880090  0.37888635  0.00943021  1
  V  V29  1  0.25189258  0.12583316  0.37433025  1
  V  V30  1  0.24574284  0.50230405  0.24709455  1
  V  V31  1  0.12824425  0.12397753  0.50056078  1
  V  V32  1  0.75448729  0.24918179  0.01584700  1
  V  V33  1  0.25111249  0.37722455  0.11913317  1
  V  V34  1  0.50972934  0.75341404  0.24838662  1
  V  V35  1  0.38272244  0.87407127  0.49807528  1
  V  V36  1  0.75258012  0.61953794  0.87275795  1
  V  V37  1  0.12123326  0.37666840  0.24721614  1
  V  V38  1  0.87825883  0.86664947  0.50362517  1
  V  V39  1  0.50557647  -0.00349687  -0.00351883  1
  V  V40  1  0.12227195  0.75027012  0.37379966  1
  V  V41  1  0.23924494  0.50250461  0.74705893  1
  V  V42  1  0.74548729  0.36736405  0.64136515  1
  V  V43  1  0.75485460  0.75542120  0.00956522  1
  V  V44  1  0.86030547  0.36855928  0.49794549  1
  V  V45  1  0.60674527  0.24945558  0.38578103  1
  V  V46  1  0.50622696  0.25857151  0.75119297  1
  V  V47  1  0.25171870  0.00238511  0.74788497  1
  V  V48  1  0.12415726  0.25027896  0.37154804  1
  V  V49  1  0.61471577  0.87765457  0.75411394  1
  V  V50  1  0.62524101  -0.01392475  0.13395448  1
  V  V51  1  0.25374788  0.00197844  0.24927330  1
  V  V52  1  0.10565134  0.62522702  0.00037496  1
  V  V53  1  -0.00269423  0.87377728  0.37045417  1
  V  V54  1  0.24852225  0.25196257  0.50111636  1
  V  V55  1  0.49502279  0.49802741  -0.00484992  1
  V  V56  1  0.12255848  0.62018167  0.50665067  1
  V  V57  1  0.37437335  0.61849167  0.75372998  1
  V  V58  1  0.37825609  0.13082494  0.75437835  1
  V  V59  1  0.50502341  0.13232995  0.13192497  1
  V  V60  1  0.13671882  0.01518172  0.10929238  1
  V  V61  1  -0.00186379  0.38521899  0.87749870  1
  V  V62  1  0.87519525  0.12422800  0.75060214  1
  V  V63  1  -0.00314945  0.37604381  0.37498530  1
  V  V64  1  0.50205168  0.49457349  0.50154103  1
  V  V65  1  0.24827388  0.74739827  -0.00234555  1
  V  V66  1  0.24660639  0.12621975  0.88210036  1
  V  V67  1  0.12225488  0.24906235  0.88595591  1
  V  V68  1  0.37437260  0.25406516  0.62782083  1
  V  V69  1  0.74905781  -0.01293018  0.25279094  1
  V  V70  1  0.87374328  0.00989130  0.37357158  1
  V  V71  1  0.23853800  0.37951206  0.62587342  1
  V  V72  1  0.38258985  -0.00818495  0.87235325  1
  V  V73  1  0.00252981  0.49383158  0.51101007  1
  V  V74  1  0.25062133  0.62015658  0.87744413  1
  V  V75  1  0.63150872  0.49592857  0.63673660  1
  V  V76  1  0.74642672  -0.00138024  0.75049785  1
  V  V77  1  0.62157721  0.75423404  0.87549620  1
  V  V78  1  0.50111833  0.62323546  0.12458665  1
  V  V79  1  0.11847830  0.75647153  0.87194449  1
  V  V80  1  -0.01158626  0.75722606  0.74404518  1
  V  V81  1  0.63558582  0.49799258  0.13343817  1
  V  V82  1  0.37542537  0.74952580  0.12374267  1
  V  V83  1  0.50734742  0.87507387  0.37178499  1
  V  V84  1  0.87669017  0.87319037  0.01759182  1
  Zn  Zn85  1  0.38135801  0.13803698  0.25148244  1
  Zn  Zn86  1  0.75773526  0.37451944  0.13853770  1
  Zn  Zn87  1  0.62661281  0.36285772  0.25269655  1
  Zn  Zn88  1  0.37148062  0.37505797  -0.00969430  1
  Zn  Zn89  1  0.11847523  0.38178540  0.74932400  1
  Zn  Zn90  1  0.11972202  0.87779530  0.75301952  1
  Zn  Zn91  1  0.86827739  0.24437516  0.62103717  1
  Zn  Zn92  1  0.51175423  0.12975663  0.61400747  1
  Zn  Zn93  1  0.38197690  0.87028575  -0.00860779  1
  Zn  Zn94  1  0.49737047  0.38319798  0.86838720  1
  Zn  Zn95  1  0.62616286  0.12565975  0.00334619  1
  Zn  Zn96  1  0.86677447  0.49969923  0.37024316  1
  Zn  Zn97  1  0.62747239  0.62343770  0.49705581  1
  Zn  Zn98  1  0.49649054  0.75180769  0.75608472  1
  Zn  Zn99  1  -0.00263094  0.62562131  0.62298560  1
  Zn  Zn100  1  0.38532374  0.25945240  0.12635033  1
  Zn  Zn101  1  0.25312264  0.24836791  0.00237427  1
  Zn  Zn102  1  0.87314202  0.50069444  0.87633480  1
  Zn  Zn103  1  0.62939116  0.74992519  0.37388146  1
  Zn  Zn104  1  0.49181113  0.36999528  0.36154906  1
  Zn  Zn105  1  0.74712080  0.62006059  0.36588384  1
  Zn  Zn106  1  0.37174793  0.37690451  0.50018260  1
  Zn  Zn107  1  0.19115979  0.19224664  0.18994906  1
  Zn  Zn108  1  0.18800732  0.18939260  0.69275621  1
  Zn  Zn109  1  0.18113064  0.68813115  0.18445914  1
  Zn  Zn110  1  0.18546046  0.69058334  0.68831410  1
  Zn  Zn111  1  0.68618823  0.17848555  0.20131026  1
  Zn  Zn112  1  0.68587956  0.18529004  0.68744675  1
  Zn  Zn113  1  0.68921485  0.68797829  0.18503738  1
  Zn  Zn114  1  0.68712451  0.68804280  0.68734294  1
  Zn  Zn115  1  0.31277383  0.31501700  0.30688601  1
  Zn  Zn116  1  0.31187254  0.31873555  0.81752348  1
  Zn  Zn117  1  0.31493026  0.81236805  0.31028129  1
  Zn  Zn118  1  0.30896215  0.80917237  0.80939788  1
  Zn  Zn119  1  0.80568238  0.30655640  0.31057912  1
  Zn  Zn120  1  0.81706335  0.31045000  0.81690781  1
  Zn  Zn121  1  0.81565750  0.80935833  0.31280747  1
  Zn  Zn122  1  0.80608437  0.80621138  0.81239778  1
  Zn  Zn123  1  0.18595061  0.43794708  0.43653816  1
  Zn  Zn124  1  0.18202562  0.44075671  0.93679118  1
  Zn  Zn125  1  0.19051248  0.93621281  0.43616580  1
  Zn  Zn126  1  0.19465136  0.93599300  0.93444959  1
  Zn  Zn127  1  0.68356847  0.43608150  0.43510000  1
  Zn  Zn128  1  0.69072807  0.43807089  0.94602303  1
  Zn  Zn129  1  0.69203986  0.93365113  0.43772928  1
  Zn  Zn130  1  0.69054995  0.93789765  0.93908146  1
  Zn  Zn131  1  0.32307608  0.06455716  0.05971286  1
  Zn  Zn132  1  0.33912145  0.07247175  0.55428544  1
  Zn  Zn133  1  0.30939864  0.56134714  0.06220017  1
  Zn  Zn134  1  0.31178353  0.56176601  0.56375902  1
  Zn  Zn135  1  0.80131335  0.05595547  0.06278839  1
  Zn  Zn136  1  0.81256047  0.05564498  0.56222067  1
  Zn  Zn137  1  0.81862260  0.56456019  0.06124809  1
  Zn  Zn138  1  0.80719138  0.54948116  0.54867388  1
  Zn  Zn139  1  0.44221251  0.43594197  0.18611979  1
  Zn  Zn140  1  0.43312137  0.43814581  0.68997556  1
  Zn  Zn141  1  0.44036453  0.93931508  0.18658962  1
  Zn  Zn142  1  0.43821615  0.93921167  0.68655167  1
  Zn  Zn143  1  0.93684787  0.43645047  0.19032289  1
  Zn  Zn144  1  0.93120298  0.43602750  0.68618970  1
  Zn  Zn145  1  0.93744478  0.95351930  0.18796022  1
  Zn  Zn146  1  0.93737392  0.93768841  0.68555340  1
  Zn  Zn147  1  0.06654976  0.06095386  0.30875040  1
  Zn  Zn148  1  0.06430339  0.06452028  0.81491512  1
  Zn  Zn149  1  0.05561298  0.56345967  0.31309020  1
  Zn  Zn150  1  0.05891382  0.57091545  0.81183130  1
  Zn  Zn151  1  0.56695741  0.06340348  0.31227252  1
  Zn  Zn152  1  0.56287670  0.06926197  0.80993216  1
  Zn  Zn153  1  0.56287922  0.56474591  0.31428092  1
  Zn  Zn154  1  0.56506649  0.56606998  0.81287254  1
  Zn  Zn155  1  0.43758895  0.18239330  0.44552896  1
  Zn  Zn156  1  0.43981487  0.19060368  0.94282697  1
  Zn  Zn157  1  0.44059800  0.68668546  0.43771520  1
  Zn  Zn158  1  0.43840542  0.68454517  0.93737505  1
  Zn  Zn159  1  0.93885948  0.19055654  0.43618081  1
  Zn  Zn160  1  0.93348270  0.18955643  0.93854296  1
  Zn  Zn161  1  0.93501199  0.68390479  0.43198408  1
  Zn  Zn162  1  0.93318941  0.69447332  0.92960139  1
  Zn  Zn163  1  0.05991259  0.31253970  0.06516463  1
  Zn  Zn164  1  0.06023520  0.30966014  0.56288633  1
  Zn  Zn165  1  0.06151378  0.82589133  0.05416459  1
  Zn  Zn166  1  0.06306738  0.81064315  0.56544626  1
  Zn  Zn167  1  0.56961084  0.31533164  0.05986581  1
  Zn  Zn168  1  0.56498601  0.31283823  0.55924028  1
  Zn  Zn169  1  0.56224787  0.81232035  0.05842260  1
  Zn  Zn170  1  0.56574516  0.81265905  0.56422805  1
  O  O171  1  0.14003924  0.11349223  0.12198701  1
  O  O172  1  0.12248873  0.11995270  0.62048440  1
  O  O173  1  0.12770152  0.61872303  0.11135403  1
  O  O174  1  0.12474195  0.63021679  0.60949543  1
  O  O175  1  0.61653156  0.11450217  0.12584392  1
  O  O176  1  0.62724576  0.10771269  0.62576386  1
  O  O177  1  0.62047280  0.62023856  0.11751147  1
  O  O178  1  0.61844719  0.61398693  0.62511772  1
  O  O179  1  0.37185177  0.39000160  0.37621306  1
  O  O180  1  0.38360344  0.37700526  0.87726842  1
  O  O181  1  0.38192889  0.87824233  0.38037778  1
  O  O182  1  0.37136652  0.88815388  0.86934037  1
  O  O183  1  0.87948592  0.37322178  0.38534563  1
  O  O184  1  0.88200445  0.37847691  0.88302372  1
  O  O185  1  0.88413611  0.88072081  0.38283671  1
  O  O186  1  0.87337993  0.88394857  0.86873025  1
  O  O187  1  0.25639646  0.00263792  0.36520432  1
  O  O188  1  0.25883154  0.00693024  0.86652732  1
  O  O189  1  0.25497113  0.50717324  0.36899008  1
  O  O190  1  0.24365277  0.51425194  0.86703643  1
  O  O191  1  0.75808701  -0.00012637  0.37269223  1
  O  O192  1  0.75754066  0.00672011  0.86795272  1
  O  O193  1  0.75837027  0.51256688  0.40679996  1
  O  O194  1  0.74628441  0.51575681  0.87942728  1
  O  O195  1  0.24105951  0.49472784  0.12965203  1
  O  O196  1  0.25209568  0.49171628  0.63290338  1
  O  O197  1  0.25079690  0.99423705  0.12855064  1
  O  O198  1  0.25065866  0.99747959  0.62952489  1
  O  O199  1  0.73724118  0.50284738  0.11876762  1
  O  O200  1  0.73675283  0.48961026  0.62193528  1
  O  O201  1  0.73356694  1.00247544  0.13688424  1
  O  O202  1  0.74153643  0.98970997  0.63122132  1
  O  O203  1  0.00380597  0.36811415  0.25855453  1
  O  O204  1  -0.00300185  0.36759059  0.75631333  1
  O  O205  1  0.00279789  0.87024474  0.25456548  1
  O  O206  1  0.00023327  0.86175532  0.74458717  1
  O  O207  1  0.51296999  0.38292732  0.25139956  1
  O  O208  1  0.49814749  0.36302045  0.74873374  1
  O  O209  1  0.49121403  0.86426941  0.25888273  1
  O  O210  1  0.51106585  0.87251157  0.74775077  1
  O  O211  1  0.50003352  0.11858355  0.23566101  1
  O  O212  1  0.49154737  0.13604601  0.74343632  1
  O  O213  1  0.49274559  0.63267052  0.24381866  1
  O  O214  1  0.49186159  0.62437107  0.74108525  1
  O  O215  1  1.00499843  0.13848899  0.25598133  1
  O  O216  1  0.99484477  0.13070100  0.74511785  1
  O  O217  1  0.99554557  0.64148235  0.25054076  1
  O  O218  1  0.98591482  0.63236844  0.74524648  1
  O  O219  1  0.37241521  0.25471379  0.00877956  1
  O  O220  1  0.36505885  0.25575842  0.51135261  1
  O  O221  1  0.36977711  0.75050686  0.00554358  1
  O  O222  1  0.36849549  0.75481031  0.50444555  1
  O  O223  1  0.86485198  0.26196146  -0.00473859  1
  O  O224  1  0.88444737  0.26580172  0.50492699  1
  O  O225  1  0.87270228  0.76686493  -0.00383230  1
  O  O226  1  0.87324542  0.76089282  0.49691913  1
  O  O227  1  0.12897870  0.24354964  0.49293602  1
  O  O228  1  0.12585509  0.25367156  0.98844793  1
  O  O229  1  0.12900936  0.74454459  0.49234016  1
  O  O230  1  0.12701191  0.74705410  0.99218558  1
  O  O231  1  0.62010164  0.24307272  0.48761126  1
  O  O232  1  0.63658371  0.24739859  0.99125039  1
  O  O233  1  0.63584091  0.74914939  0.49964844  1
  O  O234  1  0.63197851  0.74515606  0.99361287  1
  O  O235  1  0.50839909  0.23515465  0.11799621  1
  O  O236  1  0.49169421  0.25024856  0.63069926  1
  O  O237  1  0.49565125  0.74453921  0.12934875  1
  O  O238  1  0.49535396  0.74030567  0.62703393  1
  O  O239  1  1.00335029  0.25052992  0.14091742  1
  O  O240  1  0.99830602  0.24182289  0.63379886  1
  O  O241  1  1.00745834  0.75976298  0.13549504  1
  O  O242  1  1.00320706  0.74549434  0.63929500  1
  O  O243  1  0.00698012  0.26012315  0.37089609  1
  O  O244  1  0.00466595  0.25535330  0.86905602  1
  O  O245  1  0.00388087  0.76217545  0.36978319  1
  O  O246  1  0.00750674  0.74726086  0.85811513  1
  O  O247  1  0.50116656  0.24985206  0.38136637  1
  O  O248  1  0.51297842  0.24788655  0.86852921  1
  O  O249  1  0.49836598  0.75698037  0.36524569  1
  O  O250  1  0.51590476  0.74425903  0.87501356  1
  O  O251  1  0.24789386  0.13164723  0.49410800  1
  O  O252  1  0.25828078  0.12514817  0.98556463  1
  O  O253  1  0.24250090  0.62894917  0.49420804  1
  O  O254  1  0.24553449  0.63056223  0.99162878  1
  O  O255  1  0.75434646  0.10930015  0.48159474  1
  O  O256  1  0.75190707  0.13136672  0.99320104  1
  O  O257  1  0.75230980  0.64212079  0.51229006  1
  O  O258  1  0.74884295  0.63403708  0.99293359  1
  O  O259  1  0.24940921  0.37897648  0.00681948  1
  O  O260  1  0.24856295  0.37099409  0.50835676  1
  O  O261  1  0.25652688  0.86640980  0.00559482  1
  O  O262  1  0.25561534  0.86621685  0.50539398  1
  O  O263  1  0.76063047  0.36611925  0.00725765  1
  O  O264  1  0.75957853  0.37244413  0.50638619  1
  O  O265  1  0.76651509  0.86930982  -0.00643019  1
  O  O266  1  0.75935644  0.86701654  0.50737855  1
  O  O267  1  0.12683653  0.49825448  0.24375965  1
  O  O268  1  0.13514354  0.50546957  0.75066001  1
  O  O269  1  0.13967399  0.99448785  0.24298688  1
  O  O270  1  0.13267811  0.99864369  0.74449108  1
  O  O271  1  0.62426324  0.51006518  0.23335465  1
  O  O272  1  0.61969502  0.50020862  0.73517267  1
  O  O273  1  0.62783044  0.99542695  0.24075085  1
  O  O274  1  0.63064177  0.99316274  0.74967289  1
  O  O275  1  0.36443124  -0.00237397  0.25640346  1
  O  O276  1  0.37332910  0.00998424  0.75370694  1
  O  O277  1  0.36819944  0.50799016  0.25635898  1
  O  O278  1  0.36344732  0.51354706  0.74558168  1
  O  O279  1  0.86520778  -0.00532037  0.26466161  1
  O  O280  1  0.86818110  0.00293009  0.75543805  1
  O  O281  1  0.88178224  0.51503074  0.25176768  1
  O  O282  1  0.87650896  0.51318559  0.75414470  1
  O  O283  1  0.11717104  0.37057988  0.36851634  1
  O  O284  1  0.11566790  0.36787368  0.87186907  1
  O  O285  1  0.11824691  0.87223689  0.36645934  1
  O  O286  1  0.13254751  0.86119616  0.87267715  1
  O  O287  1  0.61770736  0.35970000  0.38213953  1
  O  O288  1  0.62510648  0.36537876  0.87948846  1
  O  O289  1  0.60987192  0.87392114  0.38099593  1
  O  O290  1  0.63297173  0.86750380  0.86573976  1
  O  O291  1  0.39380671  0.12199517  0.12799194  1
  O  O292  1  0.35753118  0.14407323  0.64562170  1
  O  O293  1  0.38010295  0.62980052  0.12923836  1
  O  O294  1  0.38152153  0.62948056  0.63106243  1
  O  O295  1  0.90333707  0.05264086  0.11209290  1
  O  O296  1  0.87980559  0.12256397  0.63153381  1
  O  O297  1  0.87870286  0.62432053  0.13774711  1
  O  O298  1  0.87189032  0.61499654  0.63533586  1
  O  O299  1  0.24192029  0.26893833  0.12157153  1
  O  O300  1  0.25295640  0.25922924  0.62298951  1
  O  O301  1  0.25420996  0.75604413  0.11943689  1
  O  O302  1  0.25600905  0.75712195  0.62034504  1
  O  O303  1  0.74309784  0.24313405  0.11779834  1
  O  O304  1  0.74888053  0.26230339  0.62914793  1
  O  O305  1  0.74540985  0.75169783  0.10858811  1
  O  O306  1  0.74526900  0.76429693  0.62135058  1
  O  O307  1  0.24348327  0.24756251  0.38072449  1
  O  O308  1  0.23939227  0.24345235  0.87353624  1
  O  O309  1  0.24424728  0.74494722  0.37832633  1
  O  O310  1  0.24214655  0.73991841  0.87700844  1
  O  O311  1  0.75111516  0.23108793  0.38194263  1
  O  O312  1  0.74575760  0.24253852  0.87965777  1
  O  O313  1  0.74946940  0.74947337  0.38625107  1
  O  O314  1  0.74061456  0.74100608  0.88249940  1
  O  O315  1  -0.00326584  0.10736023  -0.00912163  1
  O  O316  1  0.00749822  0.11880832  0.50477840  1
  O  O317  1  0.00701242  0.63178671  -0.00683728  1
  O  O318  1  0.00486838  0.61566357  0.50068710  1
  O  O319  1  0.50384607  0.11312459  0.00970106  1
  O  O320  1  0.44879297  0.10655149  0.52429561  1
  O  O321  1  0.50801262  0.61904467  0.00527551  1
  O  O322  1  0.49790164  0.61646778  0.51302192  1
  O  O323  1  0.49292330  0.38711025  0.50151511  1
  O  O324  1  0.50223679  0.39135098  1.00164902  1
  O  O325  1  0.48785539  0.86724862  0.49291590  1
  O  O326  1  0.49830811  0.88978276  1.00162467  1
  O  O327  1  0.99922996  0.37924673  0.49351588  1
  O  O328  1  0.98647468  0.36765709  0.99236554  1
  O  O329  1  0.99687143  0.87778100  0.49345853  1
  O  O330  1  0.98324931  0.89866898  1.00622218  1
  O  O331  1  0.49081529  0.50293328  0.38467967  1
  O  O332  1  0.51003602  0.50310706  0.89122652  1
  O  O333  1  0.48853170  0.99222365  0.36742853  1
  O  O334  1  0.49310748  1.00861674  0.88149360  1
  O  O335  1  0.99780319  0.48600858  0.38113478  1
  O  O336  1  1.00206821  0.48763961  0.87010480  1
  O  O337  1  0.99705045  0.99028183  0.37677150  1
  O  O338  1  0.98381995  1.00046390  0.86592624  1
  O  O339  1  0.03336246  -0.00911821  0.12679135  1
  O  O340  1  0.00838793  0.00543271  0.61990248  1
  O  O341  1  0.01142089  0.49744387  0.12691847  1
  O  O342  1  0.00075543  0.49807964  0.61426330  1
  O  O343  1  0.50998014  0.00472654  0.11966698  1
  O  O344  1  0.51750777  -0.00228011  0.62955436  1
  O  O345  1  0.50898360  0.50908957  0.11531268  1
  O  O346  1  0.50521309  0.50394659  0.62110978  1
  O  O347  1  0.23917383  0.38571266  0.24326350  1
  O  O348  1  0.24507886  0.38622146  0.74443292  1
  O  O349  1  0.24671725  0.88066372  0.24202371  1
  O  O350  1  0.25031138  0.88235124  0.73911590  1
  O  O351  1  0.74182626  0.37350923  0.25004225  1
  O  O352  1  0.75596012  0.37428893  0.73944415  1
  O  O353  1  0.74879944  0.88620339  0.26050796  1
  O  O354  1  0.74307229  0.87865225  0.74338494  1
  O  O355  1  0.25207009  0.11652628  0.25660105  1
  O  O356  1  0.25598758  0.12058193  0.76119725  1
  O  O357  1  0.25230992  0.62238510  0.25450119  1
  O  O358  1  0.25443069  0.62148982  0.75452986  1
  O  O359  1  0.74325514  0.10617881  0.27324195  1
  O  O360  1  0.75650203  0.11914853  0.75595873  1
  O  O361  1  0.76660618  0.63402445  0.24859742  1
  O  O362  1  0.76395534  0.63414883  0.75573789  1
  O  O363  1  0.36939711  0.11461272  0.37069438  1
  O  O364  1  0.37091252  0.12128712  0.86624257  1
  O  O365  1  0.36897010  0.61727987  0.37123170  1
  O  O366  1  0.36459234  0.63097700  0.86528911  1
  O  O367  1  0.87678343  0.11138269  0.38216381  1
  O  O368  1  0.86519197  0.11814969  0.86869005  1
  O  O369  1  0.87481659  0.62285898  0.35943795  1
  O  O370  1  0.86802465  0.62303788  0.86552924  1
  O  O371  1  0.12863571  0.38586377  0.12832265  1
  O  O372  1  0.13468467  0.36980789  0.62917567  1
  O  O373  1  0.14176106  0.87783164  0.12672052  1
  O  O374  1  0.13409565  0.88323700  0.62455074  1
  O  O375  1  0.62972029  0.39033952  0.12346925  1
  O  O376  1  0.63615663  0.38270596  0.62311728  1
  O  O377  1  0.62021685  0.88746710  0.12360687  1
  O  O378  1  0.63141310  0.88313250  0.63374017  1
  O  O379  1  0.12249530  0.25823490  0.25786887  1
  O  O380  1  0.11145945  0.25115795  0.75740442  1
  O  O381  1  0.11539287  0.75611246  0.25462283  1
  O  O382  1  0.11458531  0.75048134  0.75645774  1
  O  O383  1  0.62979783  0.24277000  0.27855709  1
  O  O384  1  0.61736310  0.24403812  0.75979138  1
  O  O385  1  0.61259849  0.74744486  0.24924981  1
  O  O386  1  0.62376197  0.75875117  0.75714860  1
  O  O387  1  0.36846128  0.24986891  0.23849377  1
  O  O388  1  0.38140692  0.24683382  0.74812511  1
  O  O389  1  0.38040480  0.74349625  0.24224027  1
  O  O390  1  0.37587945  0.73987304  0.74325653  1
  O  O391  1  0.88778379  0.24769992  0.25418042  1
  O  O392  1  0.88599425  0.24240978  0.74941972  1
  O  O393  1  0.88850917  0.74575857  0.24876249  1
  O  O394  1  0.88468499  0.74200866  0.75243272  1
  O  O395  1  0.37958557  0.50106335  0.49162169  1
  O  O396  1  0.39290284  0.50607701  1.00374937  1
  O  O397  1  0.35860316  0.98145681  0.48371078  1
  O  O398  1  0.38482653  0.99681002  0.98811827  1
  O  O399  1  0.88705685  0.48166868  0.50066018  1
  O  O400  1  0.87045645  0.48362384  0.99593653  1
  O  O401  1  0.88461187  0.98719285  0.49457547  1
  O  O402  1  0.86927669  0.98871861  0.98183451  1
  O  O403  1  0.13593298  -0.00014062  0.00933200  1
  O  O404  1  0.12182138  0.00427677  0.50388043  1
  O  O405  1  0.12458156  0.51393959  0.00607103  1
  O  O406  1  0.11573177  0.50908605  0.49335773  1
  O  O407  1  0.62257152  0.00168704  0.00910984  1
  O  O408  1  0.62558980  -0.00926225  0.51334726  1
  O  O409  1  0.61916675  0.50856597  0.00885649  1
  O  O410  1  0.61381072  0.50152112  0.51122008  1
  O  O411  1  0.36323883  0.38257681  0.11930879  1
  O  O412  1  0.36302633  0.36576284  0.62824003  1
  O  O413  1  0.36575981  0.87047073  0.12456995  1
  O  O414  1  0.37164321  0.87147423  0.61653544  1
  O  O415  1  0.87579791  0.37663425  0.11348502  1
  O  O416  1  0.86025970  0.37341445  0.61740775  1
  O  O417  1  0.87372792  0.88060355  0.11569787  1
  O  O418  1  0.86578180  0.88094384  0.61554022  1
  O  O419  1  0.13262118  0.12881460  0.38070860  1
  O  O420  1  0.13454624  0.13481109  0.87088746  1
  O  O421  1  0.12704791  0.63096845  0.38245827  1
  O  O422  1  0.12988835  0.63516323  0.88197436  1
  O  O423  1  0.62707379  0.12922489  0.38440067  1
  O  O424  1  0.63959244  0.12904410  0.87633521  1
  O  O425  1  0.62835346  0.63061515  0.37949567  1
  O  O426  1  0.63275900  0.63268352  0.87943147  1
