# generated using pymatgen
data_V85Zn86O256
_symmetry_space_group_name_H-M   'P 1'
_cell_length_a   16.94306454
_cell_length_b   16.96104238
_cell_length_c   16.95341472
_cell_angle_alpha   89.97984909
_cell_angle_beta   90.09312898
_cell_angle_gamma   89.99402193
_symmetry_Int_Tables_number   1
_chemical_formula_structural   V85Zn86O256
_chemical_formula_sum   'V85 Zn86 O256'
_cell_volume   4871.93053855
_cell_formula_units_Z   1
loop_
 _symmetry_equiv_pos_site_id
 _symmetry_equiv_pos_as_xyz
  1  'x, y, z'
loop_
 _atom_site_type_symbol
 _atom_site_label
 _atom_site_symmetry_multiplicity
 _atom_site_fract_x
 _atom_site_fract_y
 _atom_site_fract_z
 _atom_site_occupancy
  V  V0  1  0.75599222  0.00060885  0.75703238  1
  V  V1  1  0.25463670  0.50151973  0.24868048  1
  V  V2  1  0.74641172  0.37489301  0.12494648  1
  V  V3  1  0.37795434  0.87782632  0.50024105  1
  V  V4  1  0.50364933  0.00017024  0.50003569  1
  V  V5  1  0.25097020  0.74578201  0.48987606  1
  V  V6  1  0.25883574  0.36992596  0.62723025  1
  V  V7  1  0.25901132  0.12467343  0.37534485  1
  V  V8  1  0.62755491  -0.00022612  0.62734809  1
  V  V9  1  0.49419651  0.23619318  0.24646109  1
  V  V10  1  0.87839030  -0.00527118  0.37881299  1
  V  V11  1  0.73159106  0.63133965  0.87977410  1
  V  V12  1  0.86745476  0.75467044  0.11649611  1
  V  V13  1  0.50704201  0.87066926  0.37497639  1
  V  V14  1  0.25545787  0.00448078  0.74860323  1
  V  V15  1  0.37257962  0.23049507  0.12280076  1
  V  V16  1  0.37368634  0.74374472  0.12371775  1
  V  V17  1  0.37526048  0.00339643  0.87246899  1
  V  V18  1  0.24433868  0.50108176  0.74166041  1
  V  V19  1  0.12571804  0.00176073  0.62425605  1
  V  V20  1  0.62201219  0.63099052  0.49779237  1
  V  V21  1  0.74816861  0.49999408  0.25019631  1
  V  V22  1  0.74894085  0.36944868  0.61685489  1
  V  V23  1  0.49457623  0.37447957  0.37291777  1
  V  V24  1  0.87958940  0.13324575  0.75357939  1
  V  V25  1  0.63451864  0.12857270  0.50185984  1
  V  V26  1  0.49199936  0.00766841  0.00536691  1
  V  V27  1  0.00169956  -0.00790964  0.50049070  1
  V  V28  1  0.62101717  0.00353976  0.12850376  1
  V  V29  1  0.12074047  0.24710328  0.37268428  1
  V  V30  1  0.87652594  0.50178647  0.38385226  1
  V  V31  1  0.63124532  0.87318734  0.25222441  1
  V  V32  1  0.37443153  0.37130380  0.00198219  1
  V  V33  1  0.12260436  0.36842874  0.24337550  1
  V  V34  1  0.62556785  0.50333429  0.62567710  1
  V  V35  1  0.00085179  0.13519499  0.62759759  1
  V  V36  1  0.13217007  0.25199847  0.88078962  1
  V  V37  1  0.62118616  0.12637120  0.00324403  1
  V  V38  1  0.74801580  0.00533167  0.24934050  1
  V  V39  1  0.25162075  0.13281253  0.88123577  1
  V  V40  1  0.11845795  0.75112648  0.87357394  1
  V  V41  1  0.12180198  0.87719348  0.75107673  1
  V  V42  1  0.93113170  0.08434616  0.19781434  1
  V  V43  1  0.38083232  0.14380900  0.74551371  1
  V  V44  1  0.61917227  0.37039213  0.75213883  1
  V  V45  1  0.87385170  0.37197896  -0.00488850  1
  V  V46  1  0.26109269  0.24766355  0.50433800  1
  V  V47  1  0.12114188  0.62395251  0.00389705  1
  V  V48  1  0.50168807  0.87665035  0.87482014  1
  V  V49  1  0.37152459  0.87737808  0.00037812  1
  V  V50  1  0.75489770  0.74955890  0.50571389  1
  V  V51  1  0.62037755  0.49965757  0.12062875  1
  V  V52  1  0.87634084  0.62443454  0.24755954  1
  V  V53  1  0.50121363  0.13883568  0.62852631  1
  V  V54  1  0.24444076  0.62144571  0.87155970  1
  V  V55  1  0.50205148  0.74919524  0.75589890  1
  V  V56  1  0.87119738  0.89214846  -0.00471138  1
  V  V57  1  0.12276616  0.87278481  0.26375051  1
  V  V58  1  0.62711475  0.25214939  0.37732544  1
  V  V59  1  0.24650276  0.74999399  0.00164312  1
  V  V60  1  0.22832911  0.02129285  0.22629242  1
  V  V61  1  0.74595358  0.63165889  0.37664774  1
  V  V62  1  0.00093652  0.37668381  0.37439305  1
  V  V63  1  0.88494897  0.25774226  0.13942537  1
  V  V64  1  0.55814442  0.67057376  0.06620729  1
  V  V65  1  0.49715421  0.49972495  0.00077422  1
  V  V66  1  0.37372993  0.50891787  0.37708331  1
  V  V67  1  -0.00434181  0.75485513  0.25792621  1
  V  V68  1  0.87721061  0.50845049  0.87107836  1
  V  V69  1  0.25169560  0.87468043  0.62510488  1
  V  V70  1  0.11550179  0.37250927  0.73805230  1
  V  V71  1  0.49496592  0.62767002  0.62708317  1
  V  V72  1  0.74667274  0.25271308  0.00031470  1
  V  V73  1  0.62767972  0.87098357  0.75661355  1
  V  V74  1  0.76121485  0.87066079  0.62891906  1
  V  V75  1  0.12207023  0.49577022  0.12455751  1
  V  V76  1  0.75583292  0.12396914  0.87755453  1
  V  V77  1  0.37559733  0.00162890  0.36191119  1
  V  V78  1  0.24921084  0.37035535  0.11647396  1
  V  V79  1  0.00753467  0.62493637  0.61812075  1
  V  V80  1  0.12715517  0.12458771  0.50203159  1
  V  V81  1  0.75949918  0.13148541  0.37466140  1
  V  V82  1  -0.00513931  0.36144013  0.86703614  1
  V  V83  1  0.50440564  0.74470931  0.25269713  1
  V  V84  1  0.23661959  0.87165227  0.12614180  1
  Zn  Zn85  1  -0.00916008  0.75341848  0.73964924  1
  Zn  Zn86  1  0.74935478  0.50202881  0.75121485  1
  Zn  Zn87  1  0.73558757  0.75183884  0.00089605  1
  Zn  Zn88  1  0.37140769  0.49838342  0.87525913  1
  Zn  Zn89  1  -0.00386356  0.62404069  0.12332730  1
  Zn  Zn90  1  0.61767697  0.24537687  0.87042982  1
  Zn  Zn91  1  0.87265172  0.25029308  0.62040417  1
  Zn  Zn92  1  0.87106599  0.64133173  0.73805076  1
  Zn  Zn93  1  0.37777182  0.37427451  0.50425593  1
  Zn  Zn94  1  0.37149805  0.62529749  0.75011212  1
  Zn  Zn95  1  0.38219706  0.62223171  0.24476718  1
  Zn  Zn96  1  0.07713239  0.06485023  0.06777538  1
  Zn  Zn97  1  0.11651646  0.73459593  0.38503103  1
  Zn  Zn98  1  0.87918369  0.37173547  0.50078194  1
  Zn  Zn99  1  0.62087732  0.37367699  0.24941597  1
  Zn  Zn100  1  0.49396225  0.36923907  0.87025968  1
  Zn  Zn101  1  0.88339568  0.86737571  0.50092643  1
  Zn  Zn102  1  -0.00216080  0.88987961  0.88316377  1
  Zn  Zn103  1  0.00174891  0.49130998  -0.00167785  1
  Zn  Zn104  1  0.04472094  0.50332926  0.51364790  1
  Zn  Zn105  1  0.37572768  0.75159398  0.62732154  1
  Zn  Zn106  1  0.49286002  0.50208092  0.50122389  1
  Zn  Zn107  1  0.19088054  0.19243202  0.18825540  1
  Zn  Zn108  1  0.18825185  0.19178730  0.69182454  1
  Zn  Zn109  1  0.17041865  0.66939723  0.22005108  1
  Zn  Zn110  1  0.18218315  0.69042930  0.68343079  1
  Zn  Zn111  1  0.68614407  0.18903760  0.19035135  1
  Zn  Zn112  1  0.68873327  0.18994332  0.68927557  1
  Zn  Zn113  1  0.69231422  0.69120527  0.19303814  1
  Zn  Zn114  1  0.68945993  0.68736344  0.69240155  1
  Zn  Zn115  1  0.31329308  0.31170838  0.30789309  1
  Zn  Zn116  1  0.31273798  0.31724036  0.81104152  1
  Zn  Zn117  1  0.31602663  0.81700166  0.30798545  1
  Zn  Zn118  1  0.31141578  0.81103664  0.81255073  1
  Zn  Zn119  1  0.80981162  0.31722270  0.31606177  1
  Zn  Zn120  1  0.80324137  0.31210852  0.80839929  1
  Zn  Zn121  1  0.81074816  0.81204133  0.31515555  1
  Zn  Zn122  1  0.81196655  0.80913399  0.82239049  1
  Zn  Zn123  1  0.19365160  0.42587875  0.42884913  1
  Zn  Zn124  1  0.18388426  0.43525116  0.93443544  1
  Zn  Zn125  1  0.19054372  0.93593516  0.43447480  1
  Zn  Zn126  1  0.18274508  0.94094186  0.93410761  1
  Zn  Zn127  1  0.68299903  0.44332856  0.43828616  1
  Zn  Zn128  1  0.68685704  0.44409493  0.93622436  1
  Zn  Zn129  1  0.69237019  0.93776782  0.43848884  1
  Zn  Zn130  1  0.69000679  0.93701826  0.94111348  1
  Zn  Zn131  1  0.25166890  0.05878300  0.05808904  1
  Zn  Zn132  1  0.31805885  0.06268374  0.56277135  1
  Zn  Zn133  1  0.30961575  0.56128303  0.06262589  1
  Zn  Zn134  1  0.25272210  0.54113812  0.53288214  1
  Zn  Zn135  1  0.80342023  0.06666916  0.06720414  1
  Zn  Zn136  1  0.81538492  0.06220386  0.56492362  1
  Zn  Zn137  1  0.81007851  0.56220867  0.05728470  1
  Zn  Zn138  1  0.81468387  0.56303148  0.56605483  1
  Zn  Zn139  1  0.43947059  0.43334592  0.18602425  1
  Zn  Zn140  1  0.43515219  0.44321806  0.68872651  1
  Zn  Zn141  1  0.43487600  0.93521629  0.18506582  1
  Zn  Zn142  1  0.44132565  0.94160115  0.68743724  1
  Zn  Zn143  1  0.93834585  0.43611598  0.19061464  1
  Zn  Zn144  1  0.93590105  0.44801529  0.68164615  1
  Zn  Zn145  1  0.93644614  0.92064171  0.18438754  1
  Zn  Zn146  1  0.93887774  0.94434609  0.69106085  1
  Zn  Zn147  1  0.06433107  0.06208768  0.32023471  1
  Zn  Zn148  1  0.06680450  0.06696244  0.81205760  1
  Zn  Zn149  1  0.06438677  0.56015079  0.31907435  1
  Zn  Zn150  1  0.05670283  0.55931170  0.80307848  1
  Zn  Zn151  1  0.56469250  0.06345488  0.31801873  1
  Zn  Zn152  1  0.56363392  0.06407622  0.81401313  1
  Zn  Zn153  1  0.56289611  0.56022203  0.31275208  1
  Zn  Zn154  1  0.55888539  0.55548516  0.81218560  1
  Zn  Zn155  1  0.44311639  0.18566946  0.43924951  1
  Zn  Zn156  1  0.43706981  0.19021116  0.93588963  1
  Zn  Zn157  1  0.43409361  0.68945828  0.43789250  1
  Zn  Zn158  1  0.43034633  0.69064877  0.93002623  1
  Zn  Zn159  1  0.93834370  0.18871310  0.44320106  1
  Zn  Zn160  1  0.94524090  0.07089169  0.94256946  1
  Zn  Zn161  1  0.93719375  0.68179687  0.44387870  1
  Zn  Zn162  1  0.94028827  0.69001073  0.93625813  1
  Zn  Zn163  1  0.01545529  0.24438433  0.01449204  1
  Zn  Zn164  1  0.06613295  0.31306885  0.55634011  1
  Zn  Zn165  1  0.05406466  0.81302863  0.06639963  1
  Zn  Zn166  1  0.06638215  0.80651749  0.56396233  1
  Zn  Zn167  1  0.55649798  0.31035074  0.06293715  1
  Zn  Zn168  1  0.56408954  0.31680864  0.55836444  1
  Zn  Zn169  1  0.55996391  0.83433026  0.06906650  1
  Zn  Zn170  1  0.56873802  0.81097032  0.56675380  1
  O  O171  1  0.17028684  0.08999482  0.14850925  1
  O  O172  1  0.12175834  0.12003385  0.62302733  1
  O  O173  1  0.12295794  0.61451493  0.12025480  1
  O  O174  1  0.11056810  0.62368611  0.62888592  1
  O  O175  1  0.62978929  0.11628613  0.11486693  1
  O  O176  1  0.62431744  0.11952599  0.62035280  1
  O  O177  1  0.62604910  0.61783436  0.12827218  1
  O  O178  1  0.61827895  0.62018900  0.62117274  1
  O  O179  1  0.38546242  0.37766745  0.37359316  1
  O  O180  1  0.37148519  0.37593033  0.89007074  1
  O  O181  1  0.38557232  0.88316617  0.38094721  1
  O  O182  1  0.37851245  0.88170346  0.88049212  1
  O  O183  1  0.88507406  0.38299796  0.37365829  1
  O  O184  1  0.87647971  0.37659083  0.87767717  1
  O  O185  1  0.86825927  0.89093497  0.37775112  1
  O  O186  1  0.87640171  0.87749997  0.89196143  1
  O  O187  1  0.25809149  0.00799218  0.37052591  1
  O  O188  1  0.25632119  0.01191110  0.86646821  1
  O  O189  1  0.26480470  0.48521294  0.35756291  1
  O  O190  1  0.24650742  0.50769726  0.86625351  1
  O  O191  1  0.75653785  0.00896497  0.36783919  1
  O  O192  1  0.74347405  0.00968964  0.86665824  1
  O  O193  1  0.75454706  0.50802651  0.36903343  1
  O  O194  1  0.76128393  0.51007433  0.87594830  1
  O  O195  1  0.24005997  0.49037128  0.12643269  1
  O  O196  1  0.24975955  0.49015649  0.63694735  1
  O  O197  1  0.27671770  0.97888460  0.13769553  1
  O  O198  1  0.24723280  0.99145893  0.62685085  1
  O  O199  1  0.74370924  0.49132870  0.12662372  1
  O  O200  1  0.73787617  0.49543858  0.62624583  1
  O  O201  1  0.74205934  1.00558748  0.14205995  1
  O  O202  1  0.74172860  0.99510240  0.63215424  1
  O  O203  1  0.01088479  0.37903116  0.26211130  1
  O  O204  1  0.00896678  0.37921192  0.75031013  1
  O  O205  1  0.00723797  0.86747788  0.25200033  1
  O  O206  1  0.01384958  0.87888879  0.74960687  1
  O  O207  1  0.50138030  0.36411178  0.25736076  1
  O  O208  1  0.51461977  0.38365407  0.74912312  1
  O  O209  1  0.50879774  0.86783436  0.25640984  1
  O  O210  1  0.50839298  0.87040846  0.75371102  1
  O  O211  1  0.50016481  0.13767887  0.25751442  1
  O  O212  1  0.49397878  0.12028743  0.74030095  1
  O  O213  1  0.50340386  0.64030721  0.25441170  1
  O  O214  1  0.50130113  0.63334652  0.74649844  1
  O  O215  1  0.99458258  0.13207813  0.25686022  1
  O  O216  1  0.99012006  0.12028976  0.74041535  1
  O  O217  1  0.98437277  0.62838558  0.24709928  1
  O  O218  1  0.99547288  0.62937237  0.74103253  1
  O  O219  1  0.38411025  0.25739676  0.01683462  1
  O  O220  1  0.36445777  0.24938500  0.49505861  1
  O  O221  1  0.36678258  0.75568361  0.00351617  1
  O  O222  1  0.37381748  0.76610353  0.50388442  1
  O  O223  1  0.86300388  0.26412615  0.01398812  1
  O  O224  1  0.88049830  0.25857470  0.50637215  1
  O  O225  1  0.87415406  0.74832146  0.01156687  1
  O  O226  1  0.86010975  0.75200024  0.49391000  1
  O  O227  1  0.13690904  0.24345340  0.49059250  1
  O  O228  1  0.12741053  0.25721559  0.97992810  1
  O  O229  1  0.14457427  0.75560118  0.49606960  1
  O  O230  1  0.12658062  0.74377232  0.99684300  1
  O  O231  1  0.61976115  0.24224842  0.48614088  1
  O  O232  1  0.62917562  0.24055042  1.00569108  1
  O  O233  1  0.63488199  0.73820953  0.50398920  1
  O  O234  1  0.61550181  0.74561044  1.01857894  1
  O  O235  1  0.48967114  0.24872413  0.13817212  1
  O  O236  1  0.50724047  0.23742391  0.61895871  1
  O  O237  1  0.49761508  0.74504780  0.12699501  1
  O  O238  1  0.50189063  0.74613981  0.63750304  1
  O  O239  1  0.98325761  0.26215806  0.12746523  1
  O  O240  1  1.00526251  0.23762161  0.62050675  1
  O  O241  1  0.98333260  0.74696162  0.13566797  1
  O  O242  1  1.00228492  0.73655149  0.62269242  1
  O  O243  1  0.01507885  0.25596983  0.38105461  1
  O  O244  1  0.01200461  0.25992678  0.87273387  1
  O  O245  1  -0.00364685  0.74265278  0.36268271  1
  O  O246  1  0.01256109  0.75700594  0.87598458  1
  O  O247  1  0.50378060  0.25487064  0.36658639  1
  O  O248  1  0.50650472  0.25731659  0.88168338  1
  O  O249  1  0.49486886  0.76128500  0.36704135  1
  O  O250  1  0.49654385  0.75814412  0.86343563  1
  O  O251  1  0.24676364  0.12783165  0.49490146  1
  O  O252  1  0.26504749  0.13864426  0.97951093  1
  O  O253  1  0.26962935  0.65044539  0.50762923  1
  O  O254  1  0.23705617  0.62799208  0.99369555  1
  O  O255  1  0.74014172  0.12032254  0.49534798  1
  O  O256  1  0.74304393  0.13116580  0.99434947  1
  O  O257  1  0.74402475  0.63029618  0.49604798  1
  O  O258  1  0.75049029  0.62724549  0.98463883  1
  O  O259  1  0.25487243  0.37911438  0.01000660  1
  O  O260  1  0.25244169  0.36274293  0.50928042  1
  O  O261  1  0.25368662  0.86751148  0.00646493  1
  O  O262  1  0.26054437  0.87340203  0.50693190  1
  O  O263  1  0.75199849  0.37362927  0.00618761  1
  O  O264  1  0.74384562  0.38076463  0.51471784  1
  O  O265  1  0.76361284  0.86997222  -0.00200675  1
  O  O266  1  0.74865755  0.86652353  0.51072954  1
  O  O267  1  0.13388680  0.48750950  0.24245403  1
  O  O268  1  0.13193558  0.48279132  0.75752840  1
  O  O269  1  0.13045868  0.98926605  0.26149679  1
  O  O270  1  0.13600832  0.99548684  0.74353910  1
  O  O271  1  0.62873487  0.49870793  0.23766524  1
  O  O272  1  0.62667243  0.49329899  0.74047170  1
  O  O273  1  0.63004598  0.99806413  0.24765950  1
  O  O274  1  0.63349238  0.99578244  0.74351870  1
  O  O275  1  0.37224855  -0.00469752  0.26074178  1
  O  O276  1  0.37163967  0.00283102  0.75645837  1
  O  O277  1  0.37223378  0.49903094  0.25300937  1
  O  O278  1  0.36253663  0.50421964  0.75557591  1
  O  O279  1  0.87314767  0.00824930  0.25234776  1
  O  O280  1  0.86095304  0.01168743  0.74531105  1
  O  O281  1  0.86848750  0.50759925  0.25597512  1
  O  O282  1  0.87071013  0.49718375  0.76567115  1
  O  O283  1  0.12185034  0.36492758  0.36380719  1
  O  O284  1  0.11740362  0.36805091  0.86535022  1
  O  O285  1  0.13042191  0.86308463  0.36572229  1
  O  O286  1  0.12598620  0.86882000  0.86698486  1
  O  O287  1  0.61521458  0.36892345  0.37494327  1
  O  O288  1  0.62801659  0.37975298  0.85895823  1
  O  O289  1  0.61440299  0.88374530  0.36927605  1
  O  O290  1  0.61858448  0.88375168  0.86450001  1
  O  O291  1  0.36266958  0.13491724  0.11838489  1
  O  O292  1  0.38923206  0.11849737  0.63319224  1
  O  O293  1  0.37331042  0.63909193  0.12025719  1
  O  O294  1  0.39217419  0.62804218  0.62793906  1
  O  O295  1  0.86910488  0.14054012  0.13362727  1
  O  O296  1  0.88384746  0.12648106  0.63249699  1
  O  O297  1  0.87342451  0.63021711  0.13131672  1
  O  O298  1  0.88996886  0.61674183  0.62690541  1
  O  O299  1  0.26485730  0.25796243  0.12908291  1
  O  O300  1  0.24725872  0.25624500  0.61585775  1
  O  O301  1  0.25693966  0.75795540  0.12104068  1
  O  O302  1  0.25248015  0.76458676  0.62087741  1
  O  O303  1  0.75088226  0.26313860  0.12405547  1
  O  O304  1  0.74639870  0.26632999  0.62442485  1
  O  O305  1  0.76359972  0.74482286  0.12165564  1
  O  O306  1  0.74494933  0.75942920  0.61892364  1
  O  O307  1  0.24546406  0.24357497  0.37987577  1
  O  O308  1  0.23979749  0.24845838  0.86713279  1
  O  O309  1  0.26020147  0.75683273  0.38850093  1
  O  O310  1  0.23765208  0.74390205  0.87974964  1
  O  O311  1  0.73958840  0.24407058  0.36943268  1
  O  O312  1  0.74233898  0.24181111  0.88184496  1
  O  O313  1  0.74987547  0.73708298  0.38108195  1
  O  O314  1  0.74341622  0.73647923  0.88130604  1
  O  O315  1  0.00181254  0.13192323  0.01780031  1
  O  O316  1  0.00938233  0.11537522  0.50773393  1
  O  O317  1  0.01122784  0.62172222  0.00151253  1
  O  O318  1  0.00239996  0.61799903  0.50916503  1
  O  O319  1  0.50640127  0.11413032  -0.00350495  1
  O  O320  1  0.51312818  0.11781799  0.50597639  1
  O  O321  1  0.49610550  0.62051636  -0.00310235  1
  O  O322  1  0.50619590  0.62818003  0.50766251  1
  O  O323  1  0.49631521  0.37961103  0.49032074  1
  O  O324  1  0.49017305  0.38409724  1.00280023  1
  O  O325  1  0.49875807  0.87826841  0.49464225  1
  O  O326  1  0.49307588  0.88775186  0.99356686  1
  O  O327  1  1.00835355  0.38520057  0.48652485  1
  O  O328  1  0.98674463  0.36725596  0.98615161  1
  O  O329  1  1.00183385  0.88744564  0.50802214  1
  O  O330  1  0.97889799  0.87472969  1.00474332  1
  O  O331  1  0.49195234  0.49143837  0.37541294  1
  O  O332  1  0.49562178  0.49511346  0.88836079  1
  O  O333  1  0.49450793  0.99426012  0.38099371  1
  O  O334  1  0.49401996  0.99649861  0.88171453  1
  O  O335  1  0.99199268  0.49410914  0.37439327  1
  O  O336  1  0.98906827  0.48781382  0.87619833  1
  O  O337  1  0.99033445  1.00673166  0.38749993  1
  O  O338  1  1.00605696  1.00288087  0.87775968  1
  O  O339  1  -0.01193943  0.01823286  0.14375184  1
  O  O340  1  0.00756485  0.00939557  0.61926196  1
  O  O341  1  0.01116437  0.49731514  0.12249046  1
  O  O342  1  0.00540298  0.51042303  0.62154142  1
  O  O343  1  0.50576235  -0.00295247  0.11714477  1
  O  O344  1  0.51494258  0.00354911  0.61979597  1
  O  O345  1  0.50653394  0.50028728  0.11488050  1
  O  O346  1  0.50807359  0.50914333  0.62295218  1
  O  O347  1  0.24604686  0.37975385  0.23678096  1
  O  O348  1  0.24221131  0.38084683  0.74304943  1
  O  O349  1  0.23921897  0.87812714  0.24291658  1
  O  O350  1  0.24323044  0.88076511  0.74341056  1
  O  O351  1  0.74462419  0.38279240  0.24237756  1
  O  O352  1  0.73733838  0.38019598  0.73861956  1
  O  O353  1  0.73790506  0.88541944  0.26090767  1
  O  O354  1  0.74484512  0.88219178  0.74851010  1
  O  O355  1  0.25521551  0.12259413  0.26699824  1
  O  O356  1  0.26282145  0.12187769  0.75054791  1
  O  O357  1  0.26340799  0.60422866  0.23311247  1
  O  O358  1  0.24424288  0.61881424  0.75511076  1
  O  O359  1  0.74450428  0.11831052  0.26273808  1
  O  O360  1  0.75234136  0.11957559  0.75854331  1
  O  O361  1  0.75779471  0.62152047  0.25844772  1
  O  O362  1  0.75283159  0.62301559  0.76452793  1
  O  O363  1  0.36960664  0.11369326  0.38578681  1
  O  O364  1  0.37183254  0.12251305  0.86322842  1
  O  O365  1  0.38085273  0.61234936  0.36945821  1
  O  O366  1  0.35459799  0.62511793  0.87394994  1
  O  O367  1  0.86365082  0.11799580  0.38220466  1
  O  O368  1  0.86319345  0.12395662  0.87003176  1
  O  O369  1  0.86728946  0.61822814  0.36863569  1
  O  O370  1  0.87822732  0.61167949  0.87731907  1
  O  O371  1  0.13260680  0.37955514  0.13066629  1
  O  O372  1  0.13286169  0.37060501  0.63468826  1
  O  O373  1  0.13387188  0.87432458  0.12904730  1
  O  O374  1  0.13374024  0.88073544  0.63145030  1
  O  O375  1  0.63002189  0.38161122  0.12568472  1
  O  O376  1  0.62972942  0.38293229  0.62982857  1
  O  O377  1  0.62633879  0.89297740  0.13865304  1
  O  O378  1  0.63303903  0.88362711  0.63549207  1
  O  O379  1  0.13080691  0.26018070  0.25687125  1
  O  O380  1  0.12723110  0.26825007  0.75558901  1
  O  O381  1  0.10840486  0.76318987  0.23782720  1
  O  O382  1  0.12423757  0.76162202  0.75782671  1
  O  O383  1  0.61262361  0.25000020  0.25858642  1
  O  O384  1  0.62705130  0.26639899  0.74960354  1
  O  O385  1  0.61925871  0.76251399  0.24457082  1
  O  O386  1  0.61830312  0.76274265  0.74753320  1
  O  O387  1  0.38520850  0.24974067  0.23896819  1
  O  O388  1  0.37520055  0.24285434  0.74911822  1
  O  O389  1  0.38587527  0.75081231  0.24016044  1
  O  O390  1  0.38384364  0.74791134  0.74758881  1
  O  O391  1  0.87156038  0.25987366  0.23837583  1
  O  O392  1  0.86623977  0.23637006  0.74447513  1
  O  O393  1  0.87482431  0.74536668  0.24262491  1
  O  O394  1  0.87821171  0.75437123  0.75458412  1
  O  O395  1  0.36561971  0.49635150  0.48784018  1
  O  O396  1  0.38060168  0.49282124  1.00059711  1
  O  O397  1  0.38200779  0.99044063  0.49377907  1
  O  O398  1  0.38032946  0.99689539  0.99185150  1
  O  O399  1  0.86674789  0.49366314  0.48601942  1
  O  O400  1  0.87611357  0.48776578  0.99052128  1
  O  O401  1  0.88357779  0.99805857  0.49433503  1
  O  O402  1  0.86924735  0.99556199  1.00559697  1
  O  O403  1  0.15560512  0.00860622  0.01402479  1
  O  O404  1  0.12141945  0.00410456  0.50288535  1
  O  O405  1  0.12298450  0.50529937  0.00679036  1
  O  O406  1  0.15350078  0.50935152  0.48804024  1
  O  O407  1  0.61811935  0.00462686  0.01029975  1
  O  O408  1  0.62450009  0.00678865  0.50772742  1
  O  O409  1  0.61656048  0.49806142  0.01187196  1
  O  O410  1  0.62063340  0.51370783  0.50826746  1
  O  O411  1  0.36702075  0.37293734  0.11580186  1
  O  O412  1  0.36313988  0.37717472  0.62576711  1
  O  O413  1  0.37462275  0.86099783  0.11668733  1
  O  O414  1  0.36999650  0.87849558  0.61770432  1
  O  O415  1  0.86674761  0.37306735  0.11995260  1
  O  O416  1  0.85873311  0.37918674  0.62582795  1
  O  O417  1  0.86900515  0.86211805  0.11587646  1
  O  O418  1  0.86303591  0.88461877  0.62375760  1
  O  O419  1  0.13556332  0.13148204  0.38096419  1
  O  O420  1  0.13723051  0.14417065  0.86112118  1
  O  O421  1  0.13853476  0.63909645  0.33020930  1
  O  O422  1  0.12870257  0.63057441  0.88060631  1
  O  O423  1  0.63431546  0.13135150  0.38403799  1
  O  O424  1  0.63315690  0.12321756  0.88813880  1
  O  O425  1  0.63363157  0.61781410  0.38521295  1
  O  O426  1  0.63376434  0.61788033  0.87483679  1
