# generated using pymatgen
data_V85Zn86O256
_symmetry_space_group_name_H-M   'P 1'
_cell_length_a   16.92156240
_cell_length_b   16.92082511
_cell_length_c   16.92193604
_cell_angle_alpha   90.02822609
_cell_angle_beta   89.92253969
_cell_angle_gamma   90.04473123
_symmetry_Int_Tables_number   1
_chemical_formula_structural   V85Zn86O256
_chemical_formula_sum   'V85 Zn86 O256'
_cell_volume   4845.19727194
_cell_formula_units_Z   1
loop_
 _symmetry_equiv_pos_site_id
 _symmetry_equiv_pos_as_xyz
  1  'x, y, z'
loop_
 _atom_site_type_symbol
 _atom_site_label
 _atom_site_symmetry_multiplicity
 _atom_site_fract_x
 _atom_site_fract_y
 _atom_site_fract_z
 _atom_site_occupancy
  V  V0  1  0.13000657  0.62477808  0.49907321  1
  V  V1  1  0.37425737  -0.00443814  0.39207426  1
  V  V2  1  0.87293684  0.37307880  0.00093103  1
  V  V3  1  0.25051279  0.25120550  0.00055953  1
  V  V4  1  0.63150625  0.62754202  0.49384777  1
  V  V5  1  0.12457079  0.87655474  0.25294174  1
  V  V6  1  0.62321554  0.50477303  0.10992312  1
  V  V7  1  0.49948329  0.62284630  0.11193208  1
  V  V8  1  0.12582235  0.50176812  0.12557442  1
  V  V9  1  -0.00458984  0.87660503  0.87462973  1
  V  V10  1  0.25389250  0.00504947  0.25333446  1
  V  V11  1  0.61984955  0.12004064  -0.00003788  1
  V  V12  1  0.00198431  0.24938064  0.25413724  1
  V  V13  1  0.50643526  0.48975914  0.48963591  1
  V  V14  1  0.61771914  -0.00878283  0.62275486  1
  V  V15  1  0.50022525  0.87908513  0.38570099  1
  V  V16  1  0.00164363  -0.00746989  0.50427875  1
  V  V17  1  0.13073311  0.13135023  0.50391194  1
  V  V18  1  0.12466569  0.88013195  0.74504615  1
  V  V19  1  0.37522740  0.25053034  0.12671637  1
  V  V20  1  -0.00595209  0.12512494  0.62135082  1
  V  V21  1  -0.00379377  0.62378089  0.12938889  1
  V  V22  1  0.62695202  0.49897953  0.62072272  1
  V  V23  1  0.25554815  0.75595108  -0.00155281  1
  V  V24  1  0.37579526  0.62647356  0.74469650  1
  V  V25  1  0.25045848  0.00160763  0.74770483  1
  V  V26  1  0.49673548  0.12264240  0.12682916  1
  V  V27  1  -0.00396363  0.48664253  0.49372345  1
  V  V28  1  0.87211236  0.87504686  0.00418588  1
  V  V29  1  0.24964431  0.37759412  0.12700687  1
  V  V30  1  0.87591092  0.74876190  0.13390121  1
  V  V31  1  0.36841124  0.75048788  0.60903774  1
  V  V32  1  0.13218396  0.75064294  0.38048958  1
  V  V33  1  0.87184595  0.63033794  0.74805893  1
  V  V34  1  0.74699963  0.12360924  0.87357348  1
  V  V35  1  0.26004913  0.12469822  0.87195843  1
  V  V36  1  0.49952010  0.75075625  0.25010109  1
  V  V37  1  0.74991587  0.49968167  0.74651260  1
  V  V38  1  0.12535042  0.24761725  0.87480067  1
  V  V39  1  0.00032471  0.50042144  0.00002407  1
  V  V40  1  0.74190509  0.87846285  0.13498616  1
  V  V41  1  -0.00392183  0.00443393  0.00583019  1
  V  V42  1  0.87447692  0.50052047  0.87343623  1
  V  V43  1  0.25025000  0.49927837  0.75225302  1
  V  V44  1  0.36802481  0.24635854  0.61766631  1
  V  V45  1  0.37363332  0.74769572  0.13098714  1
  V  V46  1  0.88061668  0.49489332  0.36284546  1
  V  V47  1  0.74705870  0.24789131  0.00190249  1
  V  V48  1  0.76447116  0.36606299  0.62057658  1
  V  V49  1  0.74827214  0.50991087  0.24803840  1
  V  V50  1  0.38430480  0.37989837  -0.00064334  1
  V  V51  1  0.11942106  0.00445924  0.13005130  1
  V  V52  1  0.76351220  0.24571171  0.49432137  1
  V  V53  1  0.12553748  0.37346208  0.75096004  1
  V  V54  1  0.49405862  -0.01464349  -0.00162468  1
  V  V55  1  0.86978513  0.00125597  0.37704055  1
  V  V56  1  0.62868615  0.75502543  0.36778461  1
  V  V57  1  0.12369398  0.50002060  0.62383617  1
  V  V58  1  0.12418134  0.75194032  0.87600868  1
  V  V59  1  0.12406022  0.62856581  -0.00055340  1
  V  V60  1  0.26236020  0.62918480  0.37500389  1
  V  V61  1  0.62470608  0.12169163  0.49434335  1
  V  V62  1  -0.00346296  0.75026497  0.74917041  1
  V  V63  1  0.62383341  0.25856001  0.37849401  1
  V  V64  1  0.25586122  0.87884124  0.12210097  1
  V  V65  1  0.00064186  0.37291743  0.87631523  1
  V  V66  1  0.24991363  0.87451393  0.61320495  1
  V  V67  1  0.49851995  0.62352787  0.62055134  1
  V  V68  1  0.12191757  0.12510736  0.00304944  1
  V  V69  1  0.49930664  0.12156939  0.62397146  1
  V  V70  1  0.49941806  0.25689745  0.25603621  1
  V  V71  1  0.00073963  0.74512772  0.25579327  1
  V  V72  1  0.74689976  0.37116490  0.12982038  1
  V  V73  1  0.49111788  0.24596136  0.74981794  1
  V  V74  1  0.75813018  0.87405257  0.61719922  1
  V  V75  1  0.38545440  0.49456288  0.36728233  1
  V  V76  1  0.74558117  0.73887181  0.00253998  1
  V  V77  1  0.37771262  -0.01831413  0.87452497  1
  V  V78  1  0.38518793  0.50189002  0.87549163  1
  V  V79  1  0.25729121  0.50936247  0.24767740  1
  V  V80  1  0.50000342  0.76841131  0.74969454  1
  V  V81  1  0.74122876  -0.00438762  0.74844505  1
  V  V82  1  -0.00854515  0.24800349  0.74625224  1
  V  V83  1  0.87146106  0.00046609  0.87465477  1
  V  V84  1  0.62296239  0.37165246  0.74644672  1
  Zn  Zn85  1  -0.00371240  0.87044629  0.38398339  1
  Zn  Zn86  1  0.87863962  0.75436879  0.61794371  1
  Zn  Zn87  1  0.37574227  0.36784552  0.49158047  1
  Zn  Zn88  1  0.25407590  0.13537117  0.38455116  1
  Zn  Zn89  1  0.25119682  0.62686934  0.87627282  1
  Zn  Zn90  1  0.24940234  0.36716085  0.61980144  1
  Zn  Zn91  1  0.50366474  0.37540613  0.87618628  1
  Zn  Zn92  1  0.86882741  0.12761592  0.74257223  1
  Zn  Zn93  1  0.61054482  0.75252162  0.87716459  1
  Zn  Zn94  1  0.87870819  0.12031606  0.23988403  1
  Zn  Zn95  1  0.73680003  0.01033437  0.26574804  1
  Zn  Zn96  1  0.88545639  0.23702116  0.12403510  1
  Zn  Zn97  1  0.12983088  0.26296751  0.38168422  1
  Zn  Zn98  1  0.62124615  0.38091794  0.25473346  1
  Zn  Zn99  1  0.37551912  0.12531488  0.25715218  1
  Zn  Zn100  1  0.73830929  0.62085637  0.87966644  1
  Zn  Zn101  1  -0.00091252  0.62637148  0.62025176  1
  Zn  Zn102  1  0.76025173  0.63063201  0.36838061  1
  Zn  Zn103  1  0.62111158  0.24835651  0.87242878  1
  Zn  Zn104  1  0.76174074  0.75573115  0.49099487  1
  Zn  Zn105  1  0.11553805  0.38167080  0.26429328  1
  Zn  Zn106  1  0.61602983  -0.00742920  0.13770330  1
  Zn  Zn107  1  0.18273163  0.18902569  0.19329177  1
  Zn  Zn108  1  0.18143524  0.18195757  0.68620410  1
  Zn  Zn109  1  0.18661368  0.68861916  0.18916615  1
  Zn  Zn110  1  0.18851559  0.68799110  0.68697601  1
  Zn  Zn111  1  0.68572608  0.18304333  0.19286349  1
  Zn  Zn112  1  0.68410138  0.18588474  0.68326069  1
  Zn  Zn113  1  0.68218858  0.68817872  0.18512471  1
  Zn  Zn114  1  0.68460263  0.68846196  0.68776845  1
  Zn  Zn115  1  0.30781154  0.31384662  0.31200013  1
  Zn  Zn116  1  0.31435950  0.31334603  0.81047545  1
  Zn  Zn117  1  0.31416710  0.81699433  0.31275199  1
  Zn  Zn118  1  0.31144521  0.80999617  0.80556064  1
  Zn  Zn119  1  0.81801373  0.31235144  0.31386039  1
  Zn  Zn120  1  0.80906457  0.31197790  0.81339412  1
  Zn  Zn121  1  0.81786315  0.82012874  0.31626807  1
  Zn  Zn122  1  0.77397165  0.82732618  0.83015522  1
  Zn  Zn123  1  0.19785238  0.43509504  0.43904401  1
  Zn  Zn124  1  0.19090744  0.43830096  0.93847463  1
  Zn  Zn125  1  0.18023990  0.94592076  0.43751632  1
  Zn  Zn126  1  0.18628120  0.93853270  0.93624660  1
  Zn  Zn127  1  0.69811997  0.43477390  0.43533763  1
  Zn  Zn128  1  0.68769948  0.43597043  0.93404076  1
  Zn  Zn129  1  0.68313326  0.93757994  0.43821642  1
  Zn  Zn130  1  0.67958957  0.93238124  0.94108803  1
  Zn  Zn131  1  0.31267026  0.06115531  0.05924859  1
  Zn  Zn132  1  0.31343393  0.06316597  0.56892665  1
  Zn  Zn133  1  0.31630737  0.56742739  0.05947694  1
  Zn  Zn134  1  0.30763962  0.53979979  0.55255057  1
  Zn  Zn135  1  0.80773081  0.06453834  0.07148825  1
  Zn  Zn136  1  0.81375727  0.06211046  0.55852887  1
  Zn  Zn137  1  0.81610062  0.55904845  0.06878295  1
  Zn  Zn138  1  0.81551169  0.56342254  0.56048431  1
  Zn  Zn139  1  0.43942062  0.44103140  0.18542358  1
  Zn  Zn140  1  0.43903488  0.43485085  0.68297888  1
  Zn  Zn141  1  0.43760951  0.93459888  0.19308194  1
  Zn  Zn142  1  0.42807096  0.94024119  0.68156984  1
  Zn  Zn143  1  0.93609698  0.42895370  0.18814957  1
  Zn  Zn144  1  0.94006261  0.43858214  0.68710726  1
  Zn  Zn145  1  0.93653147  0.93563270  0.19453157  1
  Zn  Zn146  1  0.93395248  0.94268192  0.68732622  1
  Zn  Zn147  1  0.05762927  0.06960594  0.32047044  1
  Zn  Zn148  1  0.06282155  0.06384725  0.81309701  1
  Zn  Zn149  1  0.06668685  0.56032050  0.31551197  1
  Zn  Zn150  1  0.06106662  0.56509825  0.81291318  1
  Zn  Zn151  1  0.56044693  0.06429654  0.31437177  1
  Zn  Zn152  1  0.55766862  0.05898834  0.80932689  1
  Zn  Zn153  1  0.56459539  0.57042257  0.30373036  1
  Zn  Zn154  1  0.56452515  0.56891371  0.81189067  1
  Zn  Zn155  1  0.44020744  0.18342495  0.43857667  1
  Zn  Zn156  1  0.43801751  0.18768998  0.93816141  1
  Zn  Zn157  1  0.44372515  0.68361260  0.43540971  1
  Zn  Zn158  1  0.43426906  0.69326871  0.93355540  1
  Zn  Zn159  1  0.94367379  0.18398230  0.42873473  1
  Zn  Zn160  1  0.93512835  0.18662414  0.93994772  1
  Zn  Zn161  1  0.93827087  0.67885704  0.43839058  1
  Zn  Zn162  1  0.92988537  0.68878063  0.93707736  1
  Zn  Zn163  1  0.06260437  0.31200739  0.06889944  1
  Zn  Zn164  1  0.06142097  0.31060144  0.56579314  1
  Zn  Zn165  1  0.06341015  0.81606373  0.06554937  1
  Zn  Zn166  1  0.06661847  0.80982151  0.56425390  1
  Zn  Zn167  1  0.56429501  0.31006219  0.06523899  1
  Zn  Zn168  1  0.56366803  0.30916307  0.56351210  1
  Zn  Zn169  1  0.56307025  0.80825261  0.06191581  1
  Zn  Zn170  1  0.56319757  0.80869959  0.56169811  1
  O  O171  1  0.13347611  0.11420990  0.11602006  1
  O  O172  1  0.11116566  0.12544593  0.61557863  1
  O  O173  1  0.11524960  0.62268796  0.11916868  1
  O  O174  1  0.12493881  0.61932162  0.61766713  1
  O  O175  1  0.60990245  0.12321533  0.11634427  1
  O  O176  1  0.61816939  0.11608628  0.61707796  1
  O  O177  1  0.61132068  0.61949621  0.12420329  1
  O  O178  1  0.62134830  0.61806670  0.61612034  1
  O  O179  1  0.37496788  0.39070526  0.37343574  1
  O  O180  1  0.37499091  0.38328094  0.88237761  1
  O  O181  1  0.38284687  0.88611237  0.37433995  1
  O  O182  1  0.36883747  0.88356961  0.87579163  1
  O  O183  1  0.86416485  0.39617802  0.38148334  1
  O  O184  1  0.87863330  0.38120199  0.88076389  1
  O  O185  1  0.88345778  0.88974827  0.37554143  1
  O  O186  1  0.87429907  0.88044758  0.88477175  1
  O  O187  1  0.26037488  -0.00013567  0.36978783  1
  O  O188  1  0.25913318  0.00461853  0.87134883  1
  O  O189  1  0.26284875  0.51016833  0.36378411  1
  O  O190  1  0.25557542  0.50223356  0.86394828  1
  O  O191  1  0.76382757  -0.00504304  0.38094372  1
  O  O192  1  0.74995903  0.00574478  0.86786621  1
  O  O193  1  0.75607905  0.50405687  0.36332656  1
  O  O194  1  0.75735516  0.50131321  0.86668862  1
  O  O195  1  0.24855041  0.49861247  0.12853407  1
  O  O196  1  0.23725192  0.50769693  0.64146685  1
  O  O197  1  0.24416807  0.99462265  0.13025322  1
  O  O198  1  0.25978364  0.99026733  0.64025264  1
  O  O199  1  0.74327348  0.49339923  0.12977697  1
  O  O200  1  0.74674908  0.48758863  0.62608540  1
  O  O201  1  0.74281240  0.98217667  0.11721034  1
  O  O202  1  0.74353328  0.99301264  0.62898660  1
  O  O203  1  0.00177414  0.36322639  0.24851460  1
  O  O204  1  0.00515483  0.36742028  0.75568936  1
  O  O205  1  0.00912675  0.86012221  0.24930244  1
  O  O206  1  0.00457708  0.87129029  0.75343033  1
  O  O207  1  0.50276306  0.36091738  0.23945582  1
  O  O208  1  0.50772920  0.36645091  0.74871111  1
  O  O209  1  0.49335302  0.85950445  0.25971595  1
  O  O210  1  0.49376084  0.86666504  0.74311011  1
  O  O211  1  0.49647217  0.13498703  0.24126115  1
  O  O212  1  0.50651348  0.13511240  0.73802083  1
  O  O213  1  0.50087914  0.64268469  0.23787933  1
  O  O214  1  0.48557001  0.62183299  0.73864867  1
  O  O215  1  1.00166848  0.13995597  0.25073833  1
  O  O216  1  0.99990558  0.13165447  0.74369240  1
  O  O217  1  1.00935847  0.63585045  0.24295449  1
  O  O218  1  0.99363242  0.63477764  0.74942471  1
  O  O219  1  0.36844032  0.25799608  0.00527637  1
  O  O220  1  0.37849773  0.25082038  0.51267870  1
  O  O221  1  0.36119739  0.74806357  0.00878586  1
  O  O222  1  0.37588379  0.74165037  0.51092510  1
  O  O223  1  0.86645346  0.25633206  0.00168518  1
  O  O224  1  0.86208640  0.24184849  0.49252951  1
  O  O225  1  0.87514481  0.75630725  0.01695072  1
  O  O226  1  0.87287010  0.73840481  0.50602373  1
  O  O227  1  0.12116150  0.23623085  0.50356325  1
  O  O228  1  0.13086224  0.24386360  0.99681135  1
  O  O229  1  0.12289895  0.74125790  0.48871046  1
  O  O230  1  0.13107014  0.74837161  0.99618739  1
  O  O231  1  0.63021224  0.24404088  0.49455749  1
  O  O232  1  0.62699513  0.23719426  0.99668161  1
  O  O233  1  0.62877102  0.74329009  0.48812897  1
  O  O234  1  0.64323180  0.74965781  1.00157799  1
  O  O235  1  0.49381174  0.24145875  0.12933003  1
  O  O236  1  0.49257212  0.24314252  0.63113451  1
  O  O237  1  0.49239143  0.74646219  0.12873407  1
  O  O238  1  0.48670223  0.74484001  0.62836635  1
  O  O239  1  1.00017982  0.25442080  0.13967059  1
  O  O240  1  1.00117969  0.24259118  0.63691233  1
  O  O241  1  0.99564054  0.74356382  0.13189699  1
  O  O242  1  1.00069091  0.74883502  0.63817446  1
  O  O243  1  0.00694937  0.25118943  0.36281993  1
  O  O244  1  0.00637625  0.25423456  0.87154267  1
  O  O245  1  0.00905469  0.74737895  0.36911269  1
  O  O246  1  0.00020826  0.75698084  0.86683006  1
  O  O247  1  0.50678008  0.24742430  0.36675280  1
  O  O248  1  0.50036669  0.25143569  0.86507485  1
  O  O249  1  0.50479256  0.75648348  0.36845940  1
  O  O250  1  0.49256601  0.75337148  0.85552065  1
  O  O251  1  0.23394534  0.11656569  0.50657420  1
  O  O252  1  0.24120690  0.13002518  0.99318866  1
  O  O253  1  0.23932300  0.61454632  0.48907263  1
  O  O254  1  0.24140322  0.63592425  0.99940404  1
  O  O255  1  0.74016582  0.13964146  0.50931691  1
  O  O256  1  0.73800528  0.12650755  0.99489453  1
  O  O257  1  0.73887507  0.62432371  0.49931068  1
  O  O258  1  0.75595337  0.63561841  1.00840008  1
  O  O259  1  0.25833764  0.37137036  0.00839628  1
  O  O260  1  0.27332283  0.41796354  0.51863230  1
  O  O261  1  0.24116924  0.86770315  0.01001805  1
  O  O262  1  0.23715031  0.88262893  0.51483857  1
  O  O263  1  0.75287393  0.36682506  0.00379687  1
  O  O264  1  0.74826741  0.36192030  0.51290500  1
  O  O265  1  0.76145671  0.86342350  0.01091391  1
  O  O266  1  0.74655722  0.87477842  0.51391870  1
  O  O267  1  0.13478678  0.50017627  0.24137079  1
  O  O268  1  0.12921949  0.49604741  0.74627800  1
  O  O269  1  0.12935315  0.99816444  0.24586468  1
  O  O270  1  0.13409751  0.98912594  0.75931239  1
  O  O271  1  0.63257465  0.49901500  0.23989123  1
  O  O272  1  0.63102638  0.49292611  0.74184049  1
  O  O273  1  0.62417450  1.00061409  0.25024987  1
  O  O274  1  0.63163886  1.00497604  0.73838864  1
  O  O275  1  0.36633156  0.00206196  0.25652768  1
  O  O276  1  0.36575783  -0.00292292  0.76491266  1
  O  O277  1  0.36966088  0.50239858  0.25331227  1
  O  O278  1  0.36718487  0.50414519  0.75177316  1
  O  O279  1  0.87670358  -0.00062728  0.26467142  1
  O  O280  1  0.86579084  0.00536627  0.75951738  1
  O  O281  1  0.86903414  0.49682287  0.25630944  1
  O  O282  1  0.87017740  0.50485963  0.75458075  1
  O  O283  1  0.12987546  0.37955655  0.37693782  1
  O  O284  1  0.12142809  0.36886737  0.87157822  1
  O  O285  1  0.12337722  0.86674688  0.37073600  1
  O  O286  1  0.11587257  0.87038447  0.86848982  1
  O  O287  1  0.62757434  0.36322539  0.37530914  1
  O  O288  1  0.62479408  0.37323448  0.85981855  1
  O  O289  1  0.61068212  0.86957474  0.37794738  1
  O  O290  1  0.66416338  0.85232497  0.86713683  1
  O  O291  1  0.38388160  0.12988072  0.12284869  1
  O  O292  1  0.38381815  0.13606659  0.62336603  1
  O  O293  1  0.38624624  0.63354961  0.12314269  1
  O  O294  1  0.37408793  0.63158910  0.62750051  1
  O  O295  1  0.88585397  0.12248258  0.11991768  1
  O  O296  1  0.88718968  0.12276161  0.62629933  1
  O  O297  1  0.88889504  0.63194426  0.12456724  1
  O  O298  1  0.87863737  0.62229313  0.63860108  1
  O  O299  1  0.25493042  0.25942075  0.12244956  1
  O  O300  1  0.26448031  0.24720667  0.63350797  1
  O  O301  1  0.25462222  0.75660112  0.12084261  1
  O  O302  1  0.26111403  0.75667999  0.62796246  1
  O  O303  1  0.74530641  0.25777092  0.11683084  1
  O  O304  1  0.74808628  0.25975430  0.61660644  1
  O  O305  1  0.75774718  0.75550334  0.12150460  1
  O  O306  1  0.74709750  0.76805961  0.62917012  1
  O  O307  1  0.24656164  0.24785720  0.37463667  1
  O  O308  1  0.24607166  0.24353425  0.87867954  1
  O  O309  1  0.24375662  0.74290302  0.36776903  1
  O  O310  1  0.24508170  0.75141182  0.88271954  1
  O  O311  1  0.74344179  0.25464071  0.38863828  1
  O  O312  1  0.74558663  0.24066729  0.88194857  1
  O  O313  1  0.74377265  0.75074342  0.37160446  1
  O  O314  1  0.77652098  0.73584542  0.90034435  1
  O  O315  1  0.01433106  0.11991335  -0.00693135  1
  O  O316  1  0.00595932  0.11999063  0.50694499  1
  O  O317  1  0.00406040  0.62110480  0.00637969  1
  O  O318  1  0.01647767  0.61353538  0.49970543  1
  O  O319  1  0.50430930  0.11753733  0.00490918  1
  O  O320  1  0.51101079  0.13012731  0.51418085  1
  O  O321  1  0.49682817  0.63590808  0.01283229  1
  O  O322  1  0.51553917  0.61919462  0.50245810  1
  O  O323  1  0.49996915  0.38739421  0.50227901  1
  O  O324  1  0.48803511  0.37005555  0.99871439  1
  O  O325  1  0.49744737  0.86711149  0.48433434  1
  O  O326  1  0.50473388  0.88567355  1.00137717  1
  O  O327  1  1.00286357  0.38869079  0.50558143  1
  O  O328  1  0.99499469  0.38015614  0.99593140  1
  O  O329  1  1.00793620  0.88854797  0.50518480  1
  O  O330  1  0.98903949  0.87968557  0.99764395  1
  O  O331  1  0.49722908  0.50727653  0.37541006  1
  O  O332  1  0.48805602  0.49701918  0.86616780  1
  O  O333  1  0.48788551  0.98781913  0.37349080  1
  O  O334  1  0.48490182  1.00176857  0.87969207  1
  O  O335  1  0.99269923  0.49957225  0.38216927  1
  O  O336  1  0.99545857  0.49253730  0.87950219  1
  O  O337  1  0.99726841  0.99571578  0.38856401  1
  O  O338  1  0.99271754  0.99521597  0.88291840  1
  O  O339  1  0.01338177  -0.01051359  0.12111644  1
  O  O340  1  -0.00436838  0.00741461  0.61413925  1
  O  O341  1  0.00299947  0.50689516  0.12142164  1
  O  O342  1  0.01088140  0.50177545  0.61966505  1
  O  O343  1  0.49518827  0.00478599  0.11727322  1
  O  O344  1  0.50476622  0.00805406  0.63024969  1
  O  O345  1  0.50582697  0.51474775  0.12519756  1
  O  O346  1  0.50657589  0.50486444  0.61414954  1
  O  O347  1  0.25325387  0.38826007  0.23586036  1
  O  O348  1  0.24422865  0.38348359  0.74766059  1
  O  O349  1  0.24417776  0.88684011  0.24404728  1
  O  O350  1  0.24135513  0.88133582  0.74579442  1
  O  O351  1  0.74803040  0.38233432  0.24110138  1
  O  O352  1  0.74385698  0.37587433  0.73934851  1
  O  O353  1  0.75517497  0.87801111  0.23586079  1
  O  O354  1  0.75381639  0.89062424  0.73602450  1
  O  O355  1  0.25093996  0.11309215  0.25069921  1
  O  O356  1  0.24073548  0.11291144  0.75931224  1
  O  O357  1  0.24644495  0.61625437  0.25633848  1
  O  O358  1  0.26015724  0.62058639  0.75288548  1
  O  O359  1  0.76137371  0.11737960  0.23621371  1
  O  O360  1  0.74843413  0.11930254  0.75703383  1
  O  O361  1  0.74954749  0.61364579  0.24390163  1
  O  O362  1  0.75699772  0.61939057  0.74907976  1
  O  O363  1  0.37466032  0.10983549  0.37719409  1
  O  O364  1  0.36202974  0.12239935  0.87869791  1
  O  O365  1  0.36610796  0.62238964  0.37495585  1
  O  O366  1  0.37314313  0.61840817  0.86570098  1
  O  O367  1  0.88286975  0.10592240  0.37069947  1
  O  O368  1  0.85954604  0.11879503  0.87919043  1
  O  O369  1  0.87319236  0.60380528  0.37805145  1
  O  O370  1  0.87749775  0.61448460  0.86379181  1
  O  O371  1  0.13716088  0.38623549  0.12030486  1
  O  O372  1  0.12903257  0.38262541  0.63202776  1
  O  O373  1  0.13515495  0.88249397  0.13217467  1
  O  O374  1  0.13311071  0.86737511  0.63937739  1
  O  O375  1  0.63355680  0.38249935  0.12463915  1
  O  O376  1  0.63079079  0.37898238  0.63277102  1
  O  O377  1  0.63878317  0.87048301  0.12376635  1
  O  O378  1  0.62935686  0.88729446  0.61809950  1
  O  O379  1  0.11719808  0.25857601  0.25125761  1
  O  O380  1  0.11689206  0.25418005  0.75662957  1
  O  O381  1  0.12064289  0.75485133  0.25960050  1
  O  O382  1  0.11765239  0.75535642  0.75767728  1
  O  O383  1  0.61784178  0.25074564  0.26036273  1
  O  O384  1  0.61599407  0.25693934  0.74786830  1
  O  O385  1  0.61817356  0.74944768  0.26044656  1
  O  O386  1  0.60020747  0.74763303  0.73880827  1
  O  O387  1  0.38120725  0.24853433  0.24326600  1
  O  O388  1  0.38585690  0.25169444  0.74250686  1
  O  O389  1  0.37711463  0.75254485  0.23695035  1
  O  O390  1  0.38106881  0.74208932  0.74026885  1
  O  O391  1  0.88581950  0.24939966  0.24778902  1
  O  O392  1  0.88754967  0.24631054  0.76059571  1
  O  O393  1  0.88447347  0.75358209  0.24167405  1
  O  O394  1  0.88190947  0.74257545  0.74778670  1
  O  O395  1  0.39603243  0.51101136  0.48380703  1
  O  O396  1  0.36844833  0.49290697  0.98734214  1
  O  O397  1  0.37072119  0.99802268  0.49069376  1
  O  O398  1  0.37987078  1.00152727  0.98533963  1
  O  O399  1  0.89317788  0.50342585  0.49810174  1
  O  O400  1  0.88095749  0.49450725  0.99431042  1
  O  O401  1  0.88949832  1.00519453  0.49176654  1
  O  O402  1  0.87623204  0.99132795  0.99599725  1
  O  O403  1  0.12041745  0.00703059  0.00772563  1
  O  O404  1  0.10900309  0.01198972  0.50012013  1
  O  O405  1  0.12012784  0.50729676  0.00447145  1
  O  O406  1  0.11849387  0.50468222  0.50897480  1
  O  O407  1  0.61461706  0.00703430  0.00127200  1
  O  O408  1  0.62862710  0.01232381  0.50763241  1
  O  O409  1  0.62884437  0.49775556  0.01026246  1
  O  O410  1  0.62342008  0.50474197  0.49928228  1
  O  O411  1  0.36909126  0.37399141  0.11660841  1
  O  O412  1  0.37678263  0.35681064  0.62509417  1
  O  O413  1  0.36175758  0.86907474  0.12730714  1
  O  O414  1  0.36542451  0.85997535  0.62440212  1
  O  O415  1  0.86080783  0.37557042  0.11549914  1
  O  O416  1  0.86260300  0.37454252  0.63015851  1
  O  O417  1  0.86910686  0.86835795  0.12124038  1
  O  O418  1  0.86155621  0.87660396  0.62485523  1
  O  O419  1  0.12846733  0.12606836  0.39322212  1
  O  O420  1  0.13431073  0.12873801  0.88358718  1
  O  O421  1  0.13623464  0.63092372  0.38016132  1
  O  O422  1  0.12574017  0.63339949  0.88174245  1
  O  O423  1  0.61793451  0.13450426  0.38949775  1
  O  O424  1  0.63200966  0.12233772  0.88107195  1
  O  O425  1  0.62997688  0.63554303  0.37870762  1
  O  O426  1  0.62748539  0.63893841  0.86845744  1
