# generated using pymatgen
data_V85Zn86O256
_symmetry_space_group_name_H-M   'P 1'
_cell_length_a   16.93053286
_cell_length_b   16.93167207
_cell_length_c   16.93025628
_cell_angle_alpha   90.10680056
_cell_angle_beta   89.94843721
_cell_angle_gamma   89.95761393
_symmetry_Int_Tables_number   1
_chemical_formula_structural   V85Zn86O256
_chemical_formula_sum   'V85 Zn86 O256'
_cell_volume   4853.25329513
_cell_formula_units_Z   1
loop_
 _symmetry_equiv_pos_site_id
 _symmetry_equiv_pos_as_xyz
  1  'x, y, z'
loop_
 _atom_site_type_symbol
 _atom_site_label
 _atom_site_symmetry_multiplicity
 _atom_site_fract_x
 _atom_site_fract_y
 _atom_site_fract_z
 _atom_site_occupancy
  V  V0  1  0.50061273  0.00579456  0.50179735  1
  V  V1  1  0.37580148  0.87477551  0.49344528  1
  V  V2  1  0.48308391  0.37899266  0.38640991  1
  V  V3  1  0.74839312  -0.00077812  0.75365513  1
  V  V4  1  0.63295318  0.62057544  0.49212923  1
  V  V5  1  0.74854838  0.74688628  0.48863780  1
  V  V6  1  0.25006075  0.37020510  0.60732627  1
  V  V7  1  0.87722578  0.37443869  0.49502375  1
  V  V8  1  0.50012143  0.87550049  0.87606813  1
  V  V9  1  0.74961368  0.61772099  0.87418048  1
  V  V10  1  0.25044838  0.87139535  0.61938843  1
  V  V11  1  0.62128905  0.37735298  0.25090202  1
  V  V12  1  0.13123856  0.12935320  0.00069230  1
  V  V13  1  0.12540471  0.00094932  0.12492487  1
  V  V14  1  0.75114811  0.87278866  0.62644026  1
  V  V15  1  0.62140553  0.00997704  0.12248487  1
  V  V16  1  0.74951084  0.12515440  0.37651577  1
  V  V17  1  0.88078160  0.74436542  0.62439499  1
  V  V18  1  0.50406548  0.74659113  0.25004040  1
  V  V19  1  0.87507457  0.61937092  0.74610398  1
  V  V20  1  0.12484017  0.25745882  0.37902282  1
  V  V21  1  0.35478978  0.24902973  0.11890558  1
  V  V22  1  0.00244787  0.12600555  0.62492206  1
  V  V23  1  0.25305261  0.12837547  0.37501491  1
  V  V24  1  -0.00151002  0.00202427  -0.00211664  1
  V  V25  1  0.13104947  0.12839833  0.49947610  1
  V  V26  1  0.25684307  0.00200870  0.74794214  1
  V  V27  1  0.75403310  0.74643336  0.00731414  1
  V  V28  1  0.87068378  -0.00045102  0.37309460  1
  V  V29  1  0.00004918  0.24960136  0.75002386  1
  V  V30  1  0.50321058  0.74538074  0.74716774  1
  V  V31  1  0.75188280  0.88064531  0.12703863  1
  V  V32  1  -0.00425243  0.75052489  0.24588462  1
  V  V33  1  0.74811117  0.50303633  0.25475749  1
  V  V34  1  0.12584676  0.37584945  0.74744078  1
  V  V35  1  0.63306424  0.50673850  0.63062219  1
  V  V36  1  0.62269211  0.24759741  0.87664257  1
  V  V37  1  0.74637624  0.24642583  0.00219769  1
  V  V38  1  0.12647108  0.87108827  0.75717183  1
  V  V39  1  0.87799767  0.50237394  0.37281829  1
  V  V40  1  0.13538678  0.37912077  0.25019487  1
  V  V41  1  0.87587132  0.87362158  0.50034120  1
  V  V42  1  0.37299373  0.87261878  -0.00206419  1
  V  V43  1  0.62771402  0.74724638  0.87670231  1
  V  V44  1  0.62168692  0.12755024  0.50334444  1
  V  V45  1  0.49592799  0.37129476  0.87098766  1
  V  V46  1  0.49452840  0.12851535  0.64749109  1
  V  V47  1  0.37991681  0.75036556  0.62286559  1
  V  V48  1  0.74764582  0.25348732  0.50396308  1
  V  V49  1  0.25373225  -0.00158508  0.24939213  1
  V  V50  1  -0.00605726  0.62354546  0.11980300  1
  V  V51  1  0.25678322  0.51532686  0.25397357  1
  V  V52  1  0.25079205  0.86996417  0.12051803  1
  V  V53  1  -0.00153663  0.49838955  0.49991343  1
  V  V54  1  0.87491734  0.37883928  0.00271129  1
  V  V55  1  0.11864661  0.63116628  0.49384303  1
  V  V56  1  0.00341021  0.74524604  0.75515264  1
  V  V57  1  0.87745090  0.49868446  0.87256782  1
  V  V58  1  0.86864098  0.63012648  0.25055805  1
  V  V59  1  0.11732756  0.50766033  0.62672054  1
  V  V60  1  0.61822833  0.25275302  0.37679396  1
  V  V61  1  -0.00147513  0.26242532  0.25492501  1
  V  V62  1  0.12486121  0.87517263  0.25270558  1
  V  V63  1  0.12691702  0.49597541  0.11498754  1
  V  V64  1  0.45865882  0.56606935  0.56881431  1
  V  V65  1  0.62755295  0.87222558  0.75054878  1
  V  V66  1  0.00223086  -0.00036742  0.49968889  1
  V  V67  1  -0.00167672  0.13219725  0.12630888  1
  V  V68  1  0.37831871  0.62253835  0.75170274  1
  V  V69  1  0.51058459  0.87554289  0.37615366  1
  V  V70  1  0.25464961  0.12620388  0.87130496  1
  V  V71  1  0.87232203  0.12465994  0.25198089  1
  V  V72  1  0.63232044  0.37534433  0.75101622  1
  V  V73  1  0.37654103  0.74338790  0.12435795  1
  V  V74  1  0.12342514  0.64059880  -0.00427138  1
  V  V75  1  0.49860600  0.50080971  0.00410830  1
  V  V76  1  0.87631764  0.87072102  0.00285332  1
  V  V77  1  0.37089616  0.49916306  0.87792841  1
  V  V78  1  0.00124808  0.37780384  0.88497811  1
  V  V79  1  0.24632028  0.63911740  0.87737597  1
  V  V80  1  0.87417559  0.12459583  0.75081469  1
  V  V81  1  0.49876351  0.24575297  0.23720030  1
  V  V82  1  0.37641064  0.25179284  0.62500352  1
  V  V83  1  0.12937279  0.25212772  0.87930152  1
  V  V84  1  0.63135343  0.87814787  0.25123756  1
  Zn  Zn85  1  0.62344770  0.62335785  0.00402026  1
  Zn  Zn86  1  0.87435821  0.25304902  0.62549238  1
  Zn  Zn87  1  0.38290543  0.12090498  0.24290267  1
  Zn  Zn88  1  0.35913372  0.37472355  0.00487121  1
  Zn  Zn89  1  0.24764847  0.50091101  0.75042758  1
  Zn  Zn90  1  0.62416963  0.00202125  0.62819820  1
  Zn  Zn91  1  0.00455090  0.87042770  0.87869110  1
  Zn  Zn92  1  0.74943515  0.37627418  0.12736484  1
  Zn  Zn93  1  0.37300408  0.52026318  0.38626512  1
  Zn  Zn94  1  0.75349905  0.37904151  0.62894996  1
  Zn  Zn95  1  0.28714013  0.70505751  0.45512104  1
  Zn  Zn96  1  0.12841502  -0.00059163  0.62439691  1
  Zn  Zn97  1  0.49692808  0.00902100  0.01250978  1
  Zn  Zn98  1  0.87288362  0.25391736  0.12656416  1
  Zn  Zn99  1  0.49815457  0.62139033  0.13202064  1
  Zn  Zn100  1  0.37929124  0.00469299  0.37261354  1
  Zn  Zn101  1  0.37749986  0.00618578  0.87641379  1
  Zn  Zn102  1  0.13139551  0.74438831  0.36855704  1
  Zn  Zn103  1  0.62392080  0.50324496  0.12691112  1
  Zn  Zn104  1  0.75122319  0.12345223  0.88188681  1
  Zn  Zn105  1  0.87558493  -0.00156133  0.87574003  1
  Zn  Zn106  1  -0.00025344  0.87176628  0.37489846  1
  Zn  Zn107  1  0.18333785  0.18383505  0.19569581  1
  Zn  Zn108  1  0.19148700  0.19031432  0.68722893  1
  Zn  Zn109  1  0.18144326  0.68992190  0.17878370  1
  Zn  Zn110  1  0.19031498  0.68784681  0.68482472  1
  Zn  Zn111  1  0.68966211  0.19086173  0.18896057  1
  Zn  Zn112  1  0.68345641  0.18950673  0.69112801  1
  Zn  Zn113  1  0.68399492  0.68882012  0.18633912  1
  Zn  Zn114  1  0.69261646  0.68409082  0.68557874  1
  Zn  Zn115  1  0.31248997  0.31079258  0.30918537  1
  Zn  Zn116  1  0.31157444  0.31034274  0.80884998  1
  Zn  Zn117  1  0.31373653  0.70093997  0.30077675  1
  Zn  Zn118  1  0.31385238  0.81390297  0.80842137  1
  Zn  Zn119  1  0.80941227  0.31433442  0.31613895  1
  Zn  Zn120  1  0.81083066  0.31123815  0.81463960  1
  Zn  Zn121  1  0.81339861  0.81384200  0.31031132  1
  Zn  Zn122  1  0.81705502  0.80883626  0.81752862  1
  Zn  Zn123  1  0.18563380  0.44472038  0.43137462  1
  Zn  Zn124  1  0.18626897  0.44683129  0.93274852  1
  Zn  Zn125  1  0.19067931  0.93604300  0.43433662  1
  Zn  Zn126  1  0.18892244  0.93864909  0.93707699  1
  Zn  Zn127  1  0.68565636  0.43986805  0.43643331  1
  Zn  Zn128  1  0.68730429  0.43618504  0.93939935  1
  Zn  Zn129  1  0.68868365  0.93896613  0.44108280  1
  Zn  Zn130  1  0.68698687  0.93835272  0.94050728  1
  Zn  Zn131  1  0.31547828  0.06283118  0.06187619  1
  Zn  Zn132  1  0.31599404  0.06536651  0.56382889  1
  Zn  Zn133  1  0.30557522  0.56177003  0.06103050  1
  Zn  Zn134  1  0.29431618  0.55838550  0.56753793  1
  Zn  Zn135  1  0.81111850  0.06151010  0.06536053  1
  Zn  Zn136  1  0.81326583  0.06285241  0.56456818  1
  Zn  Zn137  1  0.81115612  0.55818347  0.06441492  1
  Zn  Zn138  1  0.81070003  0.56132680  0.56288528  1
  Zn  Zn139  1  0.43321747  0.43105554  0.18759919  1
  Zn  Zn140  1  0.43353083  0.42748603  0.69356448  1
  Zn  Zn141  1  0.43952872  0.93326976  0.18817552  1
  Zn  Zn142  1  0.43961744  0.93720369  0.68844039  1
  Zn  Zn143  1  0.94142059  0.44061213  0.18479720  1
  Zn  Zn144  1  0.93735584  0.43609088  0.68696346  1
  Zn  Zn145  1  0.93611112  0.94051452  0.18537994  1
  Zn  Zn146  1  0.93921574  0.93616443  0.68781447  1
  Zn  Zn147  1  0.06057280  0.06464244  0.31440967  1
  Zn  Zn148  1  0.06769836  0.05967618  0.81185210  1
  Zn  Zn149  1  0.05813633  0.56033615  0.31037985  1
  Zn  Zn150  1  0.05823903  0.56397890  0.81485890  1
  Zn  Zn151  1  0.56687679  0.06117682  0.30992693  1
  Zn  Zn152  1  0.54294153  0.08254258  0.84873647  1
  Zn  Zn153  1  0.55720841  0.55899577  0.31705786  1
  Zn  Zn154  1  0.56126142  0.55826942  0.81375419  1
  Zn  Zn155  1  0.43200745  0.19439533  0.43989819  1
  Zn  Zn156  1  0.43703731  0.19075091  0.94631132  1
  Zn  Zn157  1  0.45342715  0.69263964  0.43152656  1
  Zn  Zn158  1  0.43662686  0.68844916  0.93860536  1
  Zn  Zn159  1  0.94023604  0.18935105  0.43733201  1
  Zn  Zn160  1  0.93762266  0.19150586  0.93781606  1
  Zn  Zn161  1  0.94115824  0.68503620  0.43316342  1
  Zn  Zn162  1  0.93763364  0.68685222  0.93742614  1
  Zn  Zn163  1  0.18044193  0.31696602  0.06065731  1
  Zn  Zn164  1  0.06083139  0.31441921  0.56106679  1
  Zn  Zn165  1  0.05897937  0.81227378  0.06752092  1
  Zn  Zn166  1  0.06081706  0.81346045  0.56803984  1
  Zn  Zn167  1  0.56131985  0.31880148  0.05969863  1
  Zn  Zn168  1  0.55823578  0.31393616  0.56807146  1
  Zn  Zn169  1  0.56439644  0.81460804  0.06275493  1
  Zn  Zn170  1  0.56525302  0.80795910  0.56197499  1
  O  O171  1  0.11789424  0.12219042  0.11913040  1
  O  O172  1  0.12176938  0.12407085  0.61570853  1
  O  O173  1  0.11767916  0.62033677  0.11241160  1
  O  O174  1  0.12579085  0.61229058  0.62012818  1
  O  O175  1  0.63395135  0.10825425  0.13361860  1
  O  O176  1  0.61053478  0.12726627  0.62251960  1
  O  O177  1  0.61784588  0.62179676  0.12205305  1
  O  O178  1  0.62494698  0.61501550  0.62245185  1
  O  O179  1  0.38131208  0.37238851  0.37740781  1
  O  O180  1  0.37909842  0.38173916  0.87311477  1
  O  O181  1  0.38769238  0.88124005  0.39077837  1
  O  O182  1  0.38143297  0.87139164  0.88232004  1
  O  O183  1  0.87125982  0.38255334  0.38751150  1
  O  O184  1  0.88045799  0.38186952  0.87693232  1
  O  O185  1  0.87747379  0.88395000  0.38069779  1
  O  O186  1  0.87900751  0.87795943  0.88869880  1
  O  O187  1  0.25243517  0.00867024  0.36662867  1
  O  O188  1  0.24986046  0.00834697  0.86659006  1
  O  O189  1  0.25545528  0.50167264  0.35975210  1
  O  O190  1  0.25963887  0.51139760  0.87023738  1
  O  O191  1  0.76329221  0.00783299  0.38374385  1
  O  O192  1  0.75221031  0.00304069  0.86812427  1
  O  O193  1  0.76029103  0.49708397  0.36352442  1
  O  O194  1  0.75699447  0.51134033  0.87943466  1
  O  O195  1  0.23395547  0.50768341  0.13596908  1
  O  O196  1  0.23777693  0.48528545  0.63189308  1
  O  O197  1  0.24468575  0.99562504  0.13051379  1
  O  O198  1  0.25131046  0.99228882  0.63040953  1
  O  O199  1  0.74849358  0.49607928  0.14040609  1
  O  O200  1  0.73788133  0.49690053  0.62564259  1
  O  O201  1  0.74234984  0.98758926  0.12157792  1
  O  O202  1  0.75154135  0.98673073  0.63018040  1
  O  O203  1  0.00831352  0.36550255  0.24618431  1
  O  O204  1  0.00847063  0.36937843  0.75588817  1
  O  O205  1  0.00579001  0.86895862  0.24592393  1
  O  O206  1  0.00959362  0.86865390  0.75063476  1
  O  O207  1  0.50310119  0.36428826  0.25780613  1
  O  O208  1  0.50903145  0.37809118  0.76441392  1
  O  O209  1  0.50888938  0.87172926  0.25937119  1
  O  O210  1  0.50724761  0.86368540  0.75204623  1
  O  O211  1  0.50070047  0.14214674  0.25793953  1
  O  O212  1  0.50122495  0.11972755  0.74477367  1
  O  O213  1  0.50658810  0.64181972  0.25455164  1
  O  O214  1  0.48701840  0.63010235  0.75825867  1
  O  O215  1  0.99165292  0.13175113  0.24561476  1
  O  O216  1  0.99569802  0.12714486  0.74511069  1
  O  O217  1  0.99238061  0.63169011  0.24240772  1
  O  O218  1  0.98728385  0.63155376  0.75264709  1
  O  O219  1  0.37167905  0.25215611  0.01484416  1
  O  O220  1  0.36778667  0.23992803  0.52168020  1
  O  O221  1  0.38145817  0.76403865  0.00794079  1
  O  O222  1  0.38042292  0.75797164  0.50683411  1
  O  O223  1  0.86914542  0.26272996  -0.00068203  1
  O  O224  1  0.86772850  0.25732554  0.49900719  1
  O  O225  1  0.86789692  0.75814342  -0.00233616  1
  O  O226  1  0.87220474  0.75178129  0.50638357  1
  O  O227  1  0.11840834  0.24132135  0.49038202  1
  O  O228  1  0.12157618  0.24117138  0.99212429  1
  O  O229  1  0.11070988  0.73401882  0.50091531  1
  O  O230  1  0.12224549  0.73980511  1.00194215  1
  O  O231  1  0.62974698  0.24796111  0.49794331  1
  O  O232  1  0.63396218  0.25961234  0.99043899  1
  O  O233  1  0.63697214  0.73489187  0.50893938  1
  O  O234  1  0.63354057  0.74911653  0.99189727  1
  O  O235  1  0.50238234  0.25103527  0.13570368  1
  O  O236  1  0.49144176  0.23936977  0.62832707  1
  O  O237  1  0.49386938  0.75162370  0.13158259  1
  O  O238  1  0.48908356  0.75344254  0.63159713  1
  O  O239  1  0.99649560  0.23663772  0.13653726  1
  O  O240  1  0.99872733  0.24353622  0.63141648  1
  O  O241  1  1.00156511  0.73920124  0.13610230  1
  O  O242  1  0.98599336  0.75419600  0.63454117  1
  O  O243  1  0.01153176  0.24416313  0.36490564  1
  O  O244  1  0.01005672  0.25593509  0.86897938  1
  O  O245  1  0.00531877  0.75189562  0.36061161  1
  O  O246  1  -0.00443435  0.75219435  0.86007388  1
  O  O247  1  0.50124688  0.25993699  0.36876685  1
  O  O248  1  0.50809454  0.26165458  0.88247500  1
  O  O249  1  0.50549393  0.76761966  0.36630537  1
  O  O250  1  0.50638895  0.75711285  0.86924879  1
  O  O251  1  0.23868390  0.11696205  0.49162573  1
  O  O252  1  0.23577473  0.11678490  0.99190573  1
  O  O253  1  0.22661760  0.62433897  0.50682181  1
  O  O254  1  0.23440382  0.62473110  0.99200205  1
  O  O255  1  0.74342607  0.13237481  0.49858454  1
  O  O256  1  0.75952969  0.14126477  0.99993481  1
  O  O257  1  0.74139180  0.63146484  0.50179169  1
  O  O258  1  0.75137497  0.63131629  0.99489228  1
  O  O259  1  0.24596124  0.37838097  -0.00420964  1
  O  O260  1  0.24459000  0.38192658  0.50955883  1
  O  O261  1  0.25640250  0.87977637  0.01024258  1
  O  O262  1  0.26032247  0.88152449  0.50992334  1
  O  O263  1  0.75790243  0.36758727  0.00253757  1
  O  O264  1  0.75480182  0.36818495  0.50112156  1
  O  O265  1  0.75774070  0.86791656  0.00513043  1
  O  O266  1  0.75508263  0.86838098  0.50876545  1
  O  O267  1  0.13259291  0.49599739  0.24648850  1
  O  O268  1  0.12046306  0.49406585  0.74289460  1
  O  O269  1  0.12707186  0.99599345  0.24377227  1
  O  O270  1  0.13321322  0.98869213  0.74578920  1
  O  O271  1  0.63118799  0.49447865  0.25404167  1
  O  O272  1  0.62161320  0.48899831  0.74429793  1
  O  O273  1  0.62433223  0.98782345  0.24028312  1
  O  O274  1  0.64093125  0.99124020  0.74708026  1
  O  O275  1  0.36749419  0.00119241  0.25026204  1
  O  O276  1  0.36058958  -0.00862377  0.75356822  1
  O  O277  1  0.35703136  0.50012125  0.24310919  1
  O  O278  1  0.37389255  0.50658889  0.75772118  1
  O  O279  1  0.88194877  0.01061894  0.26172786  1
  O  O280  1  0.86695932  0.00482300  0.75090776  1
  O  O281  1  0.87027091  0.50467281  0.25634338  1
  O  O282  1  0.87743944  0.50643682  0.75863734  1
  O  O283  1  0.12873940  0.36545526  0.36811788  1
  O  O284  1  0.11783431  0.37182399  0.86822360  1
  O  O285  1  0.12040816  0.88002301  0.36080711  1
  O  O286  1  0.12661711  0.87554756  0.86151817  1
  O  O287  1  0.61660434  0.37199238  0.36680953  1
  O  O288  1  0.61944817  0.37246296  0.86618036  1
  O  O289  1  0.62168460  0.88352359  0.36704331  1
  O  O290  1  0.62030102  0.86795921  0.87035312  1
  O  O291  1  0.37073298  0.14114539  0.12611420  1
  O  O292  1  0.38956930  0.12864547  0.62717320  1
  O  O293  1  0.37458926  0.64000604  0.11602141  1
  O  O294  1  0.38143549  0.62538279  0.62793761  1
  O  O295  1  0.88095402  0.12575956  0.13514689  1
  O  O296  1  0.88258252  0.12653768  0.63511939  1
  O  O297  1  0.88706826  0.61519991  0.13191535  1
  O  O298  1  0.86814830  0.63217326  0.63361788  1
  O  O299  1  0.25063417  0.24955016  0.12852828  1
  O  O300  1  0.24710938  0.26571474  0.62116667  1
  O  O301  1  0.25864828  0.76287113  0.13192617  1
  O  O302  1  0.26608326  0.75793780  0.62736785  1
  O  O303  1  0.75250736  0.25616125  0.11865181  1
  O  O304  1  0.75020617  0.25152423  0.61409603  1
  O  O305  1  0.74545182  0.75976655  0.11216713  1
  O  O306  1  0.76121488  0.75909883  0.62165242  1
  O  O307  1  0.24017701  0.23692919  0.36548779  1
  O  O308  1  0.23533669  0.24357336  0.86804717  1
  O  O309  1  0.24351539  0.76045097  0.36915586  1
  O  O310  1  0.25288637  0.73824557  0.86902875  1
  O  O311  1  0.74136857  0.24627640  0.38709682  1
  O  O312  1  0.74260347  0.25160717  0.88472939  1
  O  O313  1  0.75447858  0.75615778  0.39002643  1
  O  O314  1  0.74782651  0.73953501  0.88467682  1
  O  O315  1  0.00515785  0.12122129  0.00719661  1
  O  O316  1  0.00829869  0.11898168  0.50435198  1
  O  O317  1  0.00941325  0.62879598  0.00680547  1
  O  O318  1  0.00597445  0.61137125  0.50031778  1
  O  O319  1  0.50425660  0.10457652  -0.04516948  1
  O  O320  1  0.50476875  0.11841971  0.50024539  1
  O  O321  1  0.49912966  0.61090990  -0.00284901  1
  O  O322  1  0.51449055  0.63120127  0.50764602  1
  O  O323  1  0.50235889  0.37120410  0.48452617  1
  O  O324  1  0.49506823  0.38666015  0.98949777  1
  O  O325  1  0.50030783  0.88249925  0.49633951  1
  O  O326  1  0.49420203  0.87896205  0.99053623  1
  O  O327  1  0.99193600  0.38644298  0.50044100  1
  O  O328  1  0.99147515  0.37062187  0.98520337  1
  O  O329  1  0.99509886  0.88310074  0.49914919  1
  O  O330  1  0.99481733  0.88293620  1.00225879  1
  O  O331  1  0.48616608  0.48524541  0.36815318  1
  O  O332  1  0.48663098  0.49501371  0.88063385  1
  O  O333  1  0.50120771  0.99376983  0.38328099  1
  O  O334  1  0.49495837  0.97841132  0.85721006  1
  O  O335  1  0.98645332  0.50003610  0.38034785  1
  O  O336  1  0.98804669  0.49171714  0.87286410  1
  O  O337  1  0.99056502  1.00143843  0.38609725  1
  O  O338  1  1.00163674  0.99908425  0.88828282  1
  O  O339  1  0.00429853  0.01117098  0.11667817  1
  O  O340  1  0.00168418  0.00563036  0.61411881  1
  O  O341  1  0.01699535  0.51187619  0.13391435  1
  O  O342  1  0.00795132  0.49418040  0.61574652  1
  O  O343  1  0.51438688  -0.00158732  0.12797885  1
  O  O344  1  0.50068741  0.01212149  0.62140748  1
  O  O345  1  0.49589989  0.50049227  0.11826753  1
  O  O346  1  0.50581675  0.49606382  0.62824087  1
  O  O347  1  0.23900530  0.38271951  0.25054573  1
  O  O348  1  0.23363948  0.37724460  0.74888374  1
  O  O349  1  0.23955866  0.88981070  0.23918488  1
  O  O350  1  0.24459740  0.87848097  0.73947550  1
  O  O351  1  0.73932695  0.38157702  0.25204126  1
  O  O352  1  0.73711826  0.37517482  0.75024386  1
  O  O353  1  0.74558847  0.87067745  0.23876454  1
  O  O354  1  0.75079559  0.87829532  0.74579903  1
  O  O355  1  0.24872041  0.11232291  0.25698152  1
  O  O356  1  0.23803597  0.11318734  0.75820151  1
  O  O357  1  0.24534917  0.61934546  0.24687041  1
  O  O358  1  0.26119685  0.62367166  0.75335195  1
  O  O359  1  0.76497864  0.13435244  0.25933394  1
  O  O360  1  0.75914715  0.11570533  0.74512873  1
  O  O361  1  0.76036858  0.62020847  0.24443287  1
  O  O362  1  0.76452172  0.63127524  0.76117801  1
  O  O363  1  0.36563823  0.12496598  0.37142562  1
  O  O364  1  0.35673762  0.12916126  0.87814043  1
  O  O365  1  0.36720913  0.63737330  0.38489193  1
  O  O366  1  0.36772325  0.61994327  0.86999212  1
  O  O367  1  0.87156085  0.11972464  0.37136274  1
  O  O368  1  0.87550527  0.12415169  0.86190853  1
  O  O369  1  0.87772306  0.61664741  0.36275121  1
  O  O370  1  0.87068077  0.61564849  0.87107177  1
  O  O371  1  0.12141617  0.38966803  0.13222944  1
  O  O372  1  0.13061913  0.38049372  0.62956789  1
  O  O373  1  0.13134740  0.87996103  0.13135444  1
  O  O374  1  0.13624012  0.87566712  0.62972588  1
  O  O375  1  0.62229017  0.37920865  0.14067219  1
  O  O376  1  0.62395963  0.38128452  0.63746631  1
  O  O377  1  0.63392605  0.88196795  0.13126795  1
  O  O378  1  0.63478069  0.87360134  0.63227552  1
  O  O379  1  0.11822562  0.25913930  0.25587085  1
  O  O380  1  0.11872524  0.25710024  0.75559430  1
  O  O381  1  0.11654213  0.76009457  0.24625905  1
  O  O382  1  0.11477606  0.75637554  0.73934683  1
  O  O383  1  0.61551405  0.25674776  0.25521368  1
  O  O384  1  0.62629986  0.26717099  0.75680001  1
  O  O385  1  0.61776616  0.76679314  0.24314549  1
  O  O386  1  0.62416730  0.75204277  0.75591217  1
  O  O387  1  0.38364029  0.24764339  0.23808185  1
  O  O388  1  0.35790732  0.24612746  0.72783908  1
  O  O389  1  0.38973028  0.75687996  0.23627220  1
  O  O390  1  0.38122011  0.74199809  0.74205087  1
  O  O391  1  0.88312785  0.24620121  0.25370845  1
  O  O392  1  0.88031696  0.24263976  0.74870425  1
  O  O393  1  0.88110241  0.74098894  0.25197743  1
  O  O394  1  0.88144578  0.74341228  0.74346490  1
  O  O395  1  0.38636667  0.51757689  0.51008390  1
  O  O396  1  0.37695664  0.49804807  0.99306546  1
  O  O397  1  0.38821062  0.99476642  0.50175003  1
  O  O398  1  0.37736445  0.98798410  0.99726553  1
  O  O399  1  0.87870406  0.49611827  0.49364078  1
  O  O400  1  0.86963448  0.48728404  0.98996053  1
  O  O401  1  0.88254260  0.99597568  0.49537473  1
  O  O402  1  0.88351994  0.99565261  0.99939651  1
  O  O403  1  0.11708827  0.00625545  0.00543318  1
  O  O404  1  0.11685211  0.00654349  0.49847324  1
  O  O405  1  0.12409588  0.50747667  0.01296127  1
  O  O406  1  0.11599409  0.50583463  0.50457697  1
  O  O407  1  0.62365777  -0.00490786  0.01744360  1
  O  O408  1  0.61589195  0.00573943  0.50645722  1
  O  O409  1  0.61439222  0.49931827  0.00282286  1
  O  O410  1  0.62862742  0.51201237  0.51026072  1
  O  O411  1  0.37592526  0.35409767  0.12448637  1
  O  O412  1  0.35911556  0.36956341  0.62651690  1
  O  O413  1  0.36794757  0.87030432  0.11782839  1
  O  O414  1  0.37256960  0.86821823  0.61634362  1
  O  O415  1  0.87668883  0.37545346  0.11578522  1
  O  O416  1  0.87224582  0.37423138  0.61244906  1
  O  O417  1  0.86798071  0.88125382  0.11329172  1
  O  O418  1  0.87005364  0.86813262  0.61940875  1
  O  O419  1  0.13062023  0.13230741  0.38108730  1
  O  O420  1  0.12771024  0.13354549  0.88247194  1
  O  O421  1  0.11839504  0.62329743  0.38957894  1
  O  O422  1  0.12925503  0.61996792  0.88789734  1
  O  O423  1  0.63061448  0.13124856  0.38178231  1
  O  O424  1  0.63724587  0.14590750  0.85667796  1
  O  O425  1  0.62220787  0.61788759  0.39326572  1
  O  O426  1  0.63386632  0.62823023  0.87616320  1
