# generated using pymatgen
data_V85Zn86O256
_symmetry_space_group_name_H-M   'P 1'
_cell_length_a   16.93932389
_cell_length_b   16.94916820
_cell_length_c   16.94171111
_cell_angle_alpha   89.98371590
_cell_angle_beta   90.02951119
_cell_angle_gamma   89.97122635
_symmetry_Int_Tables_number   1
_chemical_formula_structural   V85Zn86O256
_chemical_formula_sum   'V85 Zn86 O256'
_cell_volume   4864.09001662
_cell_formula_units_Z   1
loop_
 _symmetry_equiv_pos_site_id
 _symmetry_equiv_pos_as_xyz
  1  'x, y, z'
loop_
 _atom_site_type_symbol
 _atom_site_label
 _atom_site_symmetry_multiplicity
 _atom_site_fract_x
 _atom_site_fract_y
 _atom_site_fract_z
 _atom_site_occupancy
  V  V0  1  0.87988005  0.24641845  0.12528406  1
  V  V1  1  0.74829360  0.50726801  0.24707606  1
  V  V2  1  0.43353863  0.44109866  0.43358681  1
  V  V3  1  0.75315072  0.62782090  0.37422149  1
  V  V4  1  0.11399584  0.87495086  0.26191896  1
  V  V5  1  0.87139089  0.63202672  0.75063314  1
  V  V6  1  0.12567427  0.12440064  0.50086683  1
  V  V7  1  0.87643596  0.12105469  0.24718994  1
  V  V8  1  0.73549733  0.63490275  0.88894977  1
  V  V9  1  0.01541801  0.75425858  0.75441822  1
  V  V10  1  0.62420274  0.74924559  0.37403714  1
  V  V11  1  0.00389752  -0.01051727  0.49752041  1
  V  V12  1  0.24364183  0.50131353  0.74451868  1
  V  V13  1  0.35718153  0.78392811  0.64967313  1
  V  V14  1  0.62486963  0.25047504  0.87131361  1
  V  V15  1  0.37215557  0.62287518  0.25492159  1
  V  V16  1  0.87594307  0.50318560  0.37105323  1
  V  V17  1  0.50080736  0.87764125  0.37232553  1
  V  V18  1  0.62633457  0.87872706  0.24735578  1
  V  V19  1  0.12511176  0.25028362  0.87345979  1
  V  V20  1  0.24805491  0.37649729  0.12350917  1
  V  V21  1  0.11686127  0.50468938  0.12393077  1
  V  V22  1  0.37135749  0.11896786  0.24683672  1
  V  V23  1  0.00410266  0.73527796  0.26312278  1
  V  V24  1  0.37279596  0.87632934  0.49507141  1
  V  V25  1  0.61945249  0.12468228  -0.00427153  1
  V  V26  1  0.01178553  0.87163625  0.87634722  1
  V  V27  1  0.37583576  0.25149961  0.12403727  1
  V  V28  1  0.87938238  -0.01024149  0.37114085  1
  V  V29  1  0.12527456  0.25059417  0.37755851  1
  V  V30  1  0.62424099  0.37807179  0.25487216  1
  V  V31  1  0.37232117  0.50252294  0.88057516  1
  V  V32  1  0.11792674  0.12446136  0.00425839  1
  V  V33  1  0.49896949  0.12712162  0.11946287  1
  V  V34  1  0.50030206  0.25433466  0.25170225  1
  V  V35  1  0.87314416  0.12012924  0.75122767  1
  V  V36  1  0.11769041  0.63360213  0.00010651  1
  V  V37  1  -0.00560379  -0.00161122  0.00316590  1
  V  V38  1  0.87450877  0.24876389  0.62182469  1
  V  V39  1  0.24924727  0.11438485  0.87225975  1
  V  V40  1  0.12153950  0.00163351  0.13114689  1
  V  V41  1  -0.00017370  0.37780191  0.87521121  1
  V  V42  1  0.87262163  0.37501600  0.49843953  1
  V  V43  1  0.12257663  0.37945480  0.73961333  1
  V  V44  1  0.74920386  0.37654930  0.62325220  1
  V  V45  1  0.73752659  0.83900066  0.10983960  1
  V  V46  1  0.50442161  0.74946513  0.75882492  1
  V  V47  1  0.12392210  0.37396192  0.24839468  1
  V  V48  1  0.49832445  0.37728337  0.87335166  1
  V  V49  1  0.74891561  0.50332643  0.74785952  1
  V  V50  1  0.00027345  0.24428058  0.24944497  1
  V  V51  1  0.62811930  0.00668664  0.12262725  1
  V  V52  1  0.24700884  0.75280567  0.49292792  1
  V  V53  1  0.50598742  0.88219070  0.88227506  1
  V  V54  1  0.87336661  0.50252765  0.87678812  1
  V  V55  1  0.37319553  0.37716366  -0.00053659  1
  V  V56  1  0.88903740  0.72761498  0.12550425  1
  V  V57  1  0.00547726  0.62225830  0.62720813  1
  V  V58  1  0.26497326  0.25238094  0.50295251  1
  V  V59  1  0.24718844  0.24928714  -0.00210486  1
  V  V60  1  0.24929292  0.11948042  0.37062921  1
  V  V61  1  0.00707703  0.49934818  0.50362104  1
  V  V62  1  0.61947718  0.50346452  0.61570717  1
  V  V63  1  0.49530105  0.62837779  0.61806078  1
  V  V64  1  0.74785127  0.12148652  0.37947271  1
  V  V65  1  0.50680277  0.00798813  0.50123968  1
  V  V66  1  0.24766567  0.87921015  0.13413310  1
  V  V67  1  0.37852734  0.88542366  0.00517558  1
  V  V68  1  0.25033834  0.49974908  0.25635411  1
  V  V69  1  0.13766988  -0.01070801  0.63830207  1
  V  V70  1  0.37612951  0.62076484  0.74780989  1
  V  V71  1  0.37270296  0.74806640  0.12390107  1
  V  V72  1  0.24581489  0.63504666  0.87658452  1
  V  V73  1  0.37069664  0.12347204  0.73970736  1
  V  V74  1  0.26144940  0.37201304  0.62265393  1
  V  V75  1  0.62354340  0.24703003  0.38113138  1
  V  V76  1  0.87492518  0.86884222  0.49819043  1
  V  V77  1  -0.00042192  0.25011511  0.74810335  1
  V  V78  1  0.75085205  0.24979657  -0.00098744  1
  V  V79  1  0.62421727  0.37460843  0.74612738  1
  V  V80  1  0.00168977  0.12033416  0.62359848  1
  V  V81  1  0.50607531  0.61640727  0.12159239  1
  V  V82  1  0.49307850  0.25075054  0.74089432  1
  V  V83  1  0.62752362  0.87443994  0.75039861  1
  V  V84  1  0.75016618  0.37830375  0.12791826  1
  Zn  Zn85  1  0.37855346  0.00333961  0.87824286  1
  Zn  Zn86  1  0.24464900  0.75644290  -0.00117306  1
  Zn  Zn87  1  -0.00384368  0.50474732  0.00564500  1
  Zn  Zn88  1  0.87383731  0.75184491  0.62624139  1
  Zn  Zn89  1  0.75180711  0.12185863  0.87367976  1
  Zn  Zn90  1  0.61898404  0.62339766  0.49456150  1
  Zn  Zn91  1  0.12461988  0.63012972  0.49997768  1
  Zn  Zn92  1  0.49834301  0.74767472  0.24826648  1
  Zn  Zn93  1  0.75300778  -0.00329885  0.24611520  1
  Zn  Zn94  1  0.87296875  -0.00897301  0.87366971  1
  Zn  Zn95  1  0.24689032  0.62510866  0.37688292  1
  Zn  Zn96  1  0.50223469  0.13289381  0.61726798  1
  Zn  Zn97  1  0.75065526  -0.00229647  0.74916500  1
  Zn  Zn98  1  -0.00178428  0.37398728  0.37539929  1
  Zn  Zn99  1  0.37258434  -0.00003871  0.36953597  1
  Zn  Zn100  1  0.87754367  0.37497969  0.00143266  1
  Zn  Zn101  1  0.74366759  0.24167252  0.50287810  1
  Zn  Zn102  1  0.62904791  0.00669032  0.62255541  1
  Zn  Zn103  1  0.74581829  0.75034285  0.50258185  1
  Zn  Zn104  1  0.53118416  0.52148046  -0.00833048  1
  Zn  Zn105  1  0.87131581  0.86251294  0.00106966  1
  Zn  Zn106  1  0.74895753  0.87318953  0.62366141  1
  Zn  Zn107  1  0.18712603  0.18623302  0.18546146  1
  Zn  Zn108  1  0.18858431  0.18729086  0.68574727  1
  Zn  Zn109  1  0.18352858  0.69015655  0.18753175  1
  Zn  Zn110  1  0.18794765  0.68654101  0.68237938  1
  Zn  Zn111  1  0.68942338  0.18913789  0.19011956  1
  Zn  Zn112  1  0.68481086  0.18520492  0.68225895  1
  Zn  Zn113  1  0.68258592  0.68838872  0.17748498  1
  Zn  Zn114  1  0.68747198  0.69057016  0.68687724  1
  Zn  Zn115  1  0.31317638  0.31211541  0.31449550  1
  Zn  Zn116  1  0.31005947  0.31063955  0.80990326  1
  Zn  Zn117  1  0.31023862  0.81301136  0.30942439  1
  Zn  Zn118  1  0.31852377  0.81478767  0.82005738  1
  Zn  Zn119  1  0.80995766  0.31110783  0.31456993  1
  Zn  Zn120  1  0.81291390  0.31160013  0.81019831  1
  Zn  Zn121  1  0.81422313  0.80756756  0.29989009  1
  Zn  Zn122  1  0.81230364  0.81046064  0.82162461  1
  Zn  Zn123  1  0.19060705  0.43606598  0.43918724  1
  Zn  Zn124  1  0.18503508  0.44330102  0.93463742  1
  Zn  Zn125  1  0.18842020  0.93780829  0.44176852  1
  Zn  Zn126  1  0.18643270  0.93716239  0.94420825  1
  Zn  Zn127  1  0.68610954  0.43703181  0.43470019  1
  Zn  Zn128  1  0.69197855  0.43899266  0.93594762  1
  Zn  Zn129  1  0.69048920  0.93736992  0.43549279  1
  Zn  Zn130  1  0.68781105  0.93918589  0.93419504  1
  Zn  Zn131  1  0.30581782  0.06189418  0.06346453  1
  Zn  Zn132  1  0.31480111  0.06118909  0.55764362  1
  Zn  Zn133  1  0.30660554  0.56484901  0.06573531  1
  Zn  Zn134  1  0.31240890  0.56138968  0.56106237  1
  Zn  Zn135  1  0.81094987  0.06538706  0.06184117  1
  Zn  Zn136  1  0.81243165  0.05399928  0.56290500  1
  Zn  Zn137  1  0.81349193  0.56398232  0.06233021  1
  Zn  Zn138  1  0.81379695  0.56632825  0.55966406  1
  Zn  Zn139  1  0.43837757  0.44061805  0.19077426  1
  Zn  Zn140  1  0.43807157  0.44121183  0.68394937  1
  Zn  Zn141  1  0.44214942  0.94180273  0.18365238  1
  Zn  Zn142  1  0.42836282  0.93732252  0.69368215  1
  Zn  Zn143  1  0.93577619  0.43566667  0.19132497  1
  Zn  Zn144  1  0.93511061  0.44088191  0.68751167  1
  Zn  Zn145  1  0.93311073  0.92652470  0.18014969  1
  Zn  Zn146  1  0.94123183  0.93460468  0.68540784  1
  Zn  Zn147  1  0.06133876  0.06036334  0.31198469  1
  Zn  Zn148  1  0.05993132  0.05880673  0.81482675  1
  Zn  Zn149  1  0.06819847  0.56261542  0.32045389  1
  Zn  Zn150  1  0.06205578  0.56556986  0.81456690  1
  Zn  Zn151  1  0.56134508  0.06490065  0.31134642  1
  Zn  Zn152  1  0.55973328  0.06166530  0.80836011  1
  Zn  Zn153  1  0.56027549  0.56124043  0.30969770  1
  Zn  Zn154  1  0.56230492  0.56080536  0.80760939  1
  Zn  Zn155  1  0.43723970  0.18960293  0.43122198  1
  Zn  Zn156  1  0.43585145  0.19134417  0.93243148  1
  Zn  Zn157  1  0.43147242  0.69267033  0.43707254  1
  Zn  Zn158  1  0.43581531  0.69276936  0.94103504  1
  Zn  Zn159  1  0.93593531  0.18288557  0.43607813  1
  Zn  Zn160  1  0.93820592  0.18644173  0.93582770  1
  Zn  Zn161  1  0.94137769  0.68467993  0.43345447  1
  Zn  Zn162  1  0.93530856  0.68892310  0.93567306  1
  Zn  Zn163  1  0.06008099  0.31368300  0.06226794  1
  Zn  Zn164  1  0.06267114  0.31256735  0.56110989  1
  Zn  Zn165  1  0.05935786  0.81406038  0.06747813  1
  Zn  Zn166  1  0.06329466  0.81384247  0.57027856  1
  Zn  Zn167  1  0.57751926  0.34355027  0.04888892  1
  Zn  Zn168  1  0.55563089  0.31848988  0.55744517  1
  Zn  Zn169  1  0.56170438  0.80805598  0.06467087  1
  Zn  Zn170  1  0.55514258  0.81293220  0.56525643  1
  O  O171  1  0.12810131  0.11709676  0.11563726  1
  O  O172  1  0.11342447  0.12412488  0.62045602  1
  O  O173  1  0.13098066  0.61650345  0.11087038  1
  O  O174  1  0.11075177  0.62557922  0.62144513  1
  O  O175  1  0.61710286  0.12805863  0.11770688  1
  O  O176  1  0.61483377  0.12006175  0.62860893  1
  O  O177  1  0.60457891  0.61623754  0.13398808  1
  O  O178  1  0.61509850  0.62029986  0.62349136  1
  O  O179  1  0.38454266  0.37818791  0.36834485  1
  O  O180  1  0.37451095  0.38365982  0.87915451  1
  O  O181  1  0.38343509  0.87678105  0.37634586  1
  O  O182  1  0.38221066  0.88061607  0.88968415  1
  O  O183  1  0.87451359  0.38015800  0.38382357  1
  O  O184  1  0.88332966  0.38209250  0.87253937  1
  O  O185  1  0.86861218  0.88557580  0.37472441  1
  O  O186  1  0.88509116  0.87290495  0.88397272  1
  O  O187  1  0.24986225  0.01616988  0.37926770  1
  O  O188  1  0.24955064  0.01187373  0.88005842  1
  O  O189  1  0.24590398  0.49619503  0.35923465  1
  O  O190  1  0.25567625  0.50798927  0.86463984  1
  O  O191  1  0.75839187  0.00524818  0.36827003  1
  O  O192  1  0.75497137  0.00449021  0.86856391  1
  O  O193  1  0.75531513  0.50755755  0.36922780  1
  O  O194  1  0.76046307  0.49948610  0.86754314  1
  O  O195  1  0.23798086  0.49347564  0.13143440  1
  O  O196  1  0.25186505  0.49417406  0.63868280  1
  O  O197  1  0.23442192  0.99304586  0.12212152  1
  O  O198  1  0.23548332  1.00821709  0.61993845  1
  O  O199  1  0.75947877  0.48973500  0.13477506  1
  O  O200  1  0.74445741  0.49793188  0.62947083  1
  O  O201  1  0.73428756  1.01257231  0.12879557  1
  O  O202  1  0.74666300  0.99220927  0.63034857  1
  O  O203  1  0.00519845  0.36168077  0.25298226  1
  O  O204  1  0.00466206  0.37339338  0.75667203  1
  O  O205  1  0.01160056  0.87256153  0.24903840  1
  O  O206  1  -0.00286279  0.86032702  0.75714089  1
  O  O207  1  0.51159155  0.36641886  0.23903471  1
  O  O208  1  0.50244099  0.37108659  0.75469574  1
  O  O209  1  0.50861644  0.87726583  0.25630594  1
  O  O210  1  0.50620624  0.86812880  0.75928377  1
  O  O211  1  0.49219360  0.13368871  0.24178407  1
  O  O212  1  0.48717448  0.13526007  0.75166008  1
  O  O213  1  0.48855190  0.62377738  0.23939334  1
  O  O214  1  0.49357813  0.63080336  0.74558678  1
  O  O215  1  0.99336767  0.13666364  0.25324423  1
  O  O216  1  0.99241089  0.12923355  0.74266177  1
  O  O217  1  1.01226404  0.63607428  0.25146507  1
  O  O218  1  0.99367896  0.63279213  0.74703385  1
  O  O219  1  0.36498349  0.25615366  0.00395315  1
  O  O220  1  0.36419474  0.24757873  0.49675282  1
  O  O221  1  0.37009974  0.76054451  0.01176262  1
  O  O222  1  0.36514838  0.76077100  0.50663716  1
  O  O223  1  0.87008696  0.24809936  0.00815731  1
  O  O224  1  0.87518370  0.25774081  0.50440617  1
  O  O225  1  0.88178881  0.74394072  0.01960506  1
  O  O226  1  0.87965636  0.76255029  0.49513923  1
  O  O227  1  0.12583043  0.24331378  0.49092540  1
  O  O228  1  0.12675388  0.24299878  0.99583587  1
  O  O229  1  0.14430288  0.75548753  0.51271113  1
  O  O230  1  0.12552753  0.73704732  1.00659807  1
  O  O231  1  0.62286632  0.25629166  0.48526293  1
  O  O232  1  0.63269936  0.24777694  0.99275096  1
  O  O233  1  0.62267314  0.75350713  0.48469886  1
  O  O234  1  0.66395811  0.76255213  1.07873116  1
  O  O235  1  0.49459249  0.24186902  0.13320823  1
  O  O236  1  0.50237736  0.25397259  0.63736195  1
  O  O237  1  0.48907582  0.73915277  0.12797110  1
  O  O238  1  0.48346630  0.74702541  0.64019469  1
  O  O239  1  0.98771718  0.25338912  0.13144325  1
  O  O240  1  0.99516754  0.24191009  0.62851874  1
  O  O241  1  0.99290921  0.75199562  0.13644878  1
  O  O242  1  0.99641798  0.74390012  0.63882614  1
  O  O243  1  0.00760947  0.24939719  0.36858981  1
  O  O244  1  0.00407412  0.25843313  0.86764056  1
  O  O245  1  0.00405596  0.74777804  0.36326069  1
  O  O246  1  -0.00109763  0.75369006  0.86219576  1
  O  O247  1  0.50810828  0.24366262  0.35988501  1
  O  O248  1  0.50538643  0.25851274  0.86452595  1
  O  O249  1  0.50541596  0.75936390  0.37012362  1
  O  O250  1  0.49209526  0.75891776  0.86485484  1
  O  O251  1  0.24458408  0.13401196  0.49268562  1
  O  O252  1  0.23885330  0.12937572  0.99220583  1
  O  O253  1  0.25260734  0.64107058  0.50211860  1
  O  O254  1  0.24082727  0.62759653  0.99139449  1
  O  O255  1  0.76064022  0.12346798  0.48444589  1
  O  O256  1  0.74203690  0.13786433  0.99892678  1
  O  O257  1  0.74536151  0.62855630  0.48689455  1
  O  O258  1  0.74617014  0.61501827  0.98740736  1
  O  O259  1  0.25578733  0.37132116  0.00068221  1
  O  O260  1  0.24275061  0.36504735  0.51157127  1
  O  O261  1  0.25793184  0.87498193  0.01241973  1
  O  O262  1  0.26127057  0.86822933  0.49662193  1
  O  O263  1  0.75589521  0.36277973  0.00883688  1
  O  O264  1  0.76022890  0.37462371  0.50432350  1
  O  O265  1  0.74858710  0.88086962  0.01390966  1
  O  O266  1  0.76056503  0.87187731  0.49845857  1
  O  O267  1  0.12872218  0.49255062  0.24267379  1
  O  O268  1  0.13227214  0.49207825  0.75638357  1
  O  O269  1  0.11860416  0.99093039  0.24139130  1
  O  O270  1  0.12471119  1.00809000  0.73700971  1
  O  O271  1  0.63382389  0.48866596  0.25435799  1
  O  O272  1  0.62982910  0.49338282  0.73904004  1
  O  O273  1  0.62607496  0.99493862  0.24313555  1
  O  O274  1  0.62310952  0.98517032  0.74861211  1
  O  O275  1  0.37841666  0.01492854  0.24800711  1
  O  O276  1  0.37956830  0.02070273  0.75670930  1
  O  O277  1  0.36181794  0.51043098  0.24000099  1
  O  O278  1  0.36927532  0.50604764  0.76136966  1
  O  O279  1  0.87754730  0.00457428  0.25325352  1
  O  O280  1  0.87803021  0.00825501  0.74981831  1
  O  O281  1  0.86696400  0.49330343  0.26413642  1
  O  O282  1  0.87024533  0.51131152  0.75650557  1
  O  O283  1  0.12409395  0.36270193  0.36960435  1
  O  O284  1  0.11742528  0.37153220  0.86687098  1
  O  O285  1  0.12886773  0.88326898  0.35964526  1
  O  O286  1  0.11263479  0.87616695  0.88145527  1
  O  O287  1  0.63271021  0.36435711  0.36225640  1
  O  O288  1  0.62104250  0.36937596  0.86297354  1
  O  O289  1  0.62099251  0.87151604  0.36493818  1
  O  O290  1  0.61766698  0.87470967  0.86597051  1
  O  O291  1  0.37860325  0.13057006  0.12707321  1
  O  O292  1  0.37744020  0.12414594  0.63650039  1
  O  O293  1  0.37455423  0.63375422  0.13096873  1
  O  O294  1  0.38096038  0.61855182  0.63700806  1
  O  O295  1  0.87103777  0.13150674  0.13872438  1
  O  O296  1  0.88604860  0.12664530  0.62757986  1
  O  O297  1  0.88517818  0.62775417  0.12583548  1
  O  O298  1  0.88322002  0.62667411  0.63436607  1
  O  O299  1  0.25426330  0.25686433  0.11781585  1
  O  O300  1  0.24467784  0.25838552  0.61413251  1
  O  O301  1  0.25607148  0.75970016  0.12387076  1
  O  O302  1  0.26382777  0.74759759  0.62104312  1
  O  O303  1  0.76174062  0.25311810  0.12005401  1
  O  O304  1  0.75627170  0.25731520  0.62121221  1
  O  O305  1  0.78126898  0.74417333  0.15359074  1
  O  O306  1  0.75521967  0.75269015  0.62013351  1
  O  O307  1  0.24206084  0.24425139  0.38156122  1
  O  O308  1  0.24196109  0.24361934  0.88028573  1
  O  O309  1  0.25330940  0.75165980  0.38979604  1
  O  O310  1  0.25426884  0.73925129  0.87618673  1
  O  O311  1  0.74214886  0.24074642  0.37730600  1
  O  O312  1  0.74522820  0.24959182  0.88284293  1
  O  O313  1  0.74361715  0.74205375  0.36988166  1
  O  O314  1  0.74760401  0.73396527  0.87892041  1
  O  O315  1  0.01195724  0.11877116  -0.00591977  1
  O  O316  1  0.00373595  0.11611586  0.50708973  1
  O  O317  1  0.01453253  0.62209541  -0.00863659  1
  O  O318  1  -0.00244973  0.61657963  0.50978709  1
  O  O319  1  0.50791806  0.13738647  0.00683880  1
  O  O320  1  0.49293276  0.11116740  0.49604221  1
  O  O321  1  0.49866757  0.62899399  0.01283484  1
  O  O322  1  0.49781730  0.63744832  0.51465951  1
  O  O323  1  0.49077604  0.38584672  0.49807811  1
  O  O324  1  0.47860516  0.36317773  0.99035356  1
  O  O325  1  0.49786217  0.88136996  0.48365488  1
  O  O326  1  0.49395083  0.86627302  0.99442498  1
  O  O327  1  0.98797347  0.38061141  0.50119156  1
  O  O328  1  0.99915755  0.37646011  0.98545820  1
  O  O329  1  0.99686820  0.88428030  0.50318098  1
  O  O330  1  0.99825227  0.88243219  0.99517630  1
  O  O331  1  0.49498072  0.50428087  0.38104066  1
  O  O332  1  0.49053657  0.49635788  0.87889929  1
  O  O333  1  0.49806696  0.99435773  0.38017073  1
  O  O334  1  0.49919348  0.98661560  0.87545700  1
  O  O335  1  0.99068179  0.49611759  0.38187917  1
  O  O336  1  0.98838274  0.49410511  0.87278531  1
  O  O337  1  0.99123137  1.00616421  0.38589494  1
  O  O338  1  0.99800527  0.99058893  0.88383903  1
  O  O339  1  0.01008074  -0.00704676  0.11656491  1
  O  O340  1  0.00770741  0.00624605  0.61715587  1
  O  O341  1  0.01263942  0.49036827  0.12488741  1
  O  O342  1  -0.00773538  0.50902921  0.61622240  1
  O  O343  1  0.51066391  0.01865150  0.12798797  1
  O  O344  1  0.49761390  -0.00084262  0.60632228  1
  O  O345  1  0.48666020  0.51461615  0.11556980  1
  O  O346  1  0.50862620  0.51383641  0.63166344  1
  O  O347  1  0.24357383  0.37874943  0.24322516  1
  O  O348  1  0.24036616  0.38092149  0.74603350  1
  O  O349  1  0.23978855  0.87301946  0.23968537  1
  O  O350  1  0.32739060  0.86327418  0.71878531  1
  O  O351  1  0.74655978  0.38294994  0.24607388  1
  O  O352  1  0.74548786  0.38134944  0.74210490  1
  O  O353  1  0.73669457  0.87376228  0.23448137  1
  O  O354  1  0.73551793  0.86937327  0.75343727  1
  O  O355  1  0.25926234  0.13425436  0.25782904  1
  O  O356  1  0.26252623  0.13436016  0.75754142  1
  O  O357  1  0.25318020  0.61662997  0.24797041  1
  O  O358  1  0.25486873  0.61892167  0.75473819  1
  O  O359  1  0.76031334  0.12508860  0.26003710  1
  O  O360  1  0.76516698  0.12877499  0.74798755  1
  O  O361  1  0.74075561  0.61211711  0.25679772  1
  O  O362  1  0.75552992  0.62020328  0.75645761  1
  O  O363  1  0.36618692  0.12670920  0.36303939  1
  O  O364  1  0.36431379  0.12457863  0.87163933  1
  O  O365  1  0.36926923  0.63434710  0.35859584  1
  O  O366  1  0.36813587  0.61816349  0.87221989  1
  O  O367  1  0.87103312  0.11561384  0.36421810  1
  O  O368  1  0.87557717  0.12467711  0.86289612  1
  O  O369  1  0.86429795  0.61599419  0.37796467  1
  O  O370  1  0.86705500  0.61735353  0.86969789  1
  O  O371  1  0.13003143  0.37932174  0.12857402  1
  O  O372  1  0.12807473  0.37212262  0.63711689  1
  O  O373  1  0.13152005  0.88322392  0.13047172  1
  O  O374  1  0.12543598  0.88986515  0.62894320  1
  O  O375  1  0.64475003  0.35909868  0.14167416  1
  O  O376  1  0.62852612  0.38287859  0.62746879  1
  O  O377  1  0.62325323  0.89245429  0.13115295  1
  O  O378  1  0.62103178  0.87530010  0.63925881  1
  O  O379  1  0.11794936  0.25194101  0.25503280  1
  O  O380  1  0.11836526  0.25759867  0.75421115  1
  O  O381  1  0.11562915  0.76488080  0.24405712  1
  O  O382  1  0.11406811  0.74526850  0.74969599  1
  O  O383  1  0.61830808  0.25433329  0.25781666  1
  O  O384  1  0.61893863  0.25652977  0.75427123  1
  O  O385  1  0.62082297  0.75934478  0.25829160  1
  O  O386  1  0.61373477  0.75923558  0.74747262  1
  O  O387  1  0.38208474  0.24450950  0.24275471  1
  O  O388  1  0.38283945  0.23951098  0.75617281  1
  O  O389  1  0.37418265  0.74469328  0.23887978  1
  O  O390  1  0.38048345  0.73161510  0.75276048  1
  O  O391  1  0.88135600  0.24351511  0.24612069  1
  O  O392  1  0.88204021  0.24445935  0.74163113  1
  O  O393  1  0.89790660  0.75217465  0.24503227  1
  O  O394  1  0.87873944  0.73846479  0.75321138  1
  O  O395  1  0.36540798  0.49505891  0.48829271  1
  O  O396  1  0.36535485  0.49357982  0.98957491  1
  O  O397  1  0.38298074  0.99334144  0.49127345  1
  O  O398  1  0.37449731  0.98933546  1.00501107  1
  O  O399  1  0.87904269  0.49296640  0.49068351  1
  O  O400  1  0.87808231  0.49586999  0.99063668  1
  O  O401  1  0.88332172  0.98859257  0.49144417  1
  O  O402  1  0.88824329  1.00659155  1.00201041  1
  O  O403  1  0.11503072  0.00739971  0.00701834  1
  O  O404  1  0.11825147  0.00618205  0.50571890  1
  O  O405  1  0.12269539  0.50791450  0.00787348  1
  O  O406  1  0.10878001  0.49289616  0.49881715  1
  O  O407  1  0.62776160  0.01855146  0.00494448  1
  O  O408  1  0.60974807  -0.00614253  0.49759349  1
  O  O409  1  0.61233578  0.44995588  0.01053865  1
  O  O410  1  0.63012767  0.50211963  0.51210025  1
  O  O411  1  0.36890184  0.37234295  0.11667675  1
  O  O412  1  0.36054983  0.37448411  0.63548997  1
  O  O413  1  0.37003689  0.87142747  0.12464962  1
  O  O414  1  0.40042554  0.87523017  0.59838774  1
  O  O415  1  0.86688060  0.36511197  0.12618660  1
  O  O416  1  0.86963765  0.37092858  0.61841050  1
  O  O417  1  0.85771521  0.86570485  0.11948796  1
  O  O418  1  0.87560414  0.87291331  0.61261521  1
  O  O419  1  0.13028225  0.13361040  0.37706796  1
  O  O420  1  0.13023870  0.13063279  0.87976551  1
  O  O421  1  0.13387584  0.61977429  0.38803787  1
  O  O422  1  0.13397384  0.61886797  0.88837878  1
  O  O423  1  0.63547919  0.13312694  0.36845001  1
  O  O424  1  0.62388259  0.13290216  0.87979348  1
  O  O425  1  0.62971862  0.63381276  0.37384173  1
  O  O426  1  0.63639444  0.61476824  0.87428166  1
