# generated using pymatgen
data_V85Zn86O256
_symmetry_space_group_name_H-M   'P 1'
_cell_length_a   16.92863930
_cell_length_b   16.94023129
_cell_length_c   16.91924247
_cell_angle_alpha   90.01440801
_cell_angle_beta   90.02717102
_cell_angle_gamma   90.01486889
_symmetry_Int_Tables_number   1
_chemical_formula_structural   V85Zn86O256
_chemical_formula_sum   'V85 Zn86 O256'
_cell_volume   4852.01599882
_cell_formula_units_Z   1
loop_
 _symmetry_equiv_pos_site_id
 _symmetry_equiv_pos_as_xyz
  1  'x, y, z'
loop_
 _atom_site_type_symbol
 _atom_site_label
 _atom_site_symmetry_multiplicity
 _atom_site_fract_x
 _atom_site_fract_y
 _atom_site_fract_z
 _atom_site_occupancy
  V  V0  1  0.37864234  0.25120003  0.12782137  1
  V  V1  1  0.12053683  0.49924073  0.12002576  1
  V  V2  1  0.75313371  0.50229987  0.75127459  1
  V  V3  1  0.75264821  0.74476250  0.50004724  1
  V  V4  1  0.24888989  0.50243110  0.25053791  1
  V  V5  1  0.25145051  0.11956635  0.37888857  1
  V  V6  1  0.37265279  0.12273770  0.25011560  1
  V  V7  1  0.00211738  0.00239593  -0.00528616  1
  V  V8  1  -0.00407032  0.88823690  0.37647667  1
  V  V9  1  0.62302930  0.37695897  0.75171831  1
  V  V10  1  0.12052065  0.62588961  -0.00585269  1
  V  V11  1  0.48802627  0.49462180  0.49955217  1
  V  V12  1  0.87672362  0.12550921  0.25848509  1
  V  V13  1  0.38271617  0.62205330  0.24888087  1
  V  V14  1  0.75854115  0.12850501  0.87409168  1
  V  V15  1  -0.00253191  0.74991950  0.24840611  1
  V  V16  1  0.37100457  0.36804842  -0.00176027  1
  V  V17  1  0.50579881  0.13256760  0.12649444  1
  V  V18  1  -0.00294487  0.62165013  0.12043307  1
  V  V19  1  0.13394120  0.25895083  0.87359509  1
  V  V20  1  0.62043289  0.49922364  0.62615248  1
  V  V21  1  0.62771124  0.00087377  0.61774416  1
  V  V22  1  0.12108532  0.74835398  0.37559389  1
  V  V23  1  0.62196238  0.62421706  0.50038134  1
  V  V24  1  0.74947237  0.37409968  0.62457290  1
  V  V25  1  0.50241090  0.00101869  -0.00091337  1
  V  V26  1  0.37619893  0.25172690  0.61561416  1
  V  V27  1  0.12523397  0.00079894  0.12100503  1
  V  V28  1  0.12147426  0.87504019  0.24678015  1
  V  V29  1  0.88031833  0.88289633  0.49864195  1
  V  V30  1  0.12416570  0.37427838  0.25372207  1
  V  V31  1  0.24797019  0.36695340  0.12231574  1
  V  V32  1  0.88969018  0.74437716  0.62665980  1
  V  V33  1  0.62567967  0.50066534  0.13412018  1
  V  V34  1  0.12140210  -0.00130967  0.62487893  1
  V  V35  1  0.87577970  0.24291449  0.63194723  1
  V  V36  1  0.74718151  0.12130922  0.38127643  1
  V  V37  1  0.37831423  0.74289517  0.12197880  1
  V  V38  1  0.37188624  0.75760858  0.62690456  1
  V  V39  1  0.00875598  0.25521588  0.74702480  1
  V  V40  1  0.49385295  0.36630930  0.36999471  1
  V  V41  1  0.24798061  0.75775184  0.50409645  1
  V  V42  1  0.76782795  0.25785663  0.00333638  1
  V  V43  1  0.25057584  0.87296960  0.12091963  1
  V  V44  1  0.38172319  0.12515713  0.74867841  1
  V  V45  1  0.49964506  0.37528109  0.87632471  1
  V  V46  1  0.37491213  0.87472866  -0.00206986  1
  V  V47  1  0.50654049  0.12064645  0.61000285  1
  V  V48  1  0.13598058  0.13340710  -0.00084486  1
  V  V49  1  0.61941761  0.75277854  0.37294578  1
  V  V50  1  0.87124537  0.75192303  0.12420601  1
  V  V51  1  0.62686858  0.25035044  0.87834541  1
  V  V52  1  -0.00759749  0.12848252  0.12165315  1
  V  V53  1  0.74399858  0.75268417  -0.00921116  1
  V  V54  1  0.00536341  0.85886489  0.87152290  1
  V  V55  1  0.87549926  0.37215968  0.49891864  1
  V  V56  1  0.75329345  0.00552737  0.74999658  1
  V  V57  1  0.36644068  0.62283979  0.75286096  1
  V  V58  1  0.12612861  0.49511084  0.63674931  1
  V  V59  1  0.62042533  0.62847348  -0.00305694  1
  V  V60  1  0.49820311  0.76053931  0.25137944  1
  V  V61  1  0.62708494  0.86995338  0.75745754  1
  V  V62  1  0.24533467  0.74804484  -0.01082236  1
  V  V63  1  0.49665173  0.62284802  0.62686350  1
  V  V64  1  0.50687018  0.74827829  0.75967175  1
  V  V65  1  0.11919577  0.62461907  0.50609563  1
  V  V66  1  0.24885467  -0.00022288  0.74639556  1
  V  V67  1  -0.00176259  0.37832512  0.88710872  1
  V  V68  1  0.74525262  0.87495222  0.12788847  1
  V  V69  1  0.49940636  0.50383799  0.00605858  1
  V  V70  1  0.76101030  0.37638225  0.13059727  1
  V  V71  1  -0.00503016  0.25182388  0.24769589  1
  V  V72  1  0.87530327  0.49825129  0.88943106  1
  V  V73  1  0.88796512  0.62551432  0.74676950  1
  V  V74  1  0.75469890  0.87128421  0.62868917  1
  V  V75  1  0.75752981  -0.00281510  0.25361543  1
  V  V76  1  0.36461366  0.50018897  0.87616779  1
  V  V77  1  0.88295823  0.00347363  0.86737630  1
  V  V78  1  -0.00194221  0.50335985  0.50316425  1
  V  V79  1  0.86620422  0.61831900  0.25129058  1
  V  V80  1  0.37661375  -0.00020475  0.87022201  1
  V  V81  1  0.12838723  0.86053579  0.74927582  1
  V  V82  1  0.11496867  0.12454120  0.50200404  1
  V  V83  1  0.62474757  0.00122966  0.12383788  1
  V  V84  1  0.74071022  0.24641065  0.50185276  1
  Zn  Zn85  1  0.74151090  0.61759947  0.36655196  1
  Zn  Zn86  1  0.74641585  0.62827531  0.87275288  1
  Zn  Zn87  1  0.58690670  0.91827312  0.29613936  1
  Zn  Zn88  1  0.36994692  0.49564945  0.37926166  1
  Zn  Zn89  1  0.62980911  0.12754439  -0.00033356  1
  Zn  Zn90  1  0.24980245  0.38315431  0.62165011  1
  Zn  Zn91  1  0.23962608  0.62374858  0.86905978  1
  Zn  Zn92  1  0.62294550  0.36133603  0.24829271  1
  Zn  Zn93  1  0.50251858  0.24882314  0.74867164  1
  Zn  Zn94  1  0.50148243  -0.00860976  0.47172064  1
  Zn  Zn95  1  0.24771281  0.62387072  0.37429842  1
  Zn  Zn96  1  -0.00190962  0.37502894  0.37547084  1
  Zn  Zn97  1  0.86716895  0.49531813  0.37390086  1
  Zn  Zn98  1  0.25096372  0.25652303  0.49558828  1
  Zn  Zn99  1  -0.00335011  0.11937948  0.63246186  1
  Zn  Zn100  1  0.25464423  0.13279370  0.87621582  1
  Zn  Zn101  1  0.25104787  -0.00298898  0.25166486  1
  Zn  Zn102  1  0.62331819  0.24924757  0.37200081  1
  Zn  Zn103  1  0.37695097  0.87690523  0.47604053  1
  Zn  Zn104  1  0.50553362  0.87220237  0.87677419  1
  Zn  Zn105  1  0.87504769  0.87607105  -0.00247727  1
  Zn  Zn106  1  0.12508586  0.24863131  0.37702807  1
  Zn  Zn107  1  0.18663337  0.18797184  0.18859533  1
  Zn  Zn108  1  0.19092365  0.18664997  0.68682212  1
  Zn  Zn109  1  0.18739788  0.68679663  0.18397008  1
  Zn  Zn110  1  0.18552091  0.68136990  0.68244648  1
  Zn  Zn111  1  0.69305626  0.19168860  0.18842303  1
  Zn  Zn112  1  0.68702879  0.18640717  0.68915790  1
  Zn  Zn113  1  0.68060950  0.68830979  0.18300052  1
  Zn  Zn114  1  0.69010265  0.68622029  0.68655841  1
  Zn  Zn115  1  0.31272399  0.30873568  0.31409533  1
  Zn  Zn116  1  0.31000663  0.31578644  0.79932641  1
  Zn  Zn117  1  0.30381505  0.80521467  0.30707880  1
  Zn  Zn118  1  0.31546428  0.81411008  0.80741642  1
  Zn  Zn119  1  0.81081198  0.30834561  0.31231738  1
  Zn  Zn120  1  0.81757060  0.31637224  0.81185384  1
  Zn  Zn121  1  0.81065740  0.80927271  0.31492322  1
  Zn  Zn122  1  0.81906509  0.81300052  0.81170088  1
  Zn  Zn123  1  0.18930668  0.43539687  0.44254317  1
  Zn  Zn124  1  0.18403525  0.43627811  0.93869700  1
  Zn  Zn125  1  0.18533022  0.93965224  0.43741778  1
  Zn  Zn126  1  0.18720999  0.93984352  0.93174848  1
  Zn  Zn127  1  0.68295977  0.43749184  0.43341885  1
  Zn  Zn128  1  0.68902905  0.43873389  0.94119048  1
  Zn  Zn129  1  0.69799188  0.93552387  0.44088899  1
  Zn  Zn130  1  0.69064000  0.93949434  0.93748830  1
  Zn  Zn131  1  0.31512436  0.06073872  0.06394194  1
  Zn  Zn132  1  0.31008018  0.06247073  0.56063634  1
  Zn  Zn133  1  0.30801881  0.56053871  0.06228119  1
  Zn  Zn134  1  0.30641997  0.57041493  0.56214871  1
  Zn  Zn135  1  0.81456792  0.06334655  0.05882495  1
  Zn  Zn136  1  0.81492188  0.06313780  0.56410161  1
  Zn  Zn137  1  0.80395928  0.56543876  0.06633466  1
  Zn  Zn138  1  0.81214630  0.56092001  0.56312688  1
  Zn  Zn139  1  0.43865458  0.43655469  0.18916193  1
  Zn  Zn140  1  0.41112434  0.42506309  0.69933126  1
  Zn  Zn141  1  0.42437322  0.94809887  0.30515743  1
  Zn  Zn142  1  0.43589637  0.93824505  0.61653752  1
  Zn  Zn143  1  0.93830601  0.43913253  0.18501806  1
  Zn  Zn144  1  0.94162708  0.43462428  0.68699844  1
  Zn  Zn145  1  0.93601114  0.93877989  0.18476549  1
  Zn  Zn146  1  0.94216449  0.93200417  0.68962164  1
  Zn  Zn147  1  0.06684881  0.06401226  0.31078265  1
  Zn  Zn148  1  0.06585998  0.07074743  0.80908757  1
  Zn  Zn149  1  0.05517238  0.56097144  0.31540868  1
  Zn  Zn150  1  0.05796642  0.55795889  0.81450468  1
  Zn  Zn151  1  0.56945684  0.08557625  0.30398496  1
  Zn  Zn152  1  0.56606044  0.06038454  0.80939009  1
  Zn  Zn153  1  0.55722567  0.56288778  0.31544109  1
  Zn  Zn154  1  0.55884544  0.56103605  0.81666860  1
  Zn  Zn155  1  0.43817577  0.17993346  0.43478646  1
  Zn  Zn156  1  0.43874874  0.18783285  0.93975880  1
  Zn  Zn157  1  0.43375410  0.68815850  0.43585109  1
  Zn  Zn158  1  0.43675150  0.68467184  0.93818446  1
  Zn  Zn159  1  0.93727349  0.18916186  0.43745963  1
  Zn  Zn160  1  0.94346912  0.18880076  0.93151347  1
  Zn  Zn161  1  0.93794519  0.68923078  0.43632679  1
  Zn  Zn162  1  0.92976381  0.68308951  0.93885685  1
  Zn  Zn163  1  0.06117577  0.30958937  0.06255694  1
  Zn  Zn164  1  0.06637019  0.31529598  0.56227462  1
  Zn  Zn165  1  0.06060560  0.81065113  0.05756664  1
  Zn  Zn166  1  0.06363387  0.81754861  0.56328531  1
  Zn  Zn167  1  0.56620578  0.31633165  0.06217896  1
  Zn  Zn168  1  0.55483863  0.31458316  0.56156317  1
  Zn  Zn169  1  0.56054257  0.81402036  0.06628762  1
  Zn  Zn170  1  0.56476863  0.81148207  0.56674902  1
  O  O171  1  0.11731135  0.12167678  0.11766194  1
  O  O172  1  0.12342055  0.11796009  0.62005793  1
  O  O173  1  0.11620195  0.61798171  0.11925655  1
  O  O174  1  0.11974327  0.61895816  0.61177261  1
  O  O175  1  0.62154273  0.12124699  0.12202650  1
  O  O176  1  0.61949350  0.11449858  0.63025781  1
  O  O177  1  0.63158820  0.60861664  0.11390955  1
  O  O178  1  0.61574037  0.61980334  0.62131620  1
  O  O179  1  0.38706328  0.37695116  0.37039475  1
  O  O180  1  0.37907779  0.37992658  0.88302967  1
  O  O181  1  0.36759695  0.87481116  0.36451597  1
  O  O182  1  0.37857142  0.88366066  0.87908653  1
  O  O183  1  0.87349905  0.37212391  0.38830252  1
  O  O184  1  0.88590493  0.38455851  0.87461126  1
  O  O185  1  0.88380524  0.86601683  0.38578682  1
  O  O186  1  0.89017802  0.88298101  0.87396547  1
  O  O187  1  0.24357252  0.01339889  0.37018419  1
  O  O188  1  0.25863081  0.00516152  0.86700569  1
  O  O189  1  0.24836735  0.49975728  0.36107540  1
  O  O190  1  0.26131201  0.50081179  0.87981035  1
  O  O191  1  0.74902692  0.00569667  0.36565565  1
  O  O192  1  0.75963118  0.00875060  0.87023170  1
  O  O193  1  0.75476535  0.50780791  0.38559722  1
  O  O194  1  0.75807686  0.49794542  0.86700392  1
  O  O195  1  0.24233828  0.49119602  0.13461813  1
  O  O196  1  0.22891662  0.50728188  0.61676301  1
  O  O197  1  0.24236445  0.98915158  0.12035945  1
  O  O198  1  0.24127151  1.00367242  0.64031773  1
  O  O199  1  0.73744049  0.48647436  0.11870989  1
  O  O200  1  0.74244306  0.49395867  0.63192241  1
  O  O201  1  0.74447836  0.99563276  0.12748446  1
  O  O202  1  0.74790882  0.99544212  0.63404361  1
  O  O203  1  0.00550855  0.36849528  0.24817393  1
  O  O204  1  -0.00400538  0.36185633  0.76054629  1
  O  O205  1  0.00197601  0.86857140  0.25283854  1
  O  O206  1  0.01244563  0.87333079  0.76303179  1
  O  O207  1  0.50230113  0.37942762  0.26536881  1
  O  O208  1  0.50440720  0.37295526  0.75987672  1
  O  O209  1  0.49795716  0.86339031  0.24450913  1
  O  O210  1  0.51374674  0.86121937  0.74985721  1
  O  O211  1  0.49019495  0.12656921  0.23313473  1
  O  O212  1  0.49125389  0.12588964  0.74944993  1
  O  O213  1  0.48622467  0.63139207  0.25024671  1
  O  O214  1  0.49807729  0.63105897  0.74416547  1
  O  O215  1  0.99509667  0.13010535  0.24336255  1
  O  O216  1  1.00039955  0.14733152  0.75200458  1
  O  O217  1  0.99262796  0.63084251  0.23924507  1
  O  O218  1  0.98637201  0.62408368  0.75184259  1
  O  O219  1  0.37536934  0.26178401  0.00711739  1
  O  O220  1  0.37315814  0.23330125  0.51354150  1
  O  O221  1  0.36914687  0.75300207  0.00547995  1
  O  O222  1  0.36665791  0.75234526  0.50882834  1
  O  O223  1  0.86601461  0.24968100  -0.00472361  1
  O  O224  1  0.87035018  0.25692651  0.50938626  1
  O  O225  1  0.86345478  0.75090378  0.00750083  1
  O  O226  1  0.86837030  0.75033599  0.50799739  1
  O  O227  1  0.12727501  0.23988140  0.49993904  1
  O  O228  1  0.12279293  0.24434165  0.98919014  1
  O  O229  1  0.12618884  0.74501687  0.49451145  1
  O  O230  1  0.13358796  0.73860610  1.00515064  1
  O  O231  1  0.63878656  0.25392211  0.50296700  1
  O  O232  1  0.63380006  0.25097924  0.98808536  1
  O  O233  1  0.63095566  0.74371652  0.49667050  1
  O  O234  1  0.63015113  0.74082196  1.00866192  1
  O  O235  1  0.49161146  0.24453631  0.11596792  1
  O  O236  1  0.50081846  0.23358580  0.62563861  1
  O  O237  1  0.48538667  0.75277294  0.13112584  1
  O  O238  1  0.49326298  0.73709784  0.63290806  1
  O  O239  1  1.00445772  0.24101352  0.13598965  1
  O  O240  1  0.99534436  0.25377801  0.63552284  1
  O  O241  1  0.99213466  0.74496515  0.12885439  1
  O  O242  1  0.98882537  0.75112181  0.62192281  1
  O  O243  1  0.00278516  0.25200429  0.36128780  1
  O  O244  1  0.00820284  0.25998734  0.86706104  1
  O  O245  1  0.00833761  0.75600538  0.36838065  1
  O  O246  1  -0.00450368  0.76111572  0.88065017  1
  O  O247  1  0.50064640  0.26302585  0.38559904  1
  O  O248  1  0.51068171  0.25578096  0.87654351  1
  O  O249  1  0.50682793  0.74794438  0.36625767  1
  O  O250  1  0.49806952  0.74943236  0.86366145  1
  O  O251  1  0.24141754  0.12681451  0.49286899  1
  O  O252  1  0.23915535  0.12372806  1.00015573  1
  O  O253  1  0.23808018  0.63678075  0.49389755  1
  O  O254  1  0.23909668  0.63152370  0.99946559  1
  O  O255  1  0.75936240  0.13290044  0.49251038  1
  O  O256  1  0.75168353  0.13872181  0.99358822  1
  O  O257  1  0.74248581  0.63513638  0.50591460  1
  O  O258  1  0.74079474  0.63590145  0.99841523  1
  O  O259  1  0.25910345  0.38266014  0.01060218  1
  O  O260  1  0.25017397  0.37011475  0.50742864  1
  O  O261  1  0.25107193  0.86745899  0.00159302  1
  O  O262  1  0.24682881  0.86079645  0.49568215  1
  O  O263  1  0.74887137  0.36344784  0.00711097  1
  O  O264  1  0.75549167  0.36697409  0.50735208  1
  O  O265  1  0.75107717  0.86955551  0.00729179  1
  O  O266  1  0.75917434  0.86095169  0.50662988  1
  O  O267  1  0.12803345  0.49487852  0.24138950  1
  O  O268  1  0.12225542  0.50876626  0.73527042  1
  O  O269  1  0.12546715  0.99296928  0.23765967  1
  O  O270  1  0.13366748  0.99740448  0.74768191  1
  O  O271  1  0.61886863  0.50417998  0.23532788  1
  O  O272  1  0.63078855  0.49605264  0.74674218  1
  O  O273  1  0.63976531  1.00534498  0.23978089  1
  O  O274  1  0.63825751  0.99165095  0.74624818  1
  O  O275  1  0.36857874  0.01787872  0.23426821  1
  O  O276  1  0.36936034  0.00513961  0.76115385  1
  O  O277  1  0.36569869  0.50699977  0.24652444  1
  O  O278  1  0.39400084  0.51611775  0.76750629  1
  O  O279  1  0.86499886  0.00891704  0.24367078  1
  O  O280  1  0.86934734  -0.00520141  0.75948251  1
  O  O281  1  0.87839396  0.51545466  0.25000859  1
  O  O282  1  0.86952040  0.50827781  0.75154197  1
  O  O283  1  0.12286431  0.37610641  0.36146063  1
  O  O284  1  0.11287851  0.37180663  0.87733639  1
  O  O285  1  0.11684625  0.86869330  0.36836068  1
  O  O286  1  0.11334236  0.87678801  0.86572499  1
  O  O287  1  0.61236543  0.37261054  0.37096396  1
  O  O288  1  0.62122377  0.36989433  0.87181695  1
  O  O289  1  0.63571167  0.85796836  0.37895912  1
  O  O290  1  0.62653715  0.88021283  0.86220430  1
  O  O291  1  0.38180687  0.13453455  0.12464353  1
  O  O292  1  0.38719384  0.12796544  0.63229487  1
  O  O293  1  0.36646180  0.63405713  0.13145415  1
  O  O294  1  0.38035864  0.62961613  0.63468487  1
  O  O295  1  0.88840578  0.11938573  0.13111111  1
  O  O296  1  0.87914724  0.13825676  0.62208603  1
  O  O297  1  0.87895394  0.62922692  0.13241877  1
  O  O298  1  0.87126449  0.62921292  0.63824110  1
  O  O299  1  0.25485155  0.26205823  0.12626746  1
  O  O300  1  0.26885145  0.25027506  0.62766620  1
  O  O301  1  0.25497628  0.75501966  0.11521437  1
  O  O302  1  0.25870748  0.74112555  0.61526967  1
  O  O303  1  0.74974660  0.26101231  0.11104752  1
  O  O304  1  0.75740914  0.25354970  0.62283398  1
  O  O305  1  0.75090993  0.75929797  0.11941254  1
  O  O306  1  0.75731337  0.75400579  0.61840005  1
  O  O307  1  0.24622179  0.23652363  0.37395687  1
  O  O308  1  0.23876820  0.25550439  0.86571999  1
  O  O309  1  0.23273550  0.74696692  0.37838076  1
  O  O310  1  0.25608440  0.74743482  0.88653814  1
  O  O311  1  0.75233765  0.24119708  0.38703807  1
  O  O312  1  0.74923128  0.24696923  0.88150327  1
  O  O313  1  0.74345259  0.74102363  0.38389379  1
  O  O314  1  0.75375690  0.75252124  0.88749679  1
  O  O315  1  0.00757359  0.12294835  0.00557230  1
  O  O316  1  0.01126715  0.12698868  0.50258404  1
  O  O317  1  0.00412193  0.63181078  0.01249630  1
  O  O318  1  0.00466076  0.61595354  0.49512275  1
  O  O319  1  0.50275763  0.11895316  0.00953859  1
  O  O320  1  0.50158518  0.11164435  0.50705279  1
  O  O321  1  0.50500091  0.61534415  0.00034037  1
  O  O322  1  0.50317967  0.62200104  0.50843850  1
  O  O323  1  0.50427202  0.38698536  0.48792842  1
  O  O324  1  0.49145003  0.38117061  0.99536922  1
  O  O325  1  0.49057975  0.88220171  0.52174923  1
  O  O326  1  0.49371489  0.88239028  0.99896359  1
  O  O327  1  0.99145623  0.37992662  0.49849787  1
  O  O328  1  0.99842310  0.36911167  0.98672532  1
  O  O329  1  0.99269330  0.87084824  0.48939391  1
  O  O330  1  1.00192504  0.88275068  0.98639608  1
  O  O331  1  0.49533695  0.49333852  0.38452315  1
  O  O332  1  0.49369627  0.49314355  0.88882859  1
  O  O333  1  0.51678041  0.99522287  0.35725299  1
  O  O334  1  0.49387049  0.99950797  0.88022751  1
  O  O335  1  0.99051147  0.49538000  0.38598711  1
  O  O336  1  0.99186180  0.48631901  0.87428262  1
  O  O337  1  1.00166740  0.98715025  0.36708241  1
  O  O338  1  0.99576996  1.00132111  0.87554302  1
  O  O339  1  0.00603357  0.00636942  0.11605592  1
  O  O340  1  0.01444938  0.00278492  0.63664143  1
  O  O341  1  0.00830052  0.50937079  0.12742382  1
  O  O342  1  0.00966500  0.49589108  0.61309197  1
  O  O343  1  0.51738997  0.00904276  0.11864850  1
  O  O344  1  0.51710184  0.01159047  0.64188548  1
  O  O345  1  0.51073924  0.49216283  0.11501341  1
  O  O346  1  0.49990990  0.50992154  0.62106333  1
  O  O347  1  0.24240637  0.38041559  0.24318662  1
  O  O348  1  0.29936373  0.39468810  0.72339911  1
  O  O349  1  0.23926761  0.87381463  0.23607087  1
  O  O350  1  0.23491953  0.88345368  0.76077861  1
  O  O351  1  0.74832118  0.36806904  0.23441289  1
  O  O352  1  0.74615431  0.38566043  0.74530674  1
  O  O353  1  0.75563336  0.88314576  0.24196940  1
  O  O354  1  0.74887156  0.88246923  0.74791217  1
  O  O355  1  0.25545194  0.12337191  0.25467738  1
  O  O356  1  0.26397244  0.11843265  0.75183337  1
  O  O357  1  0.25475384  0.61684154  0.24900608  1
  O  O358  1  0.26143420  0.62748842  0.75205017  1
  O  O359  1  0.76083259  0.11885996  0.25564035  1
  O  O360  1  0.74980848  0.11380708  0.75763943  1
  O  O361  1  0.76326415  0.63093938  0.24536581  1
  O  O362  1  0.75198990  0.61234445  0.75186478  1
  O  O363  1  0.36816560  0.12608352  0.36205736  1
  O  O364  1  0.37507861  0.11974779  0.86979783  1
  O  O365  1  0.36888634  0.62204036  0.36351509  1
  O  O366  1  0.37077418  0.61699486  0.87115838  1
  O  O367  1  0.86961479  0.12610959  0.36459613  1
  O  O368  1  0.86670968  0.11946236  0.87575534  1
  O  O369  1  0.87565081  0.62946451  0.35701648  1
  O  O370  1  0.87087147  0.61755196  0.86298083  1
  O  O371  1  0.12952729  0.38050623  0.13079917  1
  O  O372  1  0.12570901  0.39035486  0.62758869  1
  O  O373  1  0.13091805  0.87834663  0.12444311  1
  O  O374  1  0.12090355  0.88153606  0.64149238  1
  O  O375  1  0.63198949  0.38540654  0.12722562  1
  O  O376  1  0.62737064  0.37952340  0.63234524  1
  O  O377  1  0.63626331  0.88456674  0.12331916  1
  O  O378  1  0.63627749  0.87994636  0.63710180  1
  O  O379  1  0.11766382  0.26002622  0.24918420  1
  O  O380  1  0.11763037  0.25139570  0.75497574  1
  O  O381  1  0.11837783  0.75390747  0.25491195  1
  O  O382  1  0.13253095  0.76168817  0.74736108  1
  O  O383  1  0.62470257  0.24558066  0.25602843  1
  O  O384  1  0.62785890  0.25720614  0.76271877  1
  O  O385  1  0.61157403  0.74304533  0.25764393  1
  O  O386  1  0.61974929  0.75585333  0.74590385  1
  O  O387  1  0.37012845  0.24160099  0.23447836  1
  O  O388  1  0.38154173  0.23900154  0.74033080  1
  O  O389  1  0.37823112  0.74131676  0.24076847  1
  O  O390  1  0.38438257  0.73854932  0.74888680  1
  O  O391  1  0.88271138  0.23963237  0.24916025  1
  O  O392  1  0.88381824  0.25536950  0.74008044  1
  O  O393  1  0.87917196  0.74283525  0.24273721  1
  O  O394  1  0.86863377  0.73390330  0.74300180  1
  O  O395  1  0.38465470  0.51014122  0.50067105  1
  O  O396  1  0.38087945  0.49282643  0.99722516  1
  O  O397  1  0.38365809  0.98775186  0.52071706  1
  O  O398  1  0.38003006  0.99564286  0.99055462  1
  O  O399  1  0.88133989  0.49010091  0.50515692  1
  O  O400  1  0.86924952  0.51240739  0.98785997  1
  O  O401  1  0.87041225  0.98186458  0.50665410  1
  O  O402  1  0.88239550  0.99926765  0.98647021  1
  O  O403  1  0.12009045  0.00912780  0.00131476  1
  O  O404  1  0.13088063  0.00670933  0.51491322  1
  O  O405  1  0.12966848  0.50767489  0.01374968  1
  O  O406  1  0.11507099  0.50895327  0.49878000  1
  O  O407  1  0.62285236  0.00471936  0.00516003  1
  O  O408  1  0.62710603  -0.00975122  0.51519105  1
  O  O409  1  0.61663820  0.50416571  0.00713060  1
  O  O410  1  0.61363620  0.50694492  0.50848110  1
  O  O411  1  0.36875070  0.36943840  0.12042872  1
  O  O412  1  0.40448365  0.34871547  0.61235210  1
  O  O413  1  0.35860717  0.86424679  0.11495707  1
  O  O414  1  0.36727779  0.85540515  0.64900706  1
  O  O415  1  0.86002459  0.38301085  0.12416974  1
  O  O416  1  0.86912535  0.36762180  0.61709804  1
  O  O417  1  0.86463617  0.87130731  0.12025170  1
  O  O418  1  0.87327176  0.86471219  0.62194527  1
  O  O419  1  0.13027977  0.12514783  0.38397934  1
  O  O420  1  0.12909783  0.13792291  0.88260512  1
  O  O421  1  0.12094420  0.63328633  0.38170808  1
  O  O422  1  0.12162793  0.61706998  0.88922747  1
  O  O423  1  0.64240812  0.12825877  0.37915102  1
  O  O424  1  0.63908189  0.13281720  0.87455275  1
  O  O425  1  0.62235092  0.63400316  0.38291357  1
  O  O426  1  0.62762818  0.61791942  0.89112263  1
