# generated using pymatgen
data_V85Zn86O256
_symmetry_space_group_name_H-M   'P 1'
_cell_length_a   16.91868506
_cell_length_b   16.92872624
_cell_length_c   16.93918294
_cell_angle_alpha   90.01261667
_cell_angle_beta   89.97360674
_cell_angle_gamma   90.02939812
_symmetry_Int_Tables_number   1
_chemical_formula_structural   V85Zn86O256
_chemical_formula_sum   'V85 Zn86 O256'
_cell_volume   4851.58039722
_cell_formula_units_Z   1
loop_
 _symmetry_equiv_pos_site_id
 _symmetry_equiv_pos_as_xyz
  1  'x, y, z'
loop_
 _atom_site_type_symbol
 _atom_site_label
 _atom_site_symmetry_multiplicity
 _atom_site_fract_x
 _atom_site_fract_y
 _atom_site_fract_z
 _atom_site_occupancy
  V  V0  1  0.12516655  0.87884723  0.74643890  1
  V  V1  1  -0.01599555  0.74475704  0.74248979  1
  V  V2  1  0.75166932  -0.00240067  0.25731092  1
  V  V3  1  0.25452173  0.00852623  0.25739892  1
  V  V4  1  0.88511532  0.37751138  0.50573486  1
  V  V5  1  0.12261376  0.75044765  0.87099385  1
  V  V6  1  0.75040829  0.00113413  0.75964918  1
  V  V7  1  0.62287880  0.00097071  0.12965059  1
  V  V8  1  0.62332584  0.24850402  0.37474220  1
  V  V9  1  0.11755742  0.62688869  0.00065123  1
  V  V10  1  0.49708052  0.12905612  0.13272325  1
  V  V11  1  -0.01172926  0.62247201  0.61525832  1
  V  V12  1  0.37251123  0.87535581  0.00143965  1
  V  V13  1  0.37476193  0.25936078  0.61867041  1
  V  V14  1  0.36756454  0.12277635  0.74714060  1
  V  V15  1  0.25562265  0.50574346  0.24648021  1
  V  V16  1  0.49119214  -0.00545251  0.50272511  1
  V  V17  1  0.49078841  0.62548016  0.13103456  1
  V  V18  1  0.12234874  0.37121710  0.24495987  1
  V  V19  1  0.75474840  0.74803423  0.00629155  1
  V  V20  1  0.49654299  0.87128154  0.87574616  1
  V  V21  1  0.37297402  0.49874442  0.37820042  1
  V  V22  1  0.49966643  0.12447536  0.62635638  1
  V  V23  1  0.48852210  0.49562928  0.00259701  1
  V  V24  1  0.62808461  0.50342775  0.61777434  1
  V  V25  1  0.25241780  0.25561733  0.49316239  1
  V  V26  1  -0.00466771  0.87953905  0.87162491  1
  V  V27  1  0.87307754  0.37291403  0.00094047  1
  V  V28  1  0.86478659  0.85767206  0.50108613  1
  V  V29  1  0.25897787  0.25172344  -0.00464330  1
  V  V30  1  -0.01160186  -0.00109044  0.49567983  1
  V  V31  1  0.63333667  0.12194209  -0.00250864  1
  V  V32  1  0.12924369  0.37796940  0.74578267  1
  V  V33  1  0.49954350  0.24967888  0.74971901  1
  V  V34  1  0.87930453  0.24574215  0.12819831  1
  V  V35  1  0.26031492  0.75284142  0.49940074  1
  V  V36  1  0.75283653  0.62415744  0.87454660  1
  V  V37  1  0.87804695  0.62789870  0.23625953  1
  V  V38  1  -0.00360860  0.74749780  0.23596815  1
  V  V39  1  0.75020040  0.62537757  0.37725292  1
  V  V40  1  0.00101116  0.37611698  0.87368568  1
  V  V41  1  0.12544894  0.24530118  0.36868601  1
  V  V42  1  0.24432738  0.12322541  0.87332396  1
  V  V43  1  0.11759200  0.50476023  0.12422801  1
  V  V44  1  0.25671528  0.50662558  0.74515429  1
  V  V45  1  0.25652381  0.63082884  0.36989813  1
  V  V46  1  0.87573147  0.87569548  0.00571484  1
  V  V47  1  0.37723043  0.74717664  0.64112359  1
  V  V48  1  0.48999867  0.87240604  0.38281253  1
  V  V49  1  0.25627422  0.37872759  0.11564896  1
  V  V50  1  0.00504945  0.00917682  0.01171551  1
  V  V51  1  0.75039843  0.87046489  0.12895614  1
  V  V52  1  0.61852502  0.74801478  0.87858910  1
  V  V53  1  0.63158396  0.24521487  0.87474134  1
  V  V54  1  0.62649447  0.37714670  0.74764459  1
  V  V55  1  0.62345793  0.49862706  0.12438497  1
  V  V56  1  0.75853880  0.25130068  0.50679022  1
  V  V57  1  0.00005275  0.25128766  0.73950014  1
  V  V58  1  0.61966121  0.87237835  0.75211474  1
  V  V59  1  0.25755260  0.62724434  0.87035037  1
  V  V60  1  0.87469597  0.50287391  0.86967723  1
  V  V61  1  0.24410248  0.88583058  0.12413283  1
  V  V62  1  0.49727903  0.00165743  0.00262601  1
  V  V63  1  0.37997192  0.25173852  0.13744804  1
  V  V64  1  0.87976166  0.12383407  0.25063393  1
  V  V65  1  0.12662422  0.00121597  0.62468394  1
  V  V66  1  0.62181063  0.36856331  0.25141324  1
  V  V67  1  0.00242776  0.37929359  0.37226736  1
  V  V68  1  0.49863391  0.50719436  0.49976675  1
  V  V69  1  0.75671996  0.12180509  0.37788366  1
  V  V70  1  0.12222485  0.87982702  0.24691397  1
  V  V71  1  0.86806935  0.13399101  0.75026169  1
  V  V72  1  0.62073125  0.87353509  0.25462170  1
  V  V73  1  0.75275685  0.49798180  0.25043987  1
  V  V74  1  0.49606113  0.37281605  0.38017385  1
  V  V75  1  0.62566658  0.74485717  0.38188164  1
  V  V76  1  0.49441140  0.37332856  0.87960632  1
  V  V77  1  0.62732920  0.12467146  0.50236968  1
  V  V78  1  0.36923042  0.00010797  0.87071996  1
  V  V79  1  0.13084770  0.12272455  0.49531366  1
  V  V80  1  0.62896348  -0.00273729  0.62682008  1
  V  V81  1  0.25439442  0.87763601  0.62298405  1
  V  V82  1  0.49844017  0.62673244  0.63751231  1
  V  V83  1  0.12077627  0.75155748  0.37706089  1
  V  V84  1  0.24756233  0.75243343  0.00115218  1
  Zn  Zn85  1  0.12510092  0.12683241  0.01722923  1
  Zn  Zn86  1  0.12162153  0.62122133  0.49932663  1
  Zn  Zn87  1  0.49293653  0.74277109  0.25629467  1
  Zn  Zn88  1  0.37563378  0.50013871  0.87260408  1
  Zn  Zn89  1  0.36658159  0.00909000  0.37795190  1
  Zn  Zn90  1  0.75471220  0.24219517  -0.00220582  1
  Zn  Zn91  1  0.87039233  0.00752186  0.87907449  1
  Zn  Zn92  1  -0.00359336  0.50530242  0.00188720  1
  Zn  Zn93  1  -0.01073767  0.87449173  0.37289121  1
  Zn  Zn94  1  0.62401340  0.62332247  0.00319189  1
  Zn  Zn95  1  0.74909416  0.36955387  0.12528473  1
  Zn  Zn96  1  0.75302199  0.50278594  0.74567034  1
  Zn  Zn97  1  0.88445162  0.50236804  0.37332639  1
  Zn  Zn98  1  0.69392888  0.68630142  0.54384801  1
  Zn  Zn99  1  0.75562703  0.85596292  0.62838308  1
  Zn  Zn100  1  0.12359189  0.50547012  0.61767158  1
  Zn  Zn101  1  0.12552942  0.24953803  0.87471007  1
  Zn  Zn102  1  0.04340889  0.18157005  0.18587237  1
  Zn  Zn103  1  0.75532498  0.37380109  0.62602386  1
  Zn  Zn104  1  0.25311537  0.38279454  0.61686486  1
  Zn  Zn105  1  0.36769674  0.74824247  0.13299427  1
  Zn  Zn106  1  -0.00338793  0.12746033  0.62216102  1
  Zn  Zn107  1  0.20573593  0.18810232  0.18750255  1
  Zn  Zn108  1  0.18724569  0.19052272  0.68360757  1
  Zn  Zn109  1  0.18472223  0.69113509  0.18683712  1
  Zn  Zn110  1  0.18152597  0.68887405  0.68505458  1
  Zn  Zn111  1  0.69095105  0.18648699  0.18664793  1
  Zn  Zn112  1  0.68899460  0.18794635  0.68790700  1
  Zn  Zn113  1  0.68325658  0.68567268  0.19170776  1
  Zn  Zn114  1  0.68127726  0.68524334  0.70323371  1
  Zn  Zn115  1  0.30865863  0.31670648  0.31180134  1
  Zn  Zn116  1  0.31269708  0.31292112  0.80775576  1
  Zn  Zn117  1  0.31344005  0.81646993  0.30914297  1
  Zn  Zn118  1  0.30692111  0.81562033  0.81024622  1
  Zn  Zn119  1  0.81311702  0.30952952  0.31469590  1
  Zn  Zn120  1  0.81236510  0.31338278  0.81278776  1
  Zn  Zn121  1  0.81425945  0.80989118  0.31832333  1
  Zn  Zn122  1  0.80745002  0.81536230  0.81709320  1
  Zn  Zn123  1  0.18449191  0.43890034  0.43644574  1
  Zn  Zn124  1  0.18744943  0.44095773  0.93471281  1
  Zn  Zn125  1  0.18528212  0.93439136  0.43764288  1
  Zn  Zn126  1  0.18308047  0.94093276  0.93558292  1
  Zn  Zn127  1  0.69085852  0.43717200  0.43850907  1
  Zn  Zn128  1  0.68620629  0.43452087  0.93813284  1
  Zn  Zn129  1  0.68610247  0.93491698  0.43927099  1
  Zn  Zn130  1  0.68631544  0.93587065  0.94025446  1
  Zn  Zn131  1  0.31069396  0.06598422  0.06436739  1
  Zn  Zn132  1  0.30864177  0.06586937  0.56308133  1
  Zn  Zn133  1  0.30908004  0.56484344  0.05746749  1
  Zn  Zn134  1  0.31130383  0.56757674  0.55862209  1
  Zn  Zn135  1  0.81465812  0.05883430  0.06802172  1
  Zn  Zn136  1  0.81190589  0.06204556  0.57111151  1
  Zn  Zn137  1  0.81090989  0.55859545  0.06014557  1
  Zn  Zn138  1  0.82045046  0.55602145  0.56161605  1
  Zn  Zn139  1  0.43744598  0.43417737  0.19248054  1
  Zn  Zn140  1  0.43928790  0.43998671  0.68906460  1
  Zn  Zn141  1  0.43489459  0.93397880  0.18920471  1
  Zn  Zn142  1  0.43659900  0.93515004  0.68798937  1
  Zn  Zn143  1  0.93788140  0.43431201  0.18732316  1
  Zn  Zn144  1  0.93970959  0.44112557  0.68684298  1
  Zn  Zn145  1  0.93507474  0.93774327  0.18839988  1
  Zn  Zn146  1  0.93465383  0.93922865  0.68275300  1
  Zn  Zn147  1  0.06676488  0.05581599  0.31755076  1
  Zn  Zn148  1  0.05737404  0.06214216  0.81081590  1
  Zn  Zn149  1  0.06594128  0.56565442  0.30970420  1
  Zn  Zn150  1  0.06511258  0.56379497  0.80844033  1
  Zn  Zn151  1  0.53293490  0.07681201  0.33007596  1
  Zn  Zn152  1  0.55824599  0.06114535  0.81409698  1
  Zn  Zn153  1  0.56418813  0.56002332  0.31114934  1
  Zn  Zn154  1  0.56481428  0.56011929  0.81460438  1
  Zn  Zn155  1  0.43629990  0.18475299  0.43706286  1
  Zn  Zn156  1  0.43902781  0.18703537  0.94037397  1
  Zn  Zn157  1  0.43674139  0.68578055  0.44039172  1
  Zn  Zn158  1  0.43646710  0.68572526  0.94535569  1
  Zn  Zn159  1  0.94306528  0.19073504  0.43527974  1
  Zn  Zn160  1  0.93804959  0.18914155  0.93168387  1
  Zn  Zn161  1  0.93435646  0.68701929  0.43087074  1
  Zn  Zn162  1  0.93598931  0.69115660  0.93577949  1
  Zn  Zn163  1  0.06605484  0.31250950  0.05602015  1
  Zn  Zn164  1  0.06723575  0.31456376  0.55984672  1
  Zn  Zn165  1  0.06258286  0.81695265  0.06097471  1
  Zn  Zn166  1  0.05899735  0.81072673  0.56086554  1
  Zn  Zn167  1  0.56328399  0.31094872  0.06076708  1
  Zn  Zn168  1  0.56280982  0.31514039  0.55926384  1
  Zn  Zn169  1  0.56277750  0.81132213  0.06339938  1
  Zn  Zn170  1  0.55875608  0.81266163  0.56663114  1
  O  O171  1  0.12625873  0.13333544  0.13005320  1
  O  O172  1  0.12313255  0.11680579  0.61843406  1
  O  O173  1  0.13269488  0.61629523  0.11417723  1
  O  O174  1  0.11004447  0.62875020  0.62196583  1
  O  O175  1  0.62126014  0.12070815  0.11557782  1
  O  O176  1  0.61986355  0.11675301  0.62442641  1
  O  O177  1  0.61552600  0.61398765  0.12501954  1
  O  O178  1  0.61780591  0.61817968  0.62355208  1
  O  O179  1  0.38492184  0.38323645  0.36916559  1
  O  O180  1  0.39099568  0.37440651  0.86789041  1
  O  O181  1  0.38830925  0.88290472  0.37511692  1
  O  O182  1  0.37482081  0.88191322  0.87940338  1
  O  O183  1  0.88726663  0.37395540  0.37816747  1
  O  O184  1  0.88169394  0.37887054  0.88165844  1
  O  O185  1  0.87310453  0.87463974  0.39241614  1
  O  O186  1  0.87931975  0.87842636  0.88682214  1
  O  O187  1  0.25065101  -0.00581388  0.36411141  1
  O  O188  1  0.26090764  0.00688392  0.87813878  1
  O  O189  1  0.25643318  0.50667945  0.36637648  1
  O  O190  1  0.25226413  0.51021337  0.86809305  1
  O  O191  1  0.74208683  0.01065041  0.36936529  1
  O  O192  1  0.74718408  -0.00273523  0.86376546  1
  O  O193  1  0.74682724  0.50429272  0.36073373  1
  O  O194  1  0.75605977  0.50672429  0.87889881  1
  O  O195  1  0.24703853  0.49500539  0.12824846  1
  O  O196  1  0.25093449  0.50156957  0.63112234  1
  O  O197  1  0.25223204  0.99124038  0.13314479  1
  O  O198  1  0.23776337  0.99222501  0.61960322  1
  O  O199  1  0.74103430  0.49629460  0.13399315  1
  O  O200  1  0.74245553  0.49693076  0.62583740  1
  O  O201  1  0.74188614  0.99121178  0.13351087  1
  O  O202  1  0.73763281  0.99962464  0.63766367  1
  O  O203  1  0.01539286  0.37618591  0.25257848  1
  O  O204  1  0.00622437  0.37076924  0.75407338  1
  O  O205  1  0.00405388  0.87006770  0.25167907  1
  O  O206  1  0.00162699  0.86903375  0.75416596  1
  O  O207  1  0.51360560  0.38097859  0.26380563  1
  O  O208  1  0.51035191  0.37041585  0.75506388  1
  O  O209  1  0.51102375  0.87919250  0.26077575  1
  O  O210  1  0.51164094  0.88130660  0.75964755  1
  O  O211  1  0.51680924  0.12774178  0.22965684  1
  O  O212  1  0.48972658  0.13005738  0.74586816  1
  O  O213  1  0.50105787  0.62062067  0.23437676  1
  O  O214  1  0.50224944  0.61818560  0.73718242  1
  O  O215  1  0.98503173  0.11674131  0.26110147  1
  O  O216  1  0.99271092  0.13533811  0.74817521  1
  O  O217  1  0.99218422  0.63492792  0.25228203  1
  O  O218  1  1.00130929  0.64172209  0.74927198  1
  O  O219  1  0.36364206  0.24833516  0.00434254  1
  O  O220  1  0.36639506  0.24076773  0.50667084  1
  O  O221  1  0.36449985  0.75807808  0.00361787  1
  O  O222  1  0.36324034  0.75029979  0.50526295  1
  O  O223  1  0.87436409  0.25491250  0.00373661  1
  O  O224  1  0.86963973  0.26164411  0.49334830  1
  O  O225  1  0.86314276  0.75855704  -0.00284787  1
  O  O226  1  0.87325556  0.75868797  0.49963349  1
  O  O227  1  0.13203219  0.24250772  0.49266478  1
  O  O228  1  0.13922678  0.24782723  0.99387802  1
  O  O229  1  0.13274812  0.75020911  0.49084030  1
  O  O230  1  0.12852133  0.74681466  0.99224680  1
  O  O231  1  0.63328810  0.24460977  0.49484279  1
  O  O232  1  0.62688142  0.23999137  0.99248331  1
  O  O233  1  0.61830986  0.75096215  0.48698392  1
  O  O234  1  0.63552256  0.75206565  0.99275163  1
  O  O235  1  0.48665697  0.24617168  0.11819402  1
  O  O236  1  0.49467737  0.24466591  0.62745112  1
  O  O237  1  0.50157328  0.73249328  0.12225414  1
  O  O238  1  0.48596528  0.74331634  0.62358149  1
  O  O239  1  0.98627289  0.25686657  0.12155488  1
  O  O240  1  1.00520773  0.25052943  0.63598625  1
  O  O241  1  1.00419151  0.75291332  0.13667360  1
  O  O242  1  0.99860886  0.74372856  0.63690588  1
  O  O243  1  0.01657988  0.26159765  0.37648210  1
  O  O244  1  0.00244056  0.26296224  0.86488906  1
  O  O245  1  0.00793706  0.75261731  0.36717067  1
  O  O246  1  0.00275099  0.76171730  0.86746941  1
  O  O247  1  0.51452897  0.25961308  0.38465311  1
  O  O248  1  0.50746621  0.25520381  0.87070731  1
  O  O249  1  0.50526719  0.75550911  0.37687783  1
  O  O250  1  0.50709766  0.75680571  0.88758660  1
  O  O251  1  0.23771554  0.13375669  0.50210000  1
  O  O252  1  0.24831677  0.13170876  0.98988815  1
  O  O253  1  0.24779286  0.63673024  0.48855634  1
  O  O254  1  0.23987908  0.63273344  0.99206676  1
  O  O255  1  0.74827754  0.12948087  0.49583259  1
  O  O256  1  0.73744770  0.11937232  1.00214993  1
  O  O257  1  0.75394027  0.61158088  0.48285064  1
  O  O258  1  0.74646618  0.63223370  0.99554033  1
  O  O259  1  0.24724831  0.37120955  0.00878536  1
  O  O260  1  0.24707808  0.36024609  0.49938144  1
  O  O261  1  0.25066608  0.87366385  0.00511277  1
  O  O262  1  0.24437878  0.86756708  0.51367978  1
  O  O263  1  0.76265444  0.37191074  0.00020265  1
  O  O264  1  0.76288911  0.36663531  0.49847918  1
  O  O265  1  0.75656566  0.86918961  0.00603235  1
  O  O266  1  0.76083889  0.87825797  0.50499854  1
  O  O267  1  0.13586753  0.49506804  0.24142449  1
  O  O268  1  0.13672413  0.49392925  0.74760854  1
  O  O269  1  0.13425309  0.98630822  0.25570539  1
  O  O270  1  0.11569744  0.98794874  0.74045748  1
  O  O271  1  0.63070646  0.49175630  0.24059087  1
  O  O272  1  0.62573927  0.49186039  0.73957153  1
  O  O273  1  0.63501709  0.99145816  0.24672043  1
  O  O274  1  0.62845784  0.99530005  0.74674243  1
  O  O275  1  0.35749935  -0.00952300  0.25202505  1
  O  O276  1  0.37929788  0.00946355  0.75848989  1
  O  O277  1  0.36276434  0.49587208  0.25844556  1
  O  O278  1  0.36202591  0.49693531  0.75261029  1
  O  O279  1  0.85995656  0.00557709  0.24648781  1
  O  O280  1  0.86560342  0.00613846  0.75283091  1
  O  O281  1  0.86765444  0.50360384  0.25044693  1
  O  O282  1  0.87022395  0.49014351  0.76551724  1
  O  O283  1  0.12388626  0.36857710  0.36292421  1
  O  O284  1  0.11799352  0.37705476  0.86391048  1
  O  O285  1  0.12403270  0.86333225  0.36679626  1
  O  O286  1  0.11703129  0.87244545  0.86587186  1
  O  O287  1  0.62122347  0.36851138  0.37049909  1
  O  O288  1  0.61674071  0.36815120  0.86769098  1
  O  O289  1  0.62328363  0.86316974  0.36939005  1
  O  O290  1  0.61827059  0.86898200  0.87224104  1
  O  O291  1  0.38195214  0.13974749  0.12165776  1
  O  O292  1  0.37873783  0.13081144  0.63226400  1
  O  O293  1  0.38716753  0.62500947  0.11946005  1
  O  O294  1  0.38098317  0.63920852  0.62248136  1
  O  O295  1  0.87298756  0.13128975  0.13685929  1
  O  O296  1  0.87981511  0.12044293  0.64350098  1
  O  O297  1  0.87050433  0.61984790  0.13673308  1
  O  O298  1  0.88756794  0.62238636  0.62599549  1
  O  O299  1  0.26356589  0.25916368  0.11691806  1
  O  O300  1  0.25893244  0.25296435  0.61539680  1
  O  O301  1  0.24714291  0.76118018  0.11618698  1
  O  O302  1  0.25928701  0.75397676  0.61980592  1
  O  O303  1  0.76217099  0.25055257  0.11993950  1
  O  O304  1  0.74590696  0.25228116  0.61081382  1
  O  O305  1  0.74006149  0.75614963  0.11700674  1
  O  O306  1  0.73589503  0.74505561  0.62754638  1
  O  O307  1  0.23922411  0.25312087  0.37900640  1
  O  O308  1  0.25218771  0.24278622  0.87909465  1
  O  O309  1  0.24674699  0.74738465  0.37992324  1
  O  O310  1  0.24262397  0.74665551  0.87984435  1
  O  O311  1  0.74097337  0.24323033  0.38507377  1
  O  O312  1  0.73539795  0.25228075  0.87592846  1
  O  O313  1  0.73971959  0.73738312  0.37028246  1
  O  O314  1  0.74288514  0.74350075  0.88450527  1
  O  O315  1  0.00134346  0.11262690  -0.00734122  1
  O  O316  1  0.00843077  0.11644422  0.50078986  1
  O  O317  1  0.01311010  0.62639559  -0.00649228  1
  O  O318  1  -0.00208831  0.63243462  0.51142731  1
  O  O319  1  0.50805041  0.11850264  0.00786836  1
  O  O320  1  0.51051441  0.11737617  0.51092634  1
  O  O321  1  0.50333515  0.61335764  0.01070480  1
  O  O322  1  0.49729814  0.61222334  0.50750015  1
  O  O323  1  0.50373686  0.38741256  0.48756130  1
  O  O324  1  0.50587906  0.38287222  0.99123387  1
  O  O325  1  0.50010352  0.88191196  0.49644341  1
  O  O326  1  0.49296892  0.88189895  0.99734765  1
  O  O327  1  0.99151937  0.36963265  0.49140283  1
  O  O328  1  0.99202482  0.37708672  0.98977427  1
  O  O329  1  0.98862268  0.88405057  0.50066488  1
  O  O330  1  0.99314371  0.88165606  0.99239418  1
  O  O331  1  0.49328305  0.49744396  0.38025193  1
  O  O332  1  0.50061909  0.49269115  0.88485746  1
  O  O333  1  0.52182927  0.98136362  0.39414484  1
  O  O334  1  0.48750828  0.99443260  0.88201902  1
  O  O335  1  1.00545771  0.48491797  0.36696112  1
  O  O336  1  0.99447484  0.49151164  0.87376306  1
  O  O337  1  1.00535547  0.99302034  0.39243381  1
  O  O338  1  0.99716275  0.98818991  0.87894695  1
  O  O339  1  -0.00353599  -0.00198575  0.11010358  1
  O  O340  1  0.01108422  0.00022296  0.61315415  1
  O  O341  1  0.01428690  0.49566323  0.12319777  1
  O  O342  1  0.00320528  0.51938137  0.63427563  1
  O  O343  1  0.50235164  0.00658865  0.12176886  1
  O  O344  1  0.50863109  0.00194483  0.62092501  1
  O  O345  1  0.50282686  0.50453164  0.12156076  1
  O  O346  1  0.50347997  0.50611655  0.61784919  1
  O  O347  1  0.24090617  0.38254633  0.23776260  1
  O  O348  1  0.24358293  0.38319661  0.74703281  1
  O  O349  1  0.23979402  0.87891106  0.24091615  1
  O  O350  1  0.23796545  0.87179373  0.73604994  1
  O  O351  1  0.74115261  0.38121213  0.25107945  1
  O  O352  1  0.73758874  0.37420293  0.74794585  1
  O  O353  1  0.74304496  0.87884618  0.25018067  1
  O  O354  1  0.73753666  0.88226507  0.75039623  1
  O  O355  1  0.25223908  0.10727343  0.25281515  1
  O  O356  1  0.26124960  0.13125790  0.75483806  1
  O  O357  1  0.24503112  0.61755524  0.25602648  1
  O  O358  1  0.24270126  0.61978738  0.75850860  1
  O  O359  1  0.75508790  0.11653984  0.25907343  1
  O  O360  1  0.76001981  0.11999788  0.74822477  1
  O  O361  1  0.75553036  0.61693007  0.25495966  1
  O  O362  1  0.74564729  0.61948750  0.77010053  1
  O  O363  1  0.42443672  0.10458107  0.36356875  1
  O  O364  1  0.36757856  0.11922028  0.86811849  1
  O  O365  1  0.36359251  0.61885730  0.37551055  1
  O  O366  1  0.36118565  0.62573319  0.88114952  1
  O  O367  1  0.86225142  0.13295231  0.36997272  1
  O  O368  1  0.87871740  0.12300804  0.85730582  1
  O  O369  1  0.86688857  0.62070571  0.36328354  1
  O  O370  1  0.86683730  0.61474519  0.88424846  1
  O  O371  1  0.13377591  0.38131334  0.12742210  1
  O  O372  1  0.12708113  0.37828364  0.63613823  1
  O  O373  1  0.13216665  0.87410543  0.13310433  1
  O  O374  1  0.12893253  0.88008323  0.62929670  1
  O  O375  1  0.62486178  0.37803024  0.13438405  1
  O  O376  1  0.62471197  0.38234403  0.63243195  1
  O  O377  1  0.62660114  0.87920459  0.13612358  1
  O  O378  1  0.62337220  0.88124018  0.63639161  1
  O  O379  1  0.12850851  0.25545003  0.25263351  1
  O  O380  1  0.11927217  0.25846545  0.75241207  1
  O  O381  1  0.11705702  0.75903713  0.25524599  1
  O  O382  1  0.11550645  0.76281501  0.75374711  1
  O  O383  1  0.63330275  0.25812247  0.26003484  1
  O  O384  1  0.61869122  0.25428738  0.75524753  1
  O  O385  1  0.61709857  0.75769434  0.25871225  1
  O  O386  1  0.62244913  0.75929572  0.76918499  1
  O  O387  1  0.37041630  0.25226815  0.23637733  1
  O  O388  1  0.38120458  0.24307174  0.74091369  1
  O  O389  1  0.38180358  0.75764534  0.24470459  1
  O  O390  1  0.37167672  0.74972999  0.73982833  1
  O  O391  1  0.86994437  0.23817598  0.24213594  1
  O  O392  1  0.88059431  0.24196132  0.75172034  1
  O  O393  1  0.88508800  0.74281060  0.25236208  1
  O  O394  1  0.88609758  0.75639144  0.75567796  1
  O  O395  1  0.37984377  0.50200379  0.48644550  1
  O  O396  1  0.38510275  0.49923896  0.99750011  1
  O  O397  1  0.38774645  1.00596153  0.50192498  1
  O  O398  1  0.37793724  0.99617092  0.99344075  1
  O  O399  1  0.87363804  0.48112404  0.49012642  1
  O  O400  1  0.87777371  0.49091512  0.99245484  1
  O  O401  1  0.88789331  1.00641097  0.50299711  1
  O  O402  1  0.88317265  0.99467979  0.99771746  1
  O  O403  1  0.10940902  0.00349026  -0.00289270  1
  O  O404  1  0.11938043  0.00577983  0.50488822  1
  O  O405  1  0.12418424  0.50919824  0.00637448  1
  O  O406  1  0.12987350  0.50635500  0.50298171  1
  O  O407  1  0.61759332  0.00373845  0.00679301  1
  O  O408  1  0.62320240  0.00439711  0.51284036  1
  O  O409  1  0.61930228  0.49598626  0.01414488  1
  O  O410  1  0.61776125  0.49442301  0.51109658  1
  O  O411  1  0.36951445  0.36576290  0.12739678  1
  O  O412  1  0.37720827  0.36226435  0.62717303  1
  O  O413  1  0.36594578  0.87553228  0.11476253  1
  O  O414  1  0.36674140  0.86336399  0.63059831  1
  O  O415  1  0.87294860  0.36892294  0.11720490  1
  O  O416  1  0.87736722  0.37852715  0.61016642  1
  O  O417  1  0.86762537  0.87803574  0.11333101  1
  O  O418  1  0.87049680  0.88121148  0.60839800  1
  O  O419  1  0.12149440  0.13323026  0.38247926  1
  O  O420  1  0.13884846  0.12318230  0.86812491  1
  O  O421  1  0.13566322  0.63754512  0.37206641  1
  O  O422  1  0.13251324  0.63157281  0.88033325  1
  O  O423  1  0.63002690  0.13277494  0.38182111  1
  O  O424  1  0.61591339  0.13289510  0.88401053  1
  O  O425  1  0.63304960  0.63292420  0.36715002  1
  O  O426  1  0.62880794  0.63197052  0.88169517  1
