# generated using pymatgen
data_V85Zn86O256
_symmetry_space_group_name_H-M   'P 1'
_cell_length_a   16.93729716
_cell_length_b   16.93498141
_cell_length_c   16.93859118
_cell_angle_alpha   90.02985132
_cell_angle_beta   89.93033414
_cell_angle_gamma   89.96981722
_symmetry_Int_Tables_number   1
_chemical_formula_structural   V85Zn86O256
_chemical_formula_sum   'V85 Zn86 O256'
_cell_volume   4858.53882480
_cell_formula_units_Z   1
loop_
 _symmetry_equiv_pos_site_id
 _symmetry_equiv_pos_as_xyz
  1  'x, y, z'
loop_
 _atom_site_type_symbol
 _atom_site_label
 _atom_site_symmetry_multiplicity
 _atom_site_fract_x
 _atom_site_fract_y
 _atom_site_fract_z
 _atom_site_occupancy
  V  V0  1  -0.00141342  0.12551856  0.12403853  1
  V  V1  1  0.86480639  0.85993215  0.51055002  1
  V  V2  1  0.25823164  0.12503588  0.86843464  1
  V  V3  1  0.12730249  -0.00458840  0.62870121  1
  V  V4  1  0.12534612  0.75097107  0.37377146  1
  V  V5  1  0.12449928  0.62889178  0.00054460  1
  V  V6  1  0.00035312  0.50538003  0.00488774  1
  V  V7  1  0.69093447  0.43206826  0.07425297  1
  V  V8  1  0.37547811  0.00010926  0.37439938  1
  V  V9  1  0.25191317  0.37407841  0.62336142  1
  V  V10  1  0.49726169  0.87392875  0.87625797  1
  V  V11  1  0.25167265  0.37650039  0.12553710  1
  V  V12  1  0.24705028  0.75911617  0.00207334  1
  V  V13  1  0.66489069  0.64337841  0.53430425  1
  V  V14  1  0.87097055  0.12564573  0.25120597  1
  V  V15  1  0.12236352  0.86665929  0.75201728  1
  V  V16  1  0.25248306  -0.00789545  0.24386038  1
  V  V17  1  0.87653593  0.37708520  0.00743861  1
  V  V18  1  0.74856614  0.62291833  0.36875097  1
  V  V19  1  0.24989717  0.50166339  0.75299310  1
  V  V20  1  0.51358964  0.00977941  0.49733776  1
  V  V21  1  0.63392489  -0.00408596  0.12380842  1
  V  V22  1  0.75228187  0.12176030  0.87284025  1
  V  V23  1  0.37082799  0.23680663  0.62798726  1
  V  V24  1  0.25973012  -0.00267230  0.74731873  1
  V  V25  1  0.63178785  0.87135955  0.24667175  1
  V  V26  1  0.62920931  0.38304445  0.25386786  1
  V  V27  1  0.61800654  0.49187502  0.62850045  1
  V  V28  1  0.12437591  0.12561942  -0.00088897  1
  V  V29  1  0.87412962  0.26955467  0.61948875  1
  V  V30  1  0.12525250  0.37564817  0.25185717  1
  V  V31  1  0.25438482  0.62712573  0.37193473  1
  V  V32  1  0.37664279  0.12479966  0.24986383  1
  V  V33  1  -0.00011583  0.87336029  0.37596308  1
  V  V34  1  0.12344960  0.12353134  0.49925479  1
  V  V35  1  0.00014416  0.86041777  0.87727957  1
  V  V36  1  -0.00009200  0.74552413  0.24512349  1
  V  V37  1  0.49912116  -0.00056071  0.00225192  1
  V  V38  1  0.36942653  0.75593419  0.62641713  1
  V  V39  1  -0.05590498  0.68422683  0.69098633  1
  V  V40  1  0.75116851  0.49647876  0.74368583  1
  V  V41  1  0.62375379  0.24829441  0.86363009  1
  V  V42  1  0.87742985  0.50661256  0.87310966  1
  V  V43  1  0.12153166  0.50439995  0.62550167  1
  V  V44  1  0.37619088  0.25116632  0.12592625  1
  V  V45  1  0.11887635  0.62872740  0.50280215  1
  V  V46  1  0.12445572  0.25057961  0.87431471  1
  V  V47  1  0.87769116  0.62334275  0.23995986  1
  V  V48  1  0.87780135  -0.00466861  0.87857536  1
  V  V49  1  0.12208959  0.50496479  0.12849722  1
  V  V50  1  0.37884581  0.38121793  -0.00269575  1
  V  V51  1  -0.00319117  0.12493873  0.62451218  1
  V  V52  1  0.37284627  0.88030855  0.50320102  1
  V  V53  1  0.37364022  0.62539001  0.75142803  1
  V  V54  1  0.24908764  0.12470959  0.37325978  1
  V  V55  1  0.12428146  0.24987790  0.37529884  1
  V  V56  1  0.24874453  0.63212690  0.87765497  1
  V  V57  1  0.75131880  0.62855184  0.88037757  1
  V  V58  1  0.74748306  0.76416813  0.00562855  1
  V  V59  1  0.50155479  0.37947707  0.38363021  1
  V  V60  1  0.74741356  0.26924107  0.50303311  1
  V  V61  1  0.50274193  0.25186361  0.25276338  1
  V  V62  1  0.49881100  0.74226034  0.24917722  1
  V  V63  1  0.87404958  0.49549921  0.37600050  1
  V  V64  1  -0.00602212  0.49744682  0.50090005  1
  V  V65  1  -0.00114825  0.25022421  0.25120478  1
  V  V66  1  -0.00300502  0.25279259  0.74967686  1
  V  V67  1  0.36864250  0.74863143  0.13074567  1
  V  V68  1  0.62425781  0.74574028  0.88019262  1
  V  V69  1  0.50081636  0.74841347  0.74977733  1
  V  V70  1  0.51674972  0.12347965  0.62936979  1
  V  V71  1  0.74786373  -0.00736473  0.73785722  1
  V  V72  1  0.49206937  0.61879629  0.61128268  1
  V  V73  1  0.51037226  0.62090051  0.11800594  1
  V  V74  1  0.87558545  0.76706880  0.12064515  1
  V  V75  1  0.74492106  0.12338390  0.38822449  1
  V  V76  1  0.12740536  -0.00602329  0.12265107  1
  V  V77  1  0.24963505  0.75528985  0.50149773  1
  V  V78  1  0.37799979  0.50263206  0.38407064  1
  V  V79  1  0.87448729  -0.00229504  0.37853008  1
  V  V80  1  0.74714540  0.24568450  0.00692899  1
  V  V81  1  0.25058337  0.25091120  -0.00110890  1
  V  V82  1  0.12330609  0.37589117  0.75098409  1
  V  V83  1  0.25859506  0.50390459  0.25013662  1
  V  V84  1  0.62842402  0.74519068  0.37652970  1
  Zn  Zn85  1  0.38131637  0.37595206  0.50542524  1
  Zn  Zn86  1  -0.00037167  -0.00439996  0.50307746  1
  Zn  Zn87  1  -0.00475958  0.37252675  0.37937867  1
  Zn  Zn88  1  0.86832116  0.25456510  0.12958002  1
  Zn  Zn89  1  -0.00376361  -0.00258519  -0.00090428  1
  Zn  Zn90  1  0.51443152  0.50169938  0.00024021  1
  Zn  Zn91  1  0.36831946  0.87829590  0.00542784  1
  Zn  Zn92  1  0.62492461  0.12262608  0.00170286  1
  Zn  Zn93  1  0.75191033  -0.00557752  0.24804006  1
  Zn  Zn94  1  0.50229544  0.12189865  0.12677178  1
  Zn  Zn95  1  0.38087294  0.50217209  0.87660995  1
  Zn  Zn96  1  -0.00124143  0.37576696  0.87644091  1
  Zn  Zn97  1  0.62244626  0.24737216  0.38307442  1
  Zn  Zn98  1  0.63604595  0.87142375  0.74043911  1
  Zn  Zn99  1  0.12848569  0.87196702  0.24527612  1
  Zn  Zn100  1  0.50218013  0.87459328  0.37477804  1
  Zn  Zn101  1  0.75134456  0.49401615  0.24423234  1
  Zn  Zn102  1  0.25123317  0.25103304  0.49755579  1
  Zn  Zn103  1  0.50454000  0.38271899  0.86725730  1
  Zn  Zn104  1  0.87485383  0.12435150  0.74734867  1
  Zn  Zn105  1  0.49394850  0.24857508  0.75121860  1
  Zn  Zn106  1  0.37805586  0.00016668  0.87158198  1
  Zn  Zn107  1  0.18814822  0.18425012  0.18713410  1
  Zn  Zn108  1  0.18665332  0.18524569  0.68828135  1
  Zn  Zn109  1  0.18771312  0.68604890  0.18679060  1
  Zn  Zn110  1  0.18535878  0.68846709  0.68643956  1
  Zn  Zn111  1  0.68424997  0.18540570  0.19044567  1
  Zn  Zn112  1  0.69598138  0.18477519  0.68453777  1
  Zn  Zn113  1  0.68961906  0.68712099  0.18518926  1
  Zn  Zn114  1  0.68801140  0.68107332  0.70288978  1
  Zn  Zn115  1  0.31460676  0.31551388  0.31484509  1
  Zn  Zn116  1  0.31627107  0.31303719  0.80933406  1
  Zn  Zn117  1  0.31603883  0.81423692  0.31291233  1
  Zn  Zn118  1  0.31100320  0.81690232  0.81497941  1
  Zn  Zn119  1  0.80875904  0.31289945  0.31553805  1
  Zn  Zn120  1  0.81292504  0.31470088  0.81383220  1
  Zn  Zn121  1  0.81245306  0.81007500  0.31505971  1
  Zn  Zn122  1  0.81939939  0.81033385  0.80797875  1
  Zn  Zn123  1  0.18614293  0.43876422  0.43877291  1
  Zn  Zn124  1  0.19021663  0.44029476  0.93738648  1
  Zn  Zn125  1  0.18747159  0.93811138  0.43706170  1
  Zn  Zn126  1  0.18310440  0.93957387  0.93157138  1
  Zn  Zn127  1  0.68346096  0.45003497  0.44278636  1
  Zn  Zn128  1  0.69436545  0.42840177  0.90768848  1
  Zn  Zn129  1  0.69072146  0.93119780  0.43634804  1
  Zn  Zn130  1  0.68441588  0.93592042  0.93125089  1
  Zn  Zn131  1  0.31363686  0.06400268  0.06136750  1
  Zn  Zn132  1  0.30912771  0.06010743  0.56151783  1
  Zn  Zn133  1  0.31636599  0.56871297  0.06633254  1
  Zn  Zn134  1  0.30679925  0.56454566  0.56170217  1
  Zn  Zn135  1  0.81308773  0.06031646  0.06141263  1
  Zn  Zn136  1  0.81612202  0.06013337  0.56139549  1
  Zn  Zn137  1  0.81603156  0.57575200  0.05755104  1
  Zn  Zn138  1  0.81676128  0.58015500  0.57197695  1
  Zn  Zn139  1  0.44074339  0.43976987  0.18995555  1
  Zn  Zn140  1  0.43805731  0.43268484  0.69234738  1
  Zn  Zn141  1  0.44315079  0.93010233  0.18651015  1
  Zn  Zn142  1  0.47423341  0.92180387  0.66957042  1
  Zn  Zn143  1  0.93854048  0.43710376  0.18846429  1
  Zn  Zn144  1  0.93819213  0.44968178  0.68942418  1
  Zn  Zn145  1  0.94123950  0.93930913  0.19131772  1
  Zn  Zn146  1  0.93748318  0.93489308  0.69222089  1
  Zn  Zn147  1  0.06171078  0.06039057  0.31011253  1
  Zn  Zn148  1  0.06367194  0.06225035  0.81050478  1
  Zn  Zn149  1  0.06219178  0.56436755  0.31498502  1
  Zn  Zn150  1  0.06285385  0.56541902  0.81752718  1
  Zn  Zn151  1  0.56558921  0.06197754  0.31156044  1
  Zn  Zn152  1  0.56622563  0.06132325  0.81087008  1
  Zn  Zn153  1  0.56071438  0.56330651  0.30990811  1
  Zn  Zn154  1  0.56251796  0.56351049  0.81188674  1
  Zn  Zn155  1  0.43620191  0.18933776  0.44097851  1
  Zn  Zn156  1  0.43836405  0.18586485  0.93986133  1
  Zn  Zn157  1  0.43636485  0.68984482  0.43588362  1
  Zn  Zn158  1  0.43499119  0.68699351  0.94295388  1
  Zn  Zn159  1  0.93441628  0.18830308  0.44065958  1
  Zn  Zn160  1  0.93486705  0.18781456  0.93753411  1
  Zn  Zn161  1  0.93485726  0.68403554  0.43529485  1
  Zn  Zn162  1  0.93618028  0.68678358  0.94183237  1
  Zn  Zn163  1  0.06119744  0.31464045  0.06452910  1
  Zn  Zn164  1  0.06222785  0.31477468  0.56174267  1
  Zn  Zn165  1  0.05875591  0.81339306  0.05936268  1
  Zn  Zn166  1  0.05615578  0.81388155  0.56561007  1
  Zn  Zn167  1  0.55755677  0.30582905  0.05644837  1
  Zn  Zn168  1  0.56266950  0.30853807  0.56535057  1
  Zn  Zn169  1  0.56152221  0.81248111  0.06434237  1
  Zn  Zn170  1  0.55951592  0.80958017  0.55883076  1
  O  O171  1  0.11845482  0.11868478  0.11938244  1
  O  O172  1  0.11495114  0.12189093  0.61860282  1
  O  O173  1  0.13110528  0.61159107  0.11718316  1
  O  O174  1  0.13275200  0.61575981  0.61501213  1
  O  O175  1  0.62164134  0.11315771  0.12538301  1
  O  O176  1  0.61492621  0.12881131  0.62243693  1
  O  O177  1  0.60980190  0.62921579  0.12662227  1
  O  O178  1  0.60494843  0.62233660  0.63040935  1
  O  O179  1  0.38258470  0.38365648  0.37908942  1
  O  O180  1  0.37287476  0.37708595  0.88555010  1
  O  O181  1  0.37953034  0.88332612  0.38129156  1
  O  O182  1  0.38144057  0.87691518  0.88552822  1
  O  O183  1  0.87613208  0.39131060  0.36885051  1
  O  O184  1  0.87298790  0.38694504  0.88977345  1
  O  O185  1  0.88104479  0.88062291  0.37896465  1
  O  O186  1  0.89139589  0.88129823  0.86783363  1
  O  O187  1  0.25466537  0.00637180  0.36598101  1
  O  O188  1  0.25099719  0.00894469  0.86688756  1
  O  O189  1  0.25369463  0.50752847  0.36939829  1
  O  O190  1  0.25223451  0.51185345  0.86967775  1
  O  O191  1  0.75682093  0.00835113  0.37383198  1
  O  O192  1  0.75728968  0.00612271  0.87130217  1
  O  O193  1  0.75661110  0.50469179  0.36769034  1
  O  O194  1  0.75954504  0.51124018  0.87605490  1
  O  O195  1  0.24653048  0.49746903  0.13371406  1
  O  O196  1  0.24074617  0.49302217  0.63033583  1
  O  O197  1  0.24139741  1.00712882  0.13277828  1
  O  O198  1  0.23633975  1.00640732  0.63317794  1
  O  O199  1  0.75047437  0.50028554  0.12265820  1
  O  O200  1  0.74683675  0.50471527  0.64010937  1
  O  O201  1  0.73876841  1.00223665  0.12756358  1
  O  O202  1  0.75513887  1.00426658  0.63909887  1
  O  O203  1  0.00764466  0.36711904  0.25198594  1
  O  O204  1  0.00621411  0.37193173  0.75221539  1
  O  O205  1  0.00087608  0.86476822  0.26035958  1
  O  O206  1  0.01261889  0.87887245  0.76125335  1
  O  O207  1  0.50555595  0.36920779  0.25915972  1
  O  O208  1  0.49416713  0.36265879  0.75650144  1
  O  O209  1  0.51049877  0.86137006  0.25370868  1
  O  O210  1  0.48648368  0.86354138  0.76929094  1
  O  O211  1  0.49459585  0.13462232  0.25198757  1
  O  O212  1  0.50390339  0.12458439  0.73377768  1
  O  O213  1  0.50155233  0.63618146  0.24083229  1
  O  O214  1  0.48806777  0.63107235  0.74647619  1
  O  O215  1  0.98933127  0.12963469  0.24637849  1
  O  O216  1  0.99981875  0.13528791  0.74119349  1
  O  O217  1  0.99506985  0.63795210  0.25339599  1
  O  O218  1  1.00653516  0.63877426  0.75777006  1
  O  O219  1  0.37087482  0.25906534  0.00549865  1
  O  O220  1  0.37049816  0.25453370  0.51166032  1
  O  O221  1  0.36370886  0.75113381  0.01086572  1
  O  O222  1  0.37107609  0.75942250  0.50552982  1
  O  O223  1  0.86514989  0.26068145  -0.00050272  1
  O  O224  1  0.86835679  0.25258274  0.51197799  1
  O  O225  1  0.86877488  0.74959148  0.01479509  1
  O  O226  1  0.87757357  0.76052184  0.49591204  1
  O  O227  1  0.12480353  0.24349020  0.49107574  1
  O  O228  1  0.13035949  0.24652605  0.99591274  1
  O  O229  1  0.12916122  0.74640531  0.49576225  1
  O  O230  1  0.13255730  0.73808181  1.01350212  1
  O  O231  1  0.64273796  0.25306864  0.50187360  1
  O  O232  1  0.63267658  0.24389814  0.99237374  1
  O  O233  1  0.61807222  0.73396638  0.49344872  1
  O  O234  1  0.63897118  0.75565667  0.99649240  1
  O  O235  1  0.49338574  0.24802331  0.13395867  1
  O  O236  1  0.49052546  0.23598277  0.62162569  1
  O  O237  1  0.49377525  0.74185512  0.13003638  1
  O  O238  1  0.48390459  0.73665470  0.62748195  1
  O  O239  1  0.99841129  0.24274995  0.13339563  1
  O  O240  1  0.98989801  0.24703452  0.62677435  1
  O  O241  1  0.98667002  0.75579325  0.13119330  1
  O  O242  1  1.00182054  0.73958868  0.62731596  1
  O  O243  1  0.00442623  0.25073994  0.36905319  1
  O  O244  1  0.00477343  0.25292109  0.86870779  1
  O  O245  1  0.00538390  0.75455577  0.36694576  1
  O  O246  1  -0.00186049  0.76151964  0.88098839  1
  O  O247  1  0.50117319  0.25825935  0.36950359  1
  O  O248  1  0.51598658  0.23738326  0.87293222  1
  O  O249  1  0.50946363  0.74587482  0.36695167  1
  O  O250  1  0.50645881  0.75344456  0.87597562  1
  O  O251  1  0.23999608  0.12561158  0.49136740  1
  O  O252  1  0.24394734  0.13265686  0.99332393  1
  O  O253  1  0.24003611  0.63287998  0.49186796  1
  O  O254  1  0.24438576  0.63204171  0.99565567  1
  O  O255  1  0.75675683  0.12926304  0.48996776  1
  O  O256  1  0.75070786  0.13177404  0.99164430  1
  O  O257  1  0.75818380  0.61675581  0.47523677  1
  O  O258  1  0.75207535  0.64001291  0.98861753  1
  O  O259  1  0.25486313  0.36938058  0.00676697  1
  O  O260  1  0.24581024  0.37362688  0.51445521  1
  O  O261  1  0.24361868  0.86234602  -0.00521980  1
  O  O262  1  0.26303064  0.87078298  0.49453371  1
  O  O263  1  0.75177610  0.37248134  0.00636165  1
  O  O264  1  0.75006295  0.36743056  0.49463954  1
  O  O265  1  0.75313779  0.86226652  -0.00754269  1
  O  O266  1  0.76498878  0.87447947  0.49978774  1
  O  O267  1  0.13154760  0.49715266  0.24489798  1
  O  O268  1  0.12909552  0.49673490  0.74407520  1
  O  O269  1  0.13450615  1.00077609  0.24092845  1
  O  O270  1  0.13095373  0.99420473  0.74296204  1
  O  O271  1  0.62479709  0.48676424  0.24860526  1
  O  O272  1  0.63423767  0.50585984  0.73765554  1
  O  O273  1  0.62509153  0.98969775  0.24294879  1
  O  O274  1  0.64436397  0.99654499  0.75613218  1
  O  O275  1  0.37115196  0.00255658  0.25221766  1
  O  O276  1  0.36014386  -0.00903748  0.74772096  1
  O  O277  1  0.36258231  0.49464205  0.26027255  1
  O  O278  1  0.36586513  0.50886958  0.75002879  1
  O  O279  1  0.87336409  0.00638237  0.26075190  1
  O  O280  1  0.86682484  0.00192072  0.76004997  1
  O  O281  1  0.87620314  0.50808511  0.25424217  1
  O  O282  1  0.86472136  0.49690933  0.76185699  1
  O  O283  1  0.12571996  0.36717571  0.36867189  1
  O  O284  1  0.12637722  0.36975604  0.86783491  1
  O  O285  1  0.11771417  0.86894038  0.37207006  1
  O  O286  1  0.11230951  0.87991319  0.86289845  1
  O  O287  1  0.61858132  0.37710616  0.37064252  1
  O  O288  1  0.62020038  0.35243194  0.87900059  1
  O  O289  1  0.62237389  0.86272396  0.37110947  1
  O  O290  1  0.61607726  0.86308839  0.87012473  1
  O  O291  1  0.37689789  0.13354301  0.13275070  1
  O  O292  1  0.37528824  0.13560901  0.61931957  1
  O  O293  1  0.38501284  0.64121190  0.12422365  1
  O  O294  1  0.37476071  0.62824487  0.63233730  1
  O  O295  1  0.88025594  0.12552465  0.13434843  1
  O  O296  1  0.88834980  0.12917542  0.62381451  1
  O  O297  1  0.87374102  0.63662207  0.13631793  1
  O  O298  1  0.90202104  0.60692579  0.63791651  1
  O  O299  1  0.25580898  0.25552160  0.12092532  1
  O  O300  1  0.25640489  0.25470321  0.62409727  1
  O  O301  1  0.26081128  0.74629316  0.12095714  1
  O  O302  1  0.26193052  0.74573798  0.61755920  1
  O  O303  1  0.74951226  0.24271593  0.11181032  1
  O  O304  1  0.76337523  0.24925345  0.61433424  1
  O  O305  1  0.75867419  0.74996604  0.11374449  1
  O  O306  1  0.73936629  0.67901407  0.60201919  1
  O  O307  1  0.24358016  0.24319224  0.37355169  1
  O  O308  1  0.24468199  0.24372096  0.87732161  1
  O  O309  1  0.24630151  0.74445838  0.37824864  1
  O  O310  1  0.25314004  0.73947181  0.88535210  1
  O  O311  1  0.75348556  0.24268448  0.39061344  1
  O  O312  1  0.74341204  0.24346926  0.88209622  1
  O  O313  1  0.73656245  0.74051473  0.36896848  1
  O  O314  1  0.74603158  0.74762179  0.88195705  1
  O  O315  1  0.00564377  0.12615789  0.00765987  1
  O  O316  1  0.00642184  0.12205046  0.50617032  1
  O  O317  1  0.00870433  0.61392400  -0.00152617  1
  O  O318  1  0.01444069  0.61720346  0.48997551  1
  O  O319  1  0.50188689  0.11108736  0.00200672  1
  O  O320  1  0.50131921  0.11603429  0.50370053  1
  O  O321  1  0.50076870  0.62304222  0.01291317  1
  O  O322  1  0.48748057  0.62011013  0.51159088  1
  O  O323  1  0.50218581  0.37218273  0.48750339  1
  O  O324  1  0.49114541  0.37868988  0.99674118  1
  O  O325  1  0.48816365  0.88739937  0.49567955  1
  O  O326  1  0.50125547  0.88360064  0.99201631  1
  O  O327  1  1.00752975  0.39190617  0.49632856  1
  O  O328  1  0.99362217  0.38522643  0.99926141  1
  O  O329  1  0.99551414  0.87491167  0.48617451  1
  O  O330  1  1.00799199  0.88063001  0.98188889  1
  O  O331  1  0.48868677  0.49406780  0.36838817  1
  O  O332  1  0.49995115  0.50081913  0.88293013  1
  O  O333  1  0.49425524  1.00318393  0.38419583  1
  O  O334  1  0.50052068  0.99256921  0.88101822  1
  O  O335  1  0.99291717  0.49982319  0.38193668  1
  O  O336  1  0.99404360  0.49776882  0.88446978  1
  O  O337  1  0.99331560  0.99044788  0.37356609  1
  O  O338  1  0.99058288  1.00083498  0.87466241  1
  O  O339  1  0.00664810  0.00915230  0.12451271  1
  O  O340  1  0.00881928  0.00950558  0.62692224  1
  O  O341  1  0.01096926  0.49651132  0.11848291  1
  O  O342  1  0.01535468  0.49446523  0.61720271  1
  O  O343  1  0.50904152  -0.00161369  0.11776374  1
  O  O344  1  0.49126743  0.01840641  0.60872324  1
  O  O345  1  0.49447405  0.51595890  0.12346748  1
  O  O346  1  0.50951682  0.50494296  0.63068466  1
  O  O347  1  0.24456995  0.38260248  0.24556192  1
  O  O348  1  0.24448493  0.37989178  0.74062717  1
  O  O349  1  0.24908404  0.88833267  0.25314388  1
  O  O350  1  0.23493590  0.88626586  0.75947393  1
  O  O351  1  0.73798685  0.37324539  0.24933843  1
  O  O352  1  0.74521733  0.39745570  0.76814134  1
  O  O353  1  0.73656376  0.87489252  0.25682595  1
  O  O354  1  0.75280977  0.88728676  0.75147320  1
  O  O355  1  0.25705115  0.11669380  0.25484969  1
  O  O356  1  0.24226767  0.11388500  0.75938361  1
  O  O357  1  0.24476713  0.61594323  0.25984857  1
  O  O358  1  0.25272398  0.62366104  0.75928939  1
  O  O359  1  0.76198969  0.12737950  0.25913434  1
  O  O360  1  0.75444695  0.11562142  0.75660679  1
  O  O361  1  0.75803743  0.62106950  0.25302874  1
  O  O362  1  0.74825912  0.61046909  0.76994331  1
  O  O363  1  0.36941141  0.12027974  0.36963599  1
  O  O364  1  0.36177838  0.12383381  0.87847046  1
  O  O365  1  0.36249146  0.61973002  0.37885525  1
  O  O366  1  0.36689675  0.62502743  0.86964521  1
  O  O367  1  0.86955129  0.11757488  0.37037149  1
  O  O368  1  0.86517353  0.12117618  0.87170106  1
  O  O369  1  0.87047345  0.61891007  0.36008312  1
  O  O370  1  0.86985303  0.61388672  0.88285239  1
  O  O371  1  0.13202511  0.38497529  0.13035095  1
  O  O372  1  0.13163844  0.38003833  0.63247314  1
  O  O373  1  0.11796158  0.89036085  0.12575353  1
  O  O374  1  0.11712962  0.88535679  0.63666943  1
  O  O375  1  0.62565814  0.37353974  0.12919239  1
  O  O376  1  0.62116750  0.39337030  0.61780065  1
  O  O377  1  0.62147164  0.88152007  0.13494960  1
  O  O378  1  0.57982582  0.87609631  0.64334467  1
  O  O379  1  0.11989467  0.25229718  0.25666731  1
  O  O380  1  0.11837246  0.25672045  0.75346852  1
  O  O381  1  0.11735267  0.75127382  0.25195210  1
  O  O382  1  0.13258836  0.76806023  0.74683519  1
  O  O383  1  0.61400713  0.25820454  0.25259480  1
  O  O384  1  0.63067647  0.24305848  0.76206022  1
  O  O385  1  0.61956975  0.75308382  0.25544915  1
  O  O386  1  0.61799333  0.75097404  0.76004309  1
  O  O387  1  0.38515380  0.24853256  0.24721005  1
  O  O388  1  0.37201957  0.24700730  0.73304496  1
  O  O389  1  0.38213823  0.75324106  0.24063913  1
  O  O390  1  0.37548846  0.74544591  0.74314712  1
  O  O391  1  0.88013461  0.24365538  0.25069337  1
  O  O392  1  0.87716894  0.25127167  0.73786883  1
  O  O393  1  0.87995176  0.74627013  0.24082477  1
  O  O394  1  0.87148491  0.74024193  0.73819798  1
  O  O395  1  0.36506483  0.49640037  0.48767752  1
  O  O396  1  0.36978826  0.48781364  1.00232703  1
  O  O397  1  0.37692357  0.99562590  0.49300775  1
  O  O398  1  0.38398241  0.99726860  1.00010779  1
  O  O399  1  0.88593043  0.51256317  0.49107741  1
  O  O400  1  0.88379878  0.49783620  0.99878178  1
  O  O401  1  0.87903117  0.99441708  0.48780110  1
  O  O402  1  0.87586367  1.00341419  0.98427264  1
  O  O403  1  0.12533710  0.01005380  0.00647996  1
  O  O404  1  0.12314087  0.00456369  0.50861247  1
  O  O405  1  0.11969545  0.50412513  0.00876083  1
  O  O406  1  0.12160347  0.50928786  0.50681600  1
  O  O407  1  0.61944979  -0.00163025  0.00689842  1
  O  O408  1  0.61105285  -0.00483668  0.49343945  1
  O  O409  1  0.63617218  0.48230018  0.00558350  1
  O  O410  1  0.64054281  0.52574405  0.52396198  1
  O  O411  1  0.37102230  0.37021669  0.12075577  1
  O  O412  1  0.36610438  0.36746045  0.62333499  1
  O  O413  1  0.38244916  0.85565853  0.12146040  1
  O  O414  1  0.38152604  0.86679788  0.61654405  1
  O  O415  1  0.87720442  0.37404845  0.11307169  1
  O  O416  1  0.88031643  0.36746954  0.62610997  1
  O  O417  1  0.87388846  0.86594633  0.13110818  1
  O  O418  1  0.88533992  0.87893440  0.60772259  1
  O  O419  1  0.12792358  0.12947398  0.37848230  1
  O  O420  1  0.13165819  0.13135466  0.88161661  1
  O  O421  1  0.13496828  0.63129611  0.38108836  1
  O  O422  1  0.13484054  0.61932559  0.89169252  1
  O  O423  1  0.64170917  0.12886466  0.36785989  1
  O  O424  1  0.63772706  0.12987364  0.87741873  1
  O  O425  1  0.63419614  0.62878572  0.37116709  1
  O  O426  1  0.63088985  0.63888707  0.87434291  1
