# generated using pymatgen
data_V85Zn86O256
_symmetry_space_group_name_H-M   'P 1'
_cell_length_a   16.90874910
_cell_length_b   16.90875798
_cell_length_c   16.91228888
_cell_angle_alpha   89.96032150
_cell_angle_beta   89.99499789
_cell_angle_gamma   89.95231283
_symmetry_Int_Tables_number   1
_chemical_formula_structural   V85Zn86O256
_chemical_formula_sum   'V85 Zn86 O256'
_cell_volume   4835.32110249
_cell_formula_units_Z   1
loop_
 _symmetry_equiv_pos_site_id
 _symmetry_equiv_pos_as_xyz
  1  'x, y, z'
loop_
 _atom_site_type_symbol
 _atom_site_label
 _atom_site_symmetry_multiplicity
 _atom_site_fract_x
 _atom_site_fract_y
 _atom_site_fract_z
 _atom_site_occupancy
  V  V0  1  0.00192347  0.12170152  0.63747933  1
  V  V1  1  0.36729735  0.49900702  0.37901756  1
  V  V2  1  0.49886178  0.49861436  -0.00148761  1
  V  V3  1  0.37336639  0.49915916  0.87218764  1
  V  V4  1  0.62476689  0.24939154  0.37482789  1
  V  V5  1  0.75108115  0.37207039  0.62305158  1
  V  V6  1  0.25233085  -0.00343438  0.25958760  1
  V  V7  1  0.00177786  0.75274842  0.74886675  1
  V  V8  1  0.12372757  0.12268410  0.50277630  1
  V  V9  1  -0.00023246  0.00735498  0.00572488  1
  V  V10  1  0.00332296  0.85870674  0.37536069  1
  V  V11  1  0.12331107  0.86212704  0.25622558  1
  V  V12  1  0.25667118  0.74090510  0.49470194  1
  V  V13  1  0.00558288  0.24390035  0.25638810  1
  V  V14  1  0.49779313  0.37067779  0.87145706  1
  V  V15  1  0.37349296  0.63724207  0.74042478  1
  V  V16  1  0.62404985  0.12404709  0.50077382  1
  V  V17  1  0.37509258  0.12105352  0.26006450  1
  V  V18  1  0.24292368  0.37481791  0.12506035  1
  V  V19  1  0.50073410  -0.00056210  0.00310955  1
  V  V20  1  0.50014074  0.12568670  0.12823224  1
  V  V21  1  0.24894005  0.49957664  0.74726898  1
  V  V22  1  0.49582663  0.37524840  0.38148495  1
  V  V23  1  0.00664956  0.62314285  0.62267513  1
  V  V24  1  0.12074793  0.62530898  -0.00140555  1
  V  V25  1  0.49380151  0.00194632  0.49737561  1
  V  V26  1  0.63418957  0.86934168  0.24990007  1
  V  V27  1  0.37673331  0.13194812  0.75212491  1
  V  V28  1  0.36757983  0.36967341  -0.00178802  1
  V  V29  1  0.24925691  0.75074327  -0.00107296  1
  V  V30  1  0.62928144  0.74590094  0.39211839  1
  V  V31  1  0.12640804  0.62910097  0.47828195  1
  V  V32  1  0.11849649  0.37421102  0.26875488  1
  V  V33  1  0.62488874  0.50943656  0.61980792  1
  V  V34  1  0.63433790  -0.00256540  0.12748363  1
  V  V35  1  -0.00286707  0.63028500  0.12857585  1
  V  V36  1  0.49507745  0.87538881  0.37486092  1
  V  V37  1  0.88214553  0.24613328  0.63646420  1
  V  V38  1  0.75419425  0.11973560  0.37334528  1
  V  V39  1  0.61878104  0.24527165  0.86954777  1
  V  V40  1  0.88354896  0.37459956  -0.00513321  1
  V  V41  1  0.61718708  0.37063506  0.74598234  1
  V  V42  1  0.24839740  0.87544658  0.12763179  1
  V  V43  1  0.88365235  0.49730434  0.87169742  1
  V  V44  1  0.75497156  0.24729832  0.50010619  1
  V  V45  1  0.12081232  0.00502531  0.13093363  1
  V  V46  1  0.37469649  0.87214240  0.51010412  1
  V  V47  1  0.74460383  0.87025673  0.61945818  1
  V  V48  1  0.25164309  0.37318112  0.62499174  1
  V  V49  1  0.24399842  0.12807264  0.37634722  1
  V  V50  1  0.86668724  0.75678094  0.13091344  1
  V  V51  1  0.87896496  0.00732559  0.86869442  1
  V  V52  1  0.36855359  0.24866438  0.12365322  1
  V  V53  1  0.24951510  0.62741493  0.87337024  1
  V  V54  1  0.87477944  0.75103857  0.61492266  1
  V  V55  1  -0.00184170  0.49616278  0.48626438  1
  V  V56  1  0.00050787  0.87653070  0.87740209  1
  V  V57  1  0.11032349  0.36960330  0.74995355  1
  V  V58  1  0.62729113  0.50022784  0.12432426  1
  V  V59  1  0.74671203  0.50006160  0.75248951  1
  V  V60  1  0.88051686  0.37464991  0.48645091  1
  V  V61  1  0.87534744  0.62476378  0.74933583  1
  V  V62  1  0.74578659  0.75834140  -0.00863054  1
  V  V63  1  0.75044117  -0.00541224  0.74693398  1
  V  V64  1  0.37174226  0.00118627  0.87662621  1
  V  V65  1  0.49929941  0.62367147  0.12490169  1
  V  V66  1  0.75207547  0.37469338  0.12499314  1
  V  V67  1  0.38040284  0.25499792  0.62379323  1
  V  V68  1  0.87922302  0.12306225  0.24124637  1
  V  V69  1  0.13300925  0.12898104  0.00488627  1
  V  V70  1  0.75032168  0.25099319  -0.00201784  1
  V  V71  1  0.74925978  0.62030507  0.38728052  1
  V  V72  1  0.37496176  0.87519350  0.00043897  1
  V  V73  1  0.36751510  0.62326987  0.25415069  1
  V  V74  1  0.24844125  0.25285690  0.49814744  1
  V  V75  1  0.11931993  0.25841675  0.88299654  1
  V  V76  1  0.50289169  0.12640258  0.63672226  1
  V  V77  1  0.75504207  0.12759757  0.86534547  1
  V  V78  1  0.49929435  0.25130237  0.25197871  1
  V  V79  1  0.00247293  -0.00083643  0.49823671  1
  V  V80  1  0.87185526  0.61720197  0.25112672  1
  V  V81  1  0.50074566  0.50767486  0.49754652  1
  V  V82  1  0.51574826  0.75667737  0.74929388  1
  V  V83  1  0.37588209  0.74892957  0.12588580  1
  V  V84  1  0.24548668  0.00229395  0.74100610  1
  Zn  Zn85  1  0.88175463  0.24658816  0.12261010  1
  Zn  Zn86  1  0.62332965  0.63304517  -0.00684591  1
  Zn  Zn87  1  0.51490687  0.86311224  0.87679065  1
  Zn  Zn88  1  0.87284436  0.87965349  0.00588644  1
  Zn  Zn89  1  0.62623802  0.12595143  0.00130507  1
  Zn  Zn90  1  0.25061934  0.13420522  0.87958243  1
  Zn  Zn91  1  0.87290220  0.87455409  0.49615986  1
  Zn  Zn92  1  0.75275027  0.49679387  0.25514266  1
  Zn  Zn93  1  0.87799161  -0.00378031  0.37343477  1
  Zn  Zn94  1  0.12336855  0.49749087  0.62201355  1
  Zn  Zn95  1  0.11901980  0.88544388  0.74155193  1
  Zn  Zn96  1  0.62254553  -0.00587746  0.62543588  1
  Zn  Zn97  1  0.12202131  0.49955818  0.12569426  1
  Zn  Zn98  1  0.24488017  0.50131779  0.25350121  1
  Zn  Zn99  1  0.50289669  0.74832884  0.25149636  1
  Zn  Zn100  1  0.24225146  0.87226247  0.62193417  1
  Zn  Zn101  1  0.74331154  0.63161650  0.87236880  1
  Zn  Zn102  1  0.62601667  0.37524230  0.25085229  1
  Zn  Zn103  1  0.12500547  0.75432076  0.87302834  1
  Zn  Zn104  1  0.00076690  0.49945607  -0.00174112  1
  Zn  Zn105  1  0.75617940  -0.00507054  0.24645044  1
  Zn  Zn106  1  0.49804423  0.63259195  0.61803677  1
  Zn  Zn107  1  0.18569147  0.18940152  0.19057512  1
  Zn  Zn108  1  0.18555658  0.18930837  0.68988759  1
  Zn  Zn109  1  0.18768363  0.68539296  0.18514502  1
  Zn  Zn110  1  0.18819904  0.69405065  0.68175344  1
  Zn  Zn111  1  0.68976198  0.18633648  0.18801840  1
  Zn  Zn112  1  0.69014059  0.18530223  0.68804885  1
  Zn  Zn113  1  0.69020615  0.68626782  0.18708163  1
  Zn  Zn114  1  0.68858407  0.68942500  0.68633452  1
  Zn  Zn115  1  0.31061874  0.31405260  0.31254888  1
  Zn  Zn116  1  0.30493649  0.30917274  0.81187140  1
  Zn  Zn117  1  0.31287183  0.80781361  0.31780887  1
  Zn  Zn118  1  0.31415423  0.81804209  0.81345611  1
  Zn  Zn119  1  0.81431724  0.30723962  0.30921735  1
  Zn  Zn120  1  0.81123047  0.31546361  0.81206446  1
  Zn  Zn121  1  0.81318391  0.80647509  0.31610939  1
  Zn  Zn122  1  0.81737554  0.81721315  0.80980630  1
  Zn  Zn123  1  0.18712732  0.43980312  0.44261694  1
  Zn  Zn124  1  0.18598842  0.43747275  0.93611959  1
  Zn  Zn125  1  0.18641062  0.93567695  0.44022474  1
  Zn  Zn126  1  0.18595500  0.94044780  0.93627832  1
  Zn  Zn127  1  0.68759463  0.43586785  0.43847275  1
  Zn  Zn128  1  0.68644491  0.43920393  0.93521658  1
  Zn  Zn129  1  0.68391218  0.93648234  0.43972337  1
  Zn  Zn130  1  0.68838640  0.93448544  0.93733762  1
  Zn  Zn131  1  0.31061958  0.06141867  0.06947646  1
  Zn  Zn132  1  0.31772571  0.06411736  0.56087082  1
  Zn  Zn133  1  0.31002730  0.55927993  0.06297702  1
  Zn  Zn134  1  0.31135638  0.55978953  0.55913359  1
  Zn  Zn135  1  0.81283336  0.06480834  0.05749775  1
  Zn  Zn136  1  0.81875411  0.06041569  0.56241183  1
  Zn  Zn137  1  0.81095713  0.56680062  0.05779605  1
  Zn  Zn138  1  0.81683022  0.55905160  0.56342438  1
  Zn  Zn139  1  0.43620300  0.43655809  0.19063447  1
  Zn  Zn140  1  0.43682177  0.44128490  0.68476557  1
  Zn  Zn141  1  0.43975372  0.93622101  0.19090941  1
  Zn  Zn142  1  0.43713661  0.93871612  0.68933154  1
  Zn  Zn143  1  0.94058113  0.43830197  0.18522179  1
  Zn  Zn144  1  0.93498164  0.43815279  0.67803869  1
  Zn  Zn145  1  0.94085462  0.93527785  0.19260800  1
  Zn  Zn146  1  0.93520615  0.93905642  0.68520138  1
  Zn  Zn147  1  0.06390152  0.06105808  0.31623638  1
  Zn  Zn148  1  0.06573252  0.06899990  0.81942915  1
  Zn  Zn149  1  0.05635571  0.56097829  0.30563717  1
  Zn  Zn150  1  0.06472484  0.56192586  0.81022200  1
  Zn  Zn151  1  0.56468145  0.05893310  0.31358052  1
  Zn  Zn152  1  0.57771230  0.03315137  0.82685744  1
  Zn  Zn153  1  0.56391809  0.56365935  0.31113735  1
  Zn  Zn154  1  0.55949397  0.56623453  0.81050558  1
  Zn  Zn155  1  0.43349143  0.18848701  0.44102328  1
  Zn  Zn156  1  0.43826649  0.18547753  0.93952793  1
  Zn  Zn157  1  0.43792658  0.68797314  0.43461171  1
  Zn  Zn158  1  0.43812180  0.68717179  0.93323901  1
  Zn  Zn159  1  0.93946844  0.18851316  0.43443982  1
  Zn  Zn160  1  0.94295784  0.18832331  0.93655469  1
  Zn  Zn161  1  0.93538624  0.68089889  0.43513755  1
  Zn  Zn162  1  0.93073837  0.68902871  0.93864358  1
  Zn  Zn163  1  0.05880228  0.30674671  0.06841607  1
  Zn  Zn164  1  0.06281206  0.30939163  0.56039715  1
  Zn  Zn165  1  0.05946160  0.81301841  0.06518503  1
  Zn  Zn166  1  0.06914574  0.81207268  0.56203320  1
  Zn  Zn167  1  0.56149628  0.31250113  0.06070065  1
  Zn  Zn168  1  0.56183993  0.31407447  0.55968385  1
  Zn  Zn169  1  0.56439938  0.81431105  0.06531727  1
  Zn  Zn170  1  0.55889453  0.81184809  0.56767078  1
  O  O171  1  0.12953498  0.11362067  0.12319701  1
  O  O172  1  0.11031728  0.13110358  0.61973126  1
  O  O173  1  0.11601169  0.62526304  0.11752021  1
  O  O174  1  0.11332966  0.62361696  0.62400710  1
  O  O175  1  0.61734274  0.11725647  0.12718604  1
  O  O176  1  0.61696840  0.12959928  0.61685318  1
  O  O177  1  0.61680794  0.61740653  0.12009560  1
  O  O178  1  0.62376857  0.61238758  0.62851565  1
  O  O179  1  0.38464125  0.38431439  0.36850939  1
  O  O180  1  0.37651828  0.37480718  0.88076988  1
  O  O181  1  0.39080911  0.86774222  0.38307933  1
  O  O182  1  0.37970225  0.88680101  0.88287087  1
  O  O183  1  0.86629168  0.37215020  0.38751433  1
  O  O184  1  0.87103954  0.38253105  0.88268537  1
  O  O185  1  0.88802630  0.87273817  0.37560409  1
  O  O186  1  0.88701385  0.88658763  0.87774049  1
  O  O187  1  0.24740681  0.00703314  0.36542265  1
  O  O188  1  0.26099632  0.00506585  0.87103228  1
  O  O189  1  0.26302662  0.49407212  0.37471018  1
  O  O190  1  0.25428177  0.50637684  0.86806214  1
  O  O191  1  0.74897633  0.01085221  0.37535371  1
  O  O192  1  0.76036206  0.00829280  0.86912244  1
  O  O193  1  0.73815420  0.51541300  0.37221638  1
  O  O194  1  0.75723095  0.49460880  0.86024480  1
  O  O195  1  0.24775107  0.48862577  0.13007528  1
  O  O196  1  0.24725504  0.49062660  0.62840094  1
  O  O197  1  0.24290833  0.99354668  0.13798996  1
  O  O198  1  0.25731267  1.00289397  0.63911780  1
  O  O199  1  0.74208578  0.49278195  0.12161816  1
  O  O200  1  0.74452888  0.49409399  0.63283893  1
  O  O201  1  0.73774855  1.00392371  0.12331831  1
  O  O202  1  0.75616388  0.98877038  0.63024508  1
  O  O203  1  0.01332688  0.36985112  0.24792172  1
  O  O204  1  0.01218832  0.38007863  0.74368476  1
  O  O205  1  0.00925147  0.87684678  0.26620014  1
  O  O206  1  -0.00201621  0.86947202  0.75671063  1
  O  O207  1  0.50221144  0.36792425  0.25941392  1
  O  O208  1  0.51043617  0.37810429  0.75284452  1
  O  O209  1  0.50874749  0.87438603  0.26043865  1
  O  O210  1  0.49357366  0.85992569  0.75064898  1
  O  O211  1  0.49177438  0.12794855  0.24888478  1
  O  O212  1  0.49462879  0.11870761  0.73988364  1
  O  O213  1  0.49178091  0.62324375  0.23718341  1
  O  O214  1  0.48658981  0.63300297  0.74776171  1
  O  O215  1  0.99569656  0.13393166  0.25542894  1
  O  O216  1  1.00259810  0.11809520  0.73645061  1
  O  O217  1  0.98919225  0.62629628  0.24053748  1
  O  O218  1  0.99577885  0.63081060  0.74225018  1
  O  O219  1  0.37853834  0.25738491  0.01062065  1
  O  O220  1  0.36078236  0.24480599  0.51189040  1
  O  O221  1  0.37041830  0.75532726  0.00469408  1
  O  O222  1  0.36607635  0.75378616  0.49797290  1
  O  O223  1  0.86951592  0.25636641  -0.00016991  1
  O  O224  1  0.87146219  0.25482752  0.50582840  1
  O  O225  1  0.86474335  0.75434906  0.00990041  1
  O  O226  1  0.87958405  0.74884664  0.51214612  1
  O  O227  1  0.13842687  0.23870027  0.50528592  1
  O  O228  1  0.12103417  0.24484946  0.99360827  1
  O  O229  1  0.12978099  0.73266140  0.49859096  1
  O  O230  1  0.12953246  0.74135573  0.99904358  1
  O  O231  1  0.63299176  0.24461899  0.49412991  1
  O  O232  1  0.63275756  0.24999132  0.99076431  1
  O  O233  1  0.62266094  0.75033738  0.49050168  1
  O  O234  1  0.64038022  0.75355076  1.00446521  1
  O  O235  1  0.49086749  0.24690008  0.13128793  1
  O  O236  1  0.48930985  0.24274600  0.61725303  1
  O  O237  1  0.49405187  0.74051522  0.12480082  1
  O  O238  1  0.50139835  0.74622285  0.64029168  1
  O  O239  1  0.99550284  0.25322835  0.14466438  1
  O  O240  1  0.98979127  0.23884430  0.62198748  1
  O  O241  1  0.98510821  0.73905754  0.11694249  1
  O  O242  1  0.99425382  0.74397686  0.63033701  1
  O  O243  1  -0.00577153  0.25408841  0.35720824  1
  O  O244  1  0.01866904  0.24446577  0.87191545  1
  O  O245  1  0.00125949  0.75998627  0.38069186  1
  O  O246  1  -0.00291695  0.75943940  0.86823565  1
  O  O247  1  0.50218014  0.25610778  0.37365999  1
  O  O248  1  0.51176936  0.25348100  0.87899375  1
  O  O249  1  0.51288010  0.75454982  0.37347488  1
  O  O250  1  0.49586799  0.74965842  0.85818083  1
  O  O251  1  0.24545451  0.12821834  0.49498296  1
  O  O252  1  0.23737353  0.12139184  1.00349304  1
  O  O253  1  0.23889534  0.62991381  0.49972545  1
  O  O254  1  0.24311576  0.63049263  0.99520463  1
  O  O255  1  0.74666690  0.12789676  0.49411386  1
  O  O256  1  0.74929743  0.13788654  0.99101127  1
  O  O257  1  0.75517663  0.62039669  0.48685985  1
  O  O258  1  0.74866641  0.64168420  0.99648562  1
  O  O259  1  0.26078595  0.37968396  0.00690615  1
  O  O260  1  0.24243627  0.36735556  0.51484408  1
  O  O261  1  0.25358995  0.87153070  0.00551988  1
  O  O262  1  0.25994293  0.86914905  0.49830504  1
  O  O263  1  0.75546901  0.36520526  0.00258713  1
  O  O264  1  0.75619121  0.36754097  0.50605562  1
  O  O265  1  0.75379401  0.86543512  -0.00077891  1
  O  O266  1  0.75371600  0.87963128  0.51422053  1
  O  O267  1  0.12454837  0.48620466  0.24811312  1
  O  O268  1  0.13176379  0.48829474  0.74925906  1
  O  O269  1  0.13202533  0.99400129  0.24579193  1
  O  O270  1  0.14307278  1.00594858  0.75807034  1
  O  O271  1  0.62442331  0.49728155  0.23509375  1
  O  O272  1  0.63005429  0.49165460  0.74158055  1
  O  O273  1  0.62792506  0.99255408  0.24310232  1
  O  O274  1  0.64736627  1.01766698  0.73685441  1
  O  O275  1  0.36548879  0.00937428  0.24474366  1
  O  O276  1  0.37030341  0.01054809  0.75887723  1
  O  O277  1  0.37334147  0.50640563  0.25838468  1
  O  O278  1  0.36828127  0.50730241  0.75470514  1
  O  O279  1  0.87487318  0.00670442  0.25350925  1
  O  O280  1  0.86843084  0.00043565  0.75996528  1
  O  O281  1  0.87281787  0.51220758  0.24484906  1
  O  O282  1  0.86729033  0.50177752  0.75203715  1
  O  O283  1  0.12712490  0.37481800  0.36682166  1
  O  O284  1  0.12450845  0.36839502  0.86587623  1
  O  O285  1  0.11373214  0.87715946  0.36965650  1
  O  O286  1  0.11245834  0.87678733  0.87027317  1
  O  O287  1  0.61862049  0.36607920  0.37274139  1
  O  O288  1  0.61962126  0.36732574  0.86631068  1
  O  O289  1  0.61979022  0.86290429  0.37183985  1
  O  O290  1  0.60759123  0.92469996  0.86356425  1
  O  O291  1  0.37784940  0.13232911  0.13547474  1
  O  O292  1  0.38259451  0.13280989  0.63240150  1
  O  O293  1  0.38129147  0.62761894  0.12916370  1
  O  O294  1  0.37505996  0.61830762  0.63802145  1
  O  O295  1  0.87045903  0.12461371  0.13723311  1
  O  O296  1  0.88661616  0.13727999  0.62066284  1
  O  O297  1  0.87849928  0.63223740  0.13009710  1
  O  O298  1  0.88459029  0.63060696  0.62928608  1
  O  O299  1  0.26128130  0.25660553  0.13107030  1
  O  O300  1  0.25791112  0.25479105  0.62203113  1
  O  O301  1  0.25633135  0.75600249  0.11863922  1
  O  O302  1  0.24544806  0.75347762  0.60397078  1
  O  O303  1  0.75172131  0.25656816  0.11535082  1
  O  O304  1  0.76145491  0.24995949  0.61899420  1
  O  O305  1  0.76205978  0.74773165  0.11592504  1
  O  O306  1  0.75882346  0.76195135  0.63059726  1
  O  O307  1  0.25663762  0.24173872  0.38546965  1
  O  O308  1  0.23024563  0.24932708  0.87270617  1
  O  O309  1  0.24709894  0.75337713  0.39356675  1
  O  O310  1  0.24855317  0.74644418  0.88083596  1
  O  O311  1  0.74563241  0.23788008  0.37880346  1
  O  O312  1  0.74269694  0.24592918  0.87904951  1
  O  O313  1  0.73663477  0.74045916  0.37589032  1
  O  O314  1  0.75773502  0.75320222  0.88666731  1
  O  O315  1  0.01120340  0.11352682  -0.00053819  1
  O  O316  1  0.00791271  0.11989871  0.50256187  1
  O  O317  1  0.00689119  0.62560785  0.00286320  1
  O  O318  1  0.00987750  0.62031258  0.50301945  1
  O  O319  1  0.50107327  0.11918835  0.01215144  1
  O  O320  1  0.50220191  0.11818901  0.50574221  1
  O  O321  1  0.49790501  0.61861674  0.00930690  1
  O  O322  1  0.49899970  0.61301639  0.49975107  1
  O  O323  1  0.50157650  0.38296157  0.48747444  1
  O  O324  1  0.48786545  0.37850939  0.99460669  1
  O  O325  1  0.49469905  0.88065028  0.49688526  1
  O  O326  1  0.49471312  0.88351653  0.99886607  1
  O  O327  1  0.99415682  0.38263512  0.50394426  1
  O  O328  1  0.98692912  0.37688946  1.00573622  1
  O  O329  1  1.00243338  0.88097697  0.48997171  1
  O  O330  1  1.00081094  0.88706182  0.99353126  1
  O  O331  1  0.49736267  0.49367285  0.37989538  1
  O  O332  1  0.49152618  0.49052228  0.87744247  1
  O  O333  1  0.50699772  0.98878243  0.38509901  1
  O  O334  1  0.48232261  1.01734813  0.89334542  1
  O  O335  1  0.99796859  0.50402086  0.38664005  1
  O  O336  1  0.98737848  0.50343139  0.87448761  1
  O  O337  1  1.00126060  0.99454164  0.38716920  1
  O  O338  1  0.99608028  0.99763830  0.88150277  1
  O  O339  1  0.00988162  -0.00554500  0.11907281  1
  O  O340  1  -0.00763926  0.01437499  0.61466537  1
  O  O341  1  0.00043496  0.51376528  0.11882834  1
  O  O342  1  0.00175628  0.50973943  0.61620893  1
  O  O343  1  0.50325659  0.00483818  0.11776550  1
  O  O344  1  0.50108646  0.00884227  0.61930381  1
  O  O345  1  0.50376616  0.50432743  0.11976406  1
  O  O346  1  0.50772247  0.50045139  0.61526356  1
  O  O347  1  0.23547294  0.37293711  0.24375777  1
  O  O348  1  0.24380499  0.37983200  0.73994336  1
  O  O349  1  0.24673305  0.88096284  0.25015060  1
  O  O350  1  0.25261827  0.89203309  0.74960745  1
  O  O351  1  0.74900914  0.37567730  0.23948053  1
  O  O352  1  0.73993460  0.38089318  0.74296611  1
  O  O353  1  0.73870074  0.87683384  0.25837796  1
  O  O354  1  0.75692831  0.88395601  0.73732386  1
  O  O355  1  0.25437264  0.11987835  0.25840034  1
  O  O356  1  0.25871825  0.11756336  0.75087607  1
  O  O357  1  0.26285947  0.62169131  0.24376293  1
  O  O358  1  0.25609751  0.62224152  0.75158645  1
  O  O359  1  0.75923984  0.12284602  0.25739455  1
  O  O360  1  0.75660648  0.12371648  0.76097809  1
  O  O361  1  0.75577006  0.62081287  0.25667063  1
  O  O362  1  0.75649099  0.61616778  0.74818445  1
  O  O363  1  0.36670837  0.12724657  0.36541732  1
  O  O364  1  0.37039510  0.12470842  0.86834332  1
  O  O365  1  0.38270049  0.61436873  0.36404752  1
  O  O366  1  0.36724700  0.61970267  0.86490297  1
  O  O367  1  0.86766972  0.12362961  0.36609971  1
  O  O368  1  0.86957260  0.11735756  0.88144500  1
  O  O369  1  0.85881463  0.63261319  0.36573745  1
  O  O370  1  0.86960265  0.61631065  0.86634564  1
  O  O371  1  0.13593905  0.37488281  0.12287637  1
  O  O372  1  0.13047174  0.37256435  0.63607722  1
  O  O373  1  0.12956592  0.88312427  0.13283418  1
  O  O374  1  0.12715532  0.87869012  0.62867154  1
  O  O375  1  0.63568667  0.37927860  0.12408778  1
  O  O376  1  0.63033033  0.37793472  0.63076426  1
  O  O377  1  0.61814271  0.88552856  0.13775918  1
  O  O378  1  0.64022675  0.87485595  0.62312056  1
  O  O379  1  0.11588785  0.25992876  0.24992677  1
  O  O380  1  0.12558708  0.26402571  0.75770741  1
  O  O381  1  0.13074696  0.76326913  0.24533376  1
  O  O382  1  0.11101553  0.75026200  0.75152735  1
  O  O383  1  0.61704855  0.24843362  0.25694755  1
  O  O384  1  0.63033868  0.25796367  0.75773764  1
  O  O385  1  0.62291126  0.75711008  0.25121394  1
  O  O386  1  0.61506464  0.74843536  0.75243828  1
  O  O387  1  0.38000998  0.24262536  0.24455352  1
  O  O388  1  0.37169659  0.23866432  0.74324825  1
  O  O389  1  0.37833485  0.74171102  0.24521205  1
  O  O390  1  0.37045177  0.73827134  0.75014561  1
  O  O391  1  0.88393863  0.24105119  0.24666144  1
  O  O392  1  0.87256704  0.25473274  0.73516180  1
  O  O393  1  0.86701600  0.74007095  0.23602088  1
  O  O394  1  0.88543754  0.74534599  0.74242372  1
  O  O395  1  0.38404883  0.50159308  0.49021254  1
  O  O396  1  0.37909770  0.49216723  0.99289695  1
  O  O397  1  0.38638374  0.99256124  0.50011569  1
  O  O398  1  0.37845486  0.99600799  0.99880669  1
  O  O399  1  0.88528136  0.48707870  0.50622548  1
  O  O400  1  0.87192894  0.49281747  0.98819525  1
  O  O401  1  0.88707522  0.99722278  0.49433110  1
  O  O402  1  0.88358459  0.99974210  0.99376187  1
  O  O403  1  0.12068882  0.00694233  0.00967366  1
  O  O404  1  0.12092314  0.01384228  0.49871608  1
  O  O405  1  0.12413186  0.51316065  -0.00050919  1
  O  O406  1  0.11962947  0.51271409  0.50136686  1
  O  O407  1  0.61616934  0.00335493  0.01128608  1
  O  O408  1  0.61415247  0.00630019  0.50444243  1
  O  O409  1  0.61611820  0.49382540  0.01098148  1
  O  O410  1  0.61609645  0.49265149  0.50995160  1
  O  O411  1  0.36649965  0.36825218  0.12019887  1
  O  O412  1  0.36763181  0.36429377  0.63207483  1
  O  O413  1  0.36968308  0.86959594  0.12149595  1
  O  O414  1  0.37254430  0.87833238  0.61260814  1
  O  O415  1  0.86354784  0.37687169  0.11584511  1
  O  O416  1  0.87028888  0.36211840  0.61769602  1
  O  O417  1  0.88109008  0.86023997  0.12738253  1
  O  O418  1  0.86947258  0.86608136  0.62128278  1
  O  O419  1  0.13711155  0.12542431  0.38252541  1
  O  O420  1  0.12938397  0.13488934  0.88732679  1
  O  O421  1  0.12387932  0.62265026  0.38003020  1
  O  O422  1  0.13141430  0.62844644  0.88062513  1
  O  O423  1  0.63090251  0.12998304  0.38080394  1
  O  O424  1  0.63407275  0.13056618  0.87633329  1
  O  O425  1  0.63307410  0.63776867  0.37078661  1
  O  O426  1  0.63143722  0.60875833  0.88208469  1
