# generated using pymatgen
data_V85Zn86O256
_symmetry_space_group_name_H-M   'P 1'
_cell_length_a   16.92284365
_cell_length_b   16.92840550
_cell_length_c   16.93577495
_cell_angle_alpha   89.95500735
_cell_angle_beta   90.00765542
_cell_angle_gamma   90.02388687
_symmetry_Int_Tables_number   1
_chemical_formula_structural   V85Zn86O256
_chemical_formula_sum   'V85 Zn86 O256'
_cell_volume   4851.70396903
_cell_formula_units_Z   1
loop_
 _symmetry_equiv_pos_site_id
 _symmetry_equiv_pos_as_xyz
  1  'x, y, z'
loop_
 _atom_site_type_symbol
 _atom_site_label
 _atom_site_symmetry_multiplicity
 _atom_site_fract_x
 _atom_site_fract_y
 _atom_site_fract_z
 _atom_site_occupancy
  V  V0  1  0.25490989  0.88501343  0.62921812  1
  V  V1  1  0.12786330  0.87431867  0.25025853  1
  V  V2  1  0.12705465  0.00460554  0.12096541  1
  V  V3  1  0.37052210  0.23814353  0.12828545  1
  V  V4  1  0.49895556  0.74578103  0.75259456  1
  V  V5  1  0.87531523  0.00374236  0.87411949  1
  V  V6  1  0.74995589  0.61847978  0.37325854  1
  V  V7  1  0.61927135  0.63064982  0.49328065  1
  V  V8  1  0.87055993  0.87002390  0.01177312  1
  V  V9  1  0.87592247  -0.00182640  0.37433169  1
  V  V10  1  0.87691638  0.14257219  0.74943686  1
  V  V11  1  0.36676158  0.49755481  0.37573734  1
  V  V12  1  0.74474594  0.75130863  0.49292341  1
  V  V13  1  0.87566636  0.87417764  0.49998263  1
  V  V14  1  0.50795587  0.00685612  0.49731694  1
  V  V15  1  0.74979969  0.50164079  0.74869930  1
  V  V16  1  0.62260180  0.37046767  0.75053966  1
  V  V17  1  0.74140935  0.63737971  0.87207262  1
  V  V18  1  0.00498239  0.50480430  -0.00239897  1
  V  V19  1  0.61633128  0.50811647  0.12829893  1
  V  V20  1  0.49788377  0.50176693  -0.00236344  1
  V  V21  1  0.12065048  0.37130858  0.74980439  1
  V  V22  1  0.24283638  0.61969000  0.88437090  1
  V  V23  1  0.50924974  0.86974583  0.37628761  1
  V  V24  1  0.62714403  0.24735830  0.38048696  1
  V  V25  1  0.12472401  0.12109142  0.49932016  1
  V  V26  1  0.24206529  0.11644252  0.86307014  1
  V  V27  1  0.49561505  0.24143220  0.25247940  1
  V  V28  1  0.37376625  0.87964368  0.50033642  1
  V  V29  1  0.25805134  0.87293113  0.12376293  1
  V  V30  1  0.36595799  0.62134838  0.24887216  1
  V  V31  1  0.12640763  0.50715341  0.12278102  1
  V  V32  1  0.00347310  0.50691753  0.49772938  1
  V  V33  1  0.00267815  0.63541192  0.12225708  1
  V  V34  1  0.87071366  0.25498336  0.12336361  1
  V  V35  1  0.00479336  0.87246502  0.37707094  1
  V  V36  1  0.87541659  0.62632382  0.74860855  1
  V  V37  1  0.62667210  0.00905612  0.62166956  1
  V  V38  1  0.75068555  0.00151339  0.75075805  1
  V  V39  1  -0.00426482  0.13626342  0.62766029  1
  V  V40  1  0.38436096  0.74373463  0.12344080  1
  V  V41  1  0.50042497  0.62335690  0.62808110  1
  V  V42  1  0.49832499  0.87285246  0.87510529  1
  V  V43  1  0.87553770  0.12514458  0.24856304  1
  V  V44  1  0.37344112  0.36964279  -0.00270851  1
  V  V45  1  0.14150303  0.73981834  0.38590793  1
  V  V46  1  0.51116798  0.00570361  -0.00212584  1
  V  V47  1  0.50308841  0.73976843  0.26267098  1
  V  V48  1  0.63047277  0.38085841  0.25437539  1
  V  V49  1  0.55985185  0.31714061  0.91764237  1
  V  V50  1  0.62509015  0.86889064  0.75238630  1
  V  V51  1  0.25780803  0.25413683  0.49982175  1
  V  V52  1  0.74916294  0.87446713  0.62362873  1
  V  V53  1  0.00172340  0.75267896  0.74930761  1
  V  V54  1  0.26543609  0.00374303  0.24628506  1
  V  V55  1  0.25539412  0.37766270  0.62600855  1
  V  V56  1  0.74777674  0.12197359  0.37818077  1
  V  V57  1  0.75399357  0.37287370  0.62517070  1
  V  V58  1  0.74535688  -0.00765900  0.23613256  1
  V  V59  1  0.49385942  0.37195917  0.37798637  1
  V  V60  1  0.51572254  0.12457533  0.11975634  1
  V  V61  1  0.61768389  0.63327195  -0.00570364  1
  V  V62  1  -0.00127255  0.87539051  0.87632969  1
  V  V63  1  0.00271976  0.12823487  0.11764586  1
  V  V64  1  0.62510163  0.49963199  0.62398689  1
  V  V65  1  0.12855574  0.50282278  0.62855477  1
  V  V66  1  0.35569722  0.72872942  0.60153940  1
  V  V67  1  -0.00072140  0.37669618  0.37364829  1
  V  V68  1  0.24754645  0.37493949  0.12456402  1
  V  V69  1  0.24113468  0.23617452  -0.00002755  1
  V  V70  1  0.13061613  0.88298497  0.75169961  1
  V  V71  1  0.49600484  0.24900037  0.74924842  1
  V  V72  1  0.87366535  0.50401126  0.88143450  1
  V  V73  1  0.36491989  0.62139612  0.75400326  1
  V  V74  1  0.37214621  0.49033872  0.87064846  1
  V  V75  1  0.75283085  0.24457434  0.50689712  1
  V  V76  1  0.73711909  0.13266170  0.88133418  1
  V  V77  1  0.12361080  0.24887129  0.37346030  1
  V  V78  1  0.00643417  0.62903837  0.61989160  1
  V  V79  1  0.25894370  0.12381432  0.37088282  1
  V  V80  1  0.87678647  0.37235974  0.50560585  1
  V  V81  1  0.49409818  0.49423471  0.50094841  1
  V  V82  1  0.75156993  0.39004416  0.12653925  1
  V  V83  1  0.11459988  0.24767093  0.87592278  1
  V  V84  1  0.87123592  0.62598173  0.24480168  1
  Zn  Zn85  1  0.00098932  -0.00054440  0.50335331  1
  Zn  Zn86  1  0.37773491  0.87451811  -0.00172243  1
  Zn  Zn87  1  0.87607341  0.75094453  0.62245942  1
  Zn  Zn88  1  -0.00146222  0.25247142  0.24843264  1
  Zn  Zn89  1  0.00182446  0.00280409  -0.00067860  1
  Zn  Zn90  1  -0.00130549  0.75186027  0.24826582  1
  Zn  Zn91  1  0.38325837  0.00110693  0.36797669  1
  Zn  Zn92  1  0.87244294  0.37690275  -0.00179744  1
  Zn  Zn93  1  0.49854199  0.12766426  0.62116255  1
  Zn  Zn94  1  0.24466893  0.50012995  0.25527406  1
  Zn  Zn95  1  0.24719470  0.74427723  0.00439781  1
  Zn  Zn96  1  0.37640625  0.25209779  0.62290689  1
  Zn  Zn97  1  0.12422555  0.74506511  0.88141384  1
  Zn  Zn98  1  0.87174114  0.49923538  0.37310680  1
  Zn  Zn99  1  -0.00505405  0.37350905  0.87009661  1
  Zn  Zn100  1  0.37057851  -0.00236522  0.86980145  1
  Zn  Zn101  1  0.73527640  0.25250220  0.00149609  1
  Zn  Zn102  1  0.36815954  0.11969632  0.74114338  1
  Zn  Zn103  1  0.63434851  0.86522399  0.24303395  1
  Zn  Zn104  1  0.12599022  0.00414730  0.63017093  1
  Zn  Zn105  1  0.12236048  0.37676249  0.24874946  1
  Zn  Zn106  1  0.74335763  0.76000089  0.01130610  1
  Zn  Zn107  1  0.18583827  0.18725360  0.19069650  1
  Zn  Zn108  1  0.18140943  0.19345492  0.68649942  1
  Zn  Zn109  1  0.18845212  0.69007531  0.19044424  1
  Zn  Zn110  1  0.18598829  0.69029408  0.69167779  1
  Zn  Zn111  1  0.69108896  0.19197737  0.19191875  1
  Zn  Zn112  1  0.68760442  0.18849928  0.69299761  1
  Zn  Zn113  1  0.68379359  0.68621421  0.18812356  1
  Zn  Zn114  1  0.68660334  0.68946232  0.68170702  1
  Zn  Zn115  1  0.31155826  0.31166126  0.31002326  1
  Zn  Zn116  1  0.30493303  0.30772385  0.80970478  1
  Zn  Zn117  1  0.31856985  0.81515788  0.31175348  1
  Zn  Zn118  1  0.31369600  0.80619779  0.80943379  1
  Zn  Zn119  1  0.81256221  0.31386316  0.31375513  1
  Zn  Zn120  1  0.80867351  0.31490459  0.81644642  1
  Zn  Zn121  1  0.81348054  0.80795188  0.31153913  1
  Zn  Zn122  1  0.81497300  0.81301191  0.81410585  1
  Zn  Zn123  1  0.18263433  0.43680154  0.44262118  1
  Zn  Zn124  1  0.18724449  0.43507098  0.93807106  1
  Zn  Zn125  1  0.19342865  0.93623041  0.43717646  1
  Zn  Zn126  1  0.18473134  0.93364271  0.94177617  1
  Zn  Zn127  1  0.68461119  0.43725335  0.44086485  1
  Zn  Zn128  1  0.69454352  0.44962628  0.94338958  1
  Zn  Zn129  1  0.68577833  0.93709874  0.43255172  1
  Zn  Zn130  1  0.68771317  0.93723538  0.93511964  1
  Zn  Zn131  1  0.32029465  0.05683217  0.05641769  1
  Zn  Zn132  1  0.31508134  0.06344053  0.56202064  1
  Zn  Zn133  1  0.31605260  0.56018971  0.06377003  1
  Zn  Zn134  1  0.31242777  0.55929164  0.56025629  1
  Zn  Zn135  1  0.81280805  0.06419244  0.05772068  1
  Zn  Zn136  1  0.81644338  0.06195086  0.56374759  1
  Zn  Zn137  1  0.79220573  0.59811531  0.07891240  1
  Zn  Zn138  1  0.81622458  0.56379286  0.56034363  1
  Zn  Zn139  1  0.43589406  0.43166941  0.18883401  1
  Zn  Zn140  1  0.43804467  0.43390626  0.69144516  1
  Zn  Zn141  1  0.47184252  0.92026117  0.17233245  1
  Zn  Zn142  1  0.43639799  0.93962229  0.68761922  1
  Zn  Zn143  1  0.93748587  0.44705786  0.18900229  1
  Zn  Zn144  1  0.93935942  0.43966285  0.68779028  1
  Zn  Zn145  1  0.94007795  0.93992328  0.18926220  1
  Zn  Zn146  1  0.94003363  0.94415676  0.68575451  1
  Zn  Zn147  1  0.06459087  0.05967324  0.30870096  1
  Zn  Zn148  1  0.06022876  0.06586839  0.81111021  1
  Zn  Zn149  1  0.06333669  0.56584165  0.30894818  1
  Zn  Zn150  1  0.06261418  0.55964519  0.80727000  1
  Zn  Zn151  1  0.56541789  0.06227151  0.31079565  1
  Zn  Zn152  1  0.55820599  0.05854154  0.80800308  1
  Zn  Zn153  1  0.55761391  0.56270109  0.31580898  1
  Zn  Zn154  1  0.55827603  0.55630166  0.81574869  1
  Zn  Zn155  1  0.43697464  0.18597218  0.43998481  1
  Zn  Zn156  1  0.42744890  0.17885108  0.93882533  1
  Zn  Zn157  1  0.41644993  0.68153343  0.44169588  1
  Zn  Zn158  1  0.43359751  0.68674336  0.93595126  1
  Zn  Zn159  1  0.93677830  0.18808333  0.43963236  1
  Zn  Zn160  1  0.93124715  0.18913575  0.94005418  1
  Zn  Zn161  1  0.93768660  0.69100542  0.43319079  1
  Zn  Zn162  1  0.93635010  0.68819399  0.93842903  1
  Zn  Zn163  1  0.05949365  0.31832572  0.05918327  1
  Zn  Zn164  1  0.06722120  0.31368490  0.55963655  1
  Zn  Zn165  1  0.06743538  0.81538665  0.05779330  1
  Zn  Zn166  1  0.06984742  0.81275640  0.56111396  1
  Zn  Zn167  1  0.55911524  0.31799278  0.08058766  1
  Zn  Zn168  1  0.56458445  0.31136249  0.56303801  1
  Zn  Zn169  1  0.56336301  0.81387652  0.06615144  1
  Zn  Zn170  1  0.55674022  0.81309057  0.56645692  1
  O  O171  1  0.11415950  0.11833861  0.13338547  1
  O  O172  1  0.11657010  0.12542115  0.61703359  1
  O  O173  1  0.11956991  0.61507076  0.13105087  1
  O  O174  1  0.11561815  0.62021303  0.62999066  1
  O  O175  1  0.61478383  0.13725672  0.12507743  1
  O  O176  1  0.62656391  0.11197902  0.62959943  1
  O  O177  1  0.61727662  0.61124742  0.11776663  1
  O  O178  1  0.61941600  0.61813861  0.61571527  1
  O  O179  1  0.38826395  0.37776331  0.36823832  1
  O  O180  1  0.36174843  0.38213774  0.88055093  1
  O  O181  1  0.38296161  0.87965026  0.38532083  1
  O  O182  1  0.38745866  0.87208135  0.87201572  1
  O  O183  1  0.88094120  0.37750451  0.38479466  1
  O  O184  1  0.87497413  0.38769506  0.87520707  1
  O  O185  1  0.88407719  0.87685028  0.37970749  1
  O  O186  1  0.88507672  0.88407133  0.87534732  1
  O  O187  1  0.25270008  0.00775164  0.36496089  1
  O  O188  1  0.24254378  0.01451087  0.88107196  1
  O  O189  1  0.26236848  0.48738816  0.37686116  1
  O  O190  1  0.25802281  0.50867660  0.87849418  1
  O  O191  1  0.75694105  0.00766069  0.37030278  1
  O  O192  1  0.75627289  0.00942736  0.86990755  1
  O  O193  1  0.75010749  0.51393296  0.38575012  1
  O  O194  1  0.75683475  0.50897888  0.86489802  1
  O  O195  1  0.24320392  0.49101804  0.12331567  1
  O  O196  1  0.23971176  0.49290776  0.61372429  1
  O  O197  1  0.24703274  0.99754593  0.12954973  1
  O  O198  1  0.24751818  0.98932159  0.62347001  1
  O  O199  1  0.73748139  0.49508262  0.12254818  1
  O  O200  1  0.74610454  0.49569367  0.62908024  1
  O  O201  1  0.75600159  1.00490024  0.13828709  1
  O  O202  1  0.74566652  0.99419320  0.62998120  1
  O  O203  1  -0.00289705  0.37536429  0.26325611  1
  O  O204  1  0.01331959  0.38055551  0.75100417  1
  O  O205  1  0.00957999  0.87474720  0.25702870  1
  O  O206  1  0.00358549  0.86923456  0.75506354  1
  O  O207  1  0.50946889  0.36210333  0.25635432  1
  O  O208  1  0.50884225  0.36399490  0.75181443  1
  O  O209  1  0.48478040  0.85461138  0.26741308  1
  O  O210  1  0.50669284  0.86529241  0.75216956  1
  O  O211  1  0.50494930  0.13545702  0.24321680  1
  O  O212  1  0.50583016  0.14079481  0.74791292  1
  O  O213  1  0.48909773  0.63441261  0.25628257  1
  O  O214  1  0.49445304  0.62920235  0.74911709  1
  O  O215  1  0.98760175  0.12571745  0.24445593  1
  O  O216  1  0.99246109  0.12523553  0.73703520  1
  O  O217  1  0.99290490  0.62928557  0.24153273  1
  O  O218  1  0.99689996  0.63430240  0.74288516  1
  O  O219  1  0.36446405  0.25318544  0.00671293  1
  O  O220  1  0.36164649  0.25126321  0.49757231  1
  O  O221  1  0.37197614  0.75045598  0.01016447  1
  O  O222  1  0.40381209  0.77615797  0.50928286  1
  O  O223  1  0.87095091  0.25484240  0.01441921  1
  O  O224  1  0.86503781  0.26004706  0.49549131  1
  O  O225  1  0.87446788  0.76790321  -0.00554183  1
  O  O226  1  0.86690740  0.75862744  0.50030454  1
  O  O227  1  0.13094735  0.24012233  0.48908471  1
  O  O228  1  0.13227855  0.25697755  0.99249690  1
  O  O229  1  0.12854336  0.75231940  0.48547378  1
  O  O230  1  0.13410411  0.75483325  0.99347494  1
  O  O231  1  0.63446209  0.25528836  0.48737435  1
  O  O232  1  0.61553619  0.26708320  0.99066410  1
  O  O233  1  0.62993666  0.74117418  0.50712786  1
  O  O234  1  0.62151639  0.73751677  1.00418315  1
  O  O235  1  0.49061631  0.24386528  0.13337583  1
  O  O236  1  0.49900779  0.25001147  0.63230650  1
  O  O237  1  0.48734141  0.74852835  0.13977867  1
  O  O238  1  0.48968329  0.73952446  0.63336462  1
  O  O239  1  0.99236347  0.24679744  0.12762394  1
  O  O240  1  1.00358707  0.23554622  0.61696919  1
  O  O241  1  1.00760058  0.73837891  0.12423548  1
  O  O242  1  1.00139093  0.74529328  0.63058147  1
  O  O243  1  0.00651125  0.25739001  0.37495633  1
  O  O244  1  0.01003440  0.25245782  0.88510187  1
  O  O245  1  0.00933458  0.76281505  0.37392703  1
  O  O246  1  -0.00076425  0.75791037  0.86655352  1
  O  O247  1  0.50608507  0.25225561  0.37198204  1
  O  O248  1  0.49582724  0.24893598  0.87045449  1
  O  O249  1  0.49314498  0.75056769  0.36889035  1
  O  O250  1  0.49470335  0.75506375  0.86088869  1
  O  O251  1  0.24241553  0.13144483  0.49225879  1
  O  O252  1  0.24995492  0.13377591  0.99715023  1
  O  O253  1  0.31943972  0.66375171  0.51870965  1
  O  O254  1  0.25352117  0.62149182  0.98728128  1
  O  O255  1  0.75905411  0.13305689  0.49103076  1
  O  O256  1  0.75009646  0.12941265  0.98650458  1
  O  O257  1  0.74190053  0.63236170  0.49725730  1
  O  O258  1  0.73175946  0.61369677  0.98249895  1
  O  O259  1  0.25258158  0.36529406  0.01080041  1
  O  O260  1  0.24004183  0.36361526  0.51050871  1
  O  O261  1  0.25507359  0.87733485  0.01473610  1
  O  O262  1  0.26410491  0.87957634  0.50949359  1
  O  O263  1  0.75221502  0.37587742  0.01172669  1
  O  O264  1  0.75759321  0.36937381  0.50480696  1
  O  O265  1  0.76336196  0.87494507  -0.00478007  1
  O  O266  1  0.75378125  0.86802759  0.50025542  1
  O  O267  1  0.12647460  0.49619818  0.24014555  1
  O  O268  1  0.12364947  0.49358686  0.73487737  1
  O  O269  1  0.13369135  0.99043106  0.24197355  1
  O  O270  1  0.11902650  0.98650163  0.74981491  1
  O  O271  1  0.61228846  0.49178127  0.24268150  1
  O  O272  1  0.62741580  0.49049483  0.74423415  1
  O  O273  1  0.64492149  1.00262667  0.25310300  1
  O  O274  1  0.63081430  0.99099216  0.74137664  1
  O  O275  1  0.36611733  -0.00439037  0.24702690  1
  O  O276  1  0.38650398  0.00846528  0.75769868  1
  O  O277  1  0.37445546  0.50255826  0.25677961  1
  O  O278  1  0.38216558  0.50591083  0.76249603  1
  O  O279  1  0.86792228  0.00669704  0.25533525  1
  O  O280  1  0.86941126  0.00548484  0.76003241  1
  O  O281  1  0.87899678  0.51808086  0.25781964  1
  O  O282  1  0.87086256  0.50813386  0.75679469  1
  O  O283  1  0.11638002  0.36670247  0.37519862  1
  O  O284  1  0.12400154  0.36827160  0.86656188  1
  O  O285  1  0.12101661  0.87411084  0.36887743  1
  O  O286  1  0.11305175  0.87633964  0.86958749  1
  O  O287  1  0.61733643  0.37017067  0.37066459  1
  O  O288  1  0.62704870  0.38280820  0.86826148  1
  O  O289  1  0.61312371  0.87392116  0.36655872  1
  O  O290  1  0.61551613  0.87737934  0.86062201  1
  O  O291  1  0.38120942  0.13646348  0.11925943  1
  O  O292  1  0.37885398  0.13242821  0.62422234  1
  O  O293  1  0.37351362  0.63019331  0.13402922  1
  O  O294  1  0.38322723  0.61890266  0.64075542  1
  O  O295  1  0.87793903  0.13413592  0.13133033  1
  O  O296  1  0.88651567  0.12335978  0.63303089  1
  O  O297  1  0.88879527  0.61466360  0.13801021  1
  O  O298  1  0.88668445  0.62688249  0.63101496  1
  O  O299  1  0.25259237  0.25247850  0.12012863  1
  O  O300  1  0.24776364  0.25818931  0.61530820  1
  O  O301  1  0.26141509  0.75819394  0.12859442  1
  O  O302  1  0.26003461  0.75880027  0.63203015  1
  O  O303  1  0.75398066  0.26374768  0.12406890  1
  O  O304  1  0.74358704  0.25373263  0.61305031  1
  O  O305  1  0.75813812  0.70731001  0.10990858  1
  O  O306  1  0.75294947  0.75655985  0.61284176  1
  O  O307  1  0.24304645  0.24464148  0.37884157  1
  O  O308  1  0.23757385  0.24077367  0.88282521  1
  O  O309  1  0.24030588  0.75578906  0.37087779  1
  O  O310  1  0.25327621  0.73141091  0.87560709  1
  O  O311  1  0.74483860  0.24384179  0.38221272  1
  O  O312  1  0.75003999  0.23799873  0.87929874  1
  O  O313  1  0.75029191  0.74016514  0.38701254  1
  O  O314  1  0.75094536  0.73940637  0.87782662  1
  O  O315  1  -0.00812828  0.12262715  0.01443612  1
  O  O316  1  0.00574577  0.12329159  0.50708924  1
  O  O317  1  -0.00636779  0.61521660  0.00780391  1
  O  O318  1  -0.00620971  0.61940583  0.50806354  1
  O  O319  1  0.50064785  0.11531122  0.00199751  1
  O  O320  1  0.50193940  0.11204020  0.49759522  1
  O  O321  1  0.50456196  0.61393008  -0.00675772  1
  O  O322  1  0.50427161  0.61691678  0.50484981  1
  O  O323  1  0.50636006  0.38170436  0.49028844  1
  O  O324  1  0.49756792  0.37331501  0.99043987  1
  O  O325  1  0.50128208  0.88767755  0.49275905  1
  O  O326  1  0.50074464  0.88030272  0.98822836  1
  O  O327  1  0.99458568  0.38003614  0.49220519  1
  O  O328  1  0.99212643  0.39194505  0.99775415  1
  O  O329  1  0.99537292  0.87661879  0.49392000  1
  O  O330  1  0.99074833  0.87942340  0.99132832  1
  O  O331  1  0.49307080  0.48926750  0.38210112  1
  O  O332  1  0.48760182  0.49594658  0.88677239  1
  O  O333  1  0.50288806  0.99216952  0.37871644  1
  O  O334  1  0.50154932  0.99201431  0.88292927  1
  O  O335  1  1.00257100  0.49374591  0.38240762  1
  O  O336  1  0.99261507  0.50394221  0.88062790  1
  O  O337  1  0.99563710  0.98919782  0.37532887  1
  O  O338  1  0.99248855  0.99559674  0.87634092  1
  O  O339  1  0.00880894  0.01016047  0.12721296  1
  O  O340  1  0.00522349  0.01266851  0.62095794  1
  O  O341  1  0.00912227  0.50755009  0.11739358  1
  O  O342  1  0.00620848  0.51016882  0.61837558  1
  O  O343  1  0.49068616  0.01492587  0.10793961  1
  O  O344  1  0.51145751  -0.00037767  0.61522943  1
  O  O345  1  0.50494933  0.48395729  0.10932292  1
  O  O346  1  0.50321739  0.50188004  0.61870881  1
  O  O347  1  0.24845263  0.37458442  0.23559984  1
  O  O348  1  0.23520237  0.37034206  0.73810382  1
  O  O349  1  0.24753012  0.88262750  0.24044803  1
  O  O350  1  0.24148542  0.87064824  0.74485503  1
  O  O351  1  0.73767660  0.37489504  0.24758260  1
  O  O352  1  0.74373553  0.38041332  0.74398324  1
  O  O353  1  0.75134018  0.88579156  0.25235462  1
  O  O354  1  0.74344785  0.87810263  0.74662596  1
  O  O355  1  0.24555256  0.11643885  0.25928699  1
  O  O356  1  0.24403144  0.12696109  0.75997835  1
  O  O357  1  0.26133941  0.61944113  0.24787472  1
  O  O358  1  0.26070589  0.62504687  0.75677960  1
  O  O359  1  0.76047864  0.11982745  0.25631088  1
  O  O360  1  0.75890772  0.12172627  0.75735663  1
  O  O361  1  0.75938823  0.62788291  0.26070975  1
  O  O362  1  0.75253140  0.62226480  0.75282358  1
  O  O363  1  0.36272006  0.12258181  0.37712362  1
  O  O364  1  0.35140699  0.12677047  0.87169955  1
  O  O365  1  0.37823864  0.60732882  0.36401740  1
  O  O366  1  0.36688166  0.61363176  0.87098239  1
  O  O367  1  0.86888456  0.12155918  0.36735080  1
  O  O368  1  0.87067413  0.12004948  0.86801832  1
  O  O369  1  0.86672958  0.62309903  0.36986960  1
  O  O370  1  0.86607990  0.62234675  0.86729173  1
  O  O371  1  0.13097437  0.38355068  0.12619408  1
  O  O372  1  0.12939590  0.38220932  0.62960386  1
  O  O373  1  0.13410767  0.88185470  0.13337518  1
  O  O374  1  0.13541520  0.87565972  0.63346729  1
  O  O375  1  0.63237752  0.38460507  0.13604373  1
  O  O376  1  0.63223842  0.38104099  0.63201355  1
  O  O377  1  0.58287200  0.88703608  0.14568893  1
  O  O378  1  0.63046550  0.88091380  0.63379471  1
  O  O379  1  0.12141680  0.25292788  0.26260544  1
  O  O380  1  0.12329296  0.25860469  0.76155491  1
  O  O381  1  0.12543122  0.76461876  0.25569345  1
  O  O382  1  0.11412888  0.75912355  0.75550232  1
  O  O383  1  0.62073401  0.25785695  0.26287464  1
  O  O384  1  0.62076221  0.26392342  0.75023720  1
  O  O385  1  0.60734703  0.74490972  0.24926715  1
  O  O386  1  0.61403767  0.75749993  0.74071191  1
  O  O387  1  0.38385118  0.25210656  0.24202684  1
  O  O388  1  0.38292872  0.24799557  0.74779084  1
  O  O389  1  0.37967400  0.73804685  0.24729130  1
  O  O390  1  0.38118813  0.73637416  0.74133585  1
  O  O391  1  0.87327899  0.24341281  0.24089615  1
  O  O392  1  0.87203050  0.24186075  0.75312836  1
  O  O393  1  0.88070724  0.73323280  0.25644490  1
  O  O394  1  0.88600879  0.74641943  0.74686513  1
  O  O395  1  0.38687634  0.49876575  0.49212278  1
  O  O396  1  0.38089867  0.48956089  0.99554020  1
  O  O397  1  0.38682797  0.99280920  0.49834513  1
  O  O398  1  0.38691851  0.99456700  0.98860897  1
  O  O399  1  0.88715788  0.49291726  0.49819356  1
  O  O400  1  0.87718448  0.50592527  0.98604192  1
  O  O401  1  0.87539640  0.99060229  0.49181036  1
  O  O402  1  0.87531897  0.99300642  0.98760350  1
  O  O403  1  0.12176233  -0.00469436  0.01714142  1
  O  O404  1  0.12658987  0.01339265  0.49786320  1
  O  O405  1  0.11669781  0.49743552  0.00788835  1
  O  O406  1  0.11094560  0.49752379  0.51027898  1
  O  O407  1  0.61072868  -0.00411574  -0.00268892  1
  O  O408  1  0.62170293  -0.00490602  0.50915016  1
  O  O409  1  0.61413493  0.50564592  0.00606712  1
  O  O410  1  0.61352648  0.50608951  0.50520421  1
  O  O411  1  0.36759640  0.36301543  0.11867593  1
  O  O412  1  0.35968932  0.37593229  0.62963623  1
  O  O413  1  0.37272271  0.86509584  0.12529525  1
  O  O414  1  0.36820402  0.86997827  0.62027692  1
  O  O415  1  0.86667729  0.37344156  0.12952728  1
  O  O416  1  0.87164339  0.37993329  0.61364914  1
  O  O417  1  0.88079361  0.88078360  0.10998895  1
  O  O418  1  0.86822540  0.87668902  0.61729837  1
  O  O419  1  0.12959215  0.13079028  0.37942664  1
  O  O420  1  0.13103477  0.13273447  0.87326955  1
  O  O421  1  0.12552254  0.64100162  0.36897949  1
  O  O422  1  0.14068229  0.62138448  0.86637289  1
  O  O423  1  0.63921947  0.13302359  0.37068967  1
  O  O424  1  0.64006265  0.12080127  0.86714838  1
  O  O425  1  0.62981628  0.62043072  0.38732753  1
  O  O426  1  0.62911854  0.62106253  0.88021561  1
