# generated using pymatgen
data_V85Zn86O256
_symmetry_space_group_name_H-M   'P 1'
_cell_length_a   16.94472695
_cell_length_b   16.94093056
_cell_length_c   16.94035965
_cell_angle_alpha   89.92881840
_cell_angle_beta   89.94209814
_cell_angle_gamma   90.02806478
_symmetry_Int_Tables_number   1
_chemical_formula_structural   V85Zn86O256
_chemical_formula_sum   'V85 Zn86 O256'
_cell_volume   4862.88337392
_cell_formula_units_Z   1
loop_
 _symmetry_equiv_pos_site_id
 _symmetry_equiv_pos_as_xyz
  1  'x, y, z'
loop_
 _atom_site_type_symbol
 _atom_site_label
 _atom_site_symmetry_multiplicity
 _atom_site_fract_x
 _atom_site_fract_y
 _atom_site_fract_z
 _atom_site_occupancy
  V  V0  1  -0.00217574  0.61292528  0.12583475  1
  V  V1  1  0.37135641  0.87283906  -0.00270023  1
  V  V2  1  0.61960134  0.12433156  0.00797913  1
  V  V3  1  0.44812575  0.43250135  0.32772210  1
  V  V4  1  0.25258314  0.12250404  0.86367395  1
  V  V5  1  0.48674337  0.24644868  0.74853861  1
  V  V6  1  0.75490958  0.63313268  0.37171764  1
  V  V7  1  0.87436252  0.12894992  0.24719177  1
  V  V8  1  0.12197880  0.37886914  0.75305090  1
  V  V9  1  0.57477056  0.69439217  0.43221456  1
  V  V10  1  0.01099189  0.00347657  0.50120636  1
  V  V11  1  0.24751850  -0.00135291  0.24699919  1
  V  V12  1  0.75032014  -0.00075080  0.25008528  1
  V  V13  1  0.74856884  0.37737775  0.62248326  1
  V  V14  1  0.87264268  0.86408593  0.00019493  1
  V  V15  1  0.50170211  0.23846066  0.24677265  1
  V  V16  1  0.00097130  -0.00416113  -0.00012573  1
  V  V17  1  0.25190132  0.38650673  0.13009525  1
  V  V18  1  0.50073998  0.37467124  0.87509712  1
  V  V19  1  0.12341678  0.86716840  0.24948875  1
  V  V20  1  0.87415375  -0.00257437  0.87425890  1
  V  V21  1  0.25514439  0.60752692  0.36072626  1
  V  V22  1  0.91930743  0.30688700  0.06693814  1
  V  V23  1  0.00010565  0.50131952  0.50466664  1
  V  V24  1  0.12669756  0.62732154  0.49516083  1
  V  V25  1  0.12149767  0.60943751  0.00455135  1
  V  V26  1  0.62394649  0.24906076  0.87485545  1
  V  V27  1  0.61635905  0.51408085  0.61540645  1
  V  V28  1  0.87478917  0.50589538  0.37716690  1
  V  V29  1  0.62476908  0.87060761  0.25293324  1
  V  V30  1  0.47946680  0.12767995  0.62758313  1
  V  V31  1  0.18532152  0.93311170  0.69201967  1
  V  V32  1  0.62781151  0.74927319  0.88956617  1
  V  V33  1  0.75034413  0.24865206  0.00366277  1
  V  V34  1  -0.00349358  0.12366439  0.12280878  1
  V  V35  1  -0.00685354  0.74605949  0.24785193  1
  V  V36  1  0.50399453  0.87541978  0.86812161  1
  V  V37  1  0.62495036  0.37411658  0.74976745  1
  V  V38  1  0.75054793  0.25050867  0.49901005  1
  V  V39  1  0.37795430  0.50294888  0.87573819  1
  V  V40  1  0.37099038  0.74533763  0.12798595  1
  V  V41  1  0.37045258  0.75237100  0.62666668  1
  V  V42  1  0.74857365  0.86920511  0.12087520  1
  V  V43  1  0.87429192  0.12339276  0.74722688  1
  V  V44  1  0.25051295  0.50120851  0.74960279  1
  V  V45  1  0.87566455  0.75273580  0.62549378  1
  V  V46  1  0.25228499  0.24465282  0.00317972  1
  V  V47  1  0.23952044  0.12435168  0.38173900  1
  V  V48  1  0.01320857  0.12155638  0.62261787  1
  V  V49  1  0.49665111  0.00168885  0.00645508  1
  V  V50  1  0.50235248  0.87627228  0.37732416  1
  V  V51  1  0.25384698  0.36783229  0.62580056  1
  V  V52  1  0.74965763  0.12560466  0.37520043  1
  V  V53  1  0.37209591  0.00170494  0.86272964  1
  V  V54  1  0.87997757  0.49300213  0.88674337  1
  V  V55  1  0.74760586  0.62805040  0.88989149  1
  V  V56  1  0.00053096  0.25075295  0.25206592  1
  V  V57  1  0.87684300  0.62766310  0.75262480  1
  V  V58  1  0.24912107  0.62552777  0.87578698  1
  V  V59  1  0.51085046  0.74908469  0.74353200  1
  V  V60  1  0.74141580  -0.00712480  0.74790039  1
  V  V61  1  0.38768210  0.37935608  0.50789298  1
  V  V62  1  0.74812458  0.12403541  0.87587869  1
  V  V63  1  0.49739578  0.74444613  0.24939907  1
  V  V64  1  0.24554172  0.74851833  0.49223556  1
  V  V65  1  0.87473069  0.24931441  0.62440384  1
  V  V66  1  0.50694275  0.62873181  0.11785578  1
  V  V67  1  0.12490227  0.75016464  0.87351270  1
  V  V68  1  0.75480345  0.50648548  0.24885161  1
  V  V69  1  0.37460298  0.00279733  0.37531918  1
  V  V70  1  0.00161003  0.37555334  0.37750960  1
  V  V71  1  0.00251679  0.86951291  0.37762506  1
  V  V72  1  0.61774924  0.25292398  0.37757956  1
  V  V73  1  0.75095118  0.74850579  0.49937257  1
  V  V74  1  0.51248978  0.50649999  -0.00604998  1
  V  V75  1  0.37783215  0.24058205  0.12525553  1
  V  V76  1  0.62735818  0.37662141  0.25309443  1
  V  V77  1  0.62338795  0.12333064  0.50710624  1
  V  V78  1  0.00016857  0.25206107  0.75085450  1
  V  V79  1  0.36831132  0.87584005  0.50317963  1
  V  V80  1  0.12940492  0.38777460  0.25185258  1
  V  V81  1  0.75059832  0.50286936  0.75078761  1
  V  V82  1  0.00315400  0.87404448  0.86624914  1
  V  V83  1  0.37937467  0.62511144  0.73999878  1
  V  V84  1  0.75077162  0.37275539  0.12241798  1
  Zn  Zn85  1  0.12734455  0.12107270  -0.00048000  1
  Zn  Zn86  1  0.87571043  0.37563537  0.49987500  1
  Zn  Zn87  1  0.87629248  0.00042758  0.37818706  1
  Zn  Zn88  1  0.87411964  0.87860238  0.50084045  1
  Zn  Zn89  1  0.87155235  0.74254693  0.12456411  1
  Zn  Zn90  1  0.00761980  0.75406166  0.74439302  1
  Zn  Zn91  1  0.24604170  0.74827131  0.00213189  1
  Zn  Zn92  1  0.12205401  0.24730892  0.38619160  1
  Zn  Zn93  1  0.61874379  0.00239287  0.12872055  1
  Zn  Zn94  1  0.37729481  0.12043617  0.24747544  1
  Zn  Zn95  1  0.12746646  0.50333290  0.62592877  1
  Zn  Zn96  1  -0.00119070  0.37530429  0.89002135  1
  Zn  Zn97  1  0.61716257  -0.00306864  0.63066524  1
  Zn  Zn98  1  0.00273709  0.62810881  0.62484268  1
  Zn  Zn99  1  0.74035082  0.87098491  0.62639600  1
  Zn  Zn100  1  0.25037202  0.24824004  0.50714455  1
  Zn  Zn101  1  0.63152022  0.50720902  0.11867676  1
  Zn  Zn102  1  0.12637640  0.24894989  0.87582518  1
  Zn  Zn103  1  0.24660521  0.87332903  0.12272826  1
  Zn  Zn104  1  0.49838372  0.00092920  0.50328065  1
  Zn  Zn105  1  0.12442572  -0.00253964  0.12370883  1
  Zn  Zn106  1  0.37504284  0.37477251  -0.00103932  1
  Zn  Zn107  1  0.18481223  0.18604958  0.18971510  1
  Zn  Zn108  1  0.18712849  0.18921556  0.68960116  1
  Zn  Zn109  1  0.18242813  0.68639363  0.18669219  1
  Zn  Zn110  1  0.18786192  0.69046546  0.68363367  1
  Zn  Zn111  1  0.68817878  0.18945355  0.18611926  1
  Zn  Zn112  1  0.68535998  0.18681629  0.68891646  1
  Zn  Zn113  1  0.68547800  0.69029622  0.18860787  1
  Zn  Zn114  1  0.69059323  0.68799313  0.69033694  1
  Zn  Zn115  1  0.31202310  0.30891150  0.31258678  1
  Zn  Zn116  1  0.31032539  0.31388852  0.81535316  1
  Zn  Zn117  1  0.31143468  0.81029058  0.31424759  1
  Zn  Zn118  1  0.31145182  0.81158777  0.81177296  1
  Zn  Zn119  1  0.81486723  0.31408872  0.31225241  1
  Zn  Zn120  1  0.81230049  0.31292320  0.81331215  1
  Zn  Zn121  1  0.81762350  0.81468393  0.31266250  1
  Zn  Zn122  1  0.81134902  0.81129203  0.81488757  1
  Zn  Zn123  1  0.18719596  0.43462704  0.44119878  1
  Zn  Zn124  1  0.19042467  0.43406390  0.93805062  1
  Zn  Zn125  1  0.18556981  0.93511038  0.43619616  1
  Zn  Zn126  1  0.18702879  0.93732243  0.93046187  1
  Zn  Zn127  1  0.68407896  0.44137290  0.43742817  1
  Zn  Zn128  1  0.69275667  0.43663030  0.93651681  1
  Zn  Zn129  1  0.68580269  0.93656664  0.44017973  1
  Zn  Zn130  1  0.68475635  0.93633734  0.93696522  1
  Zn  Zn131  1  0.31338972  0.06056007  0.06042302  1
  Zn  Zn132  1  0.30393502  0.05536612  0.56469261  1
  Zn  Zn133  1  0.31798729  0.56690425  0.05987402  1
  Zn  Zn134  1  0.31295113  0.55558943  0.55830850  1
  Zn  Zn135  1  0.81321100  0.05859273  0.06365548  1
  Zn  Zn136  1  0.81654534  0.06092886  0.56250966  1
  Zn  Zn137  1  0.81657313  0.56142954  0.06404400  1
  Zn  Zn138  1  0.80912065  0.56750339  0.56196889  1
  Zn  Zn139  1  0.44123628  0.43229892  0.16609741  1
  Zn  Zn140  1  0.43892894  0.43655375  0.68593452  1
  Zn  Zn141  1  0.43355454  0.93177819  0.18762141  1
  Zn  Zn142  1  0.43594451  0.93588770  0.68546399  1
  Zn  Zn143  1  0.94038207  0.44312918  0.19662418  1
  Zn  Zn144  1  0.93498312  0.43834531  0.68913744  1
  Zn  Zn145  1  0.93530784  0.93617953  0.18806580  1
  Zn  Zn146  1  0.93561240  0.93898092  0.68337448  1
  Zn  Zn147  1  0.06180131  0.05709006  0.31095539  1
  Zn  Zn148  1  0.06747060  0.06307927  0.81129936  1
  Zn  Zn149  1  0.06524237  0.56845268  0.31576820  1
  Zn  Zn150  1  0.05969681  0.56332283  0.81586220  1
  Zn  Zn151  1  0.56537551  0.06098979  0.31679715  1
  Zn  Zn152  1  0.55762589  0.06561990  0.81500000  1
  Zn  Zn153  1  0.56542906  0.56347327  0.30370645  1
  Zn  Zn154  1  0.56618264  0.56773035  0.80748163  1
  Zn  Zn155  1  0.43208789  0.19364148  0.44266970  1
  Zn  Zn156  1  0.43518867  0.18525070  0.93617203  1
  Zn  Zn157  1  0.41141312  0.67603393  0.43897771  1
  Zn  Zn158  1  0.43828018  0.68908958  0.93510598  1
  Zn  Zn159  1  0.93799608  0.18444603  0.43782593  1
  Zn  Zn160  1  0.94071825  0.18112700  0.93086824  1
  Zn  Zn161  1  0.93902229  0.68928876  0.43711014  1
  Zn  Zn162  1  0.94164084  0.68400049  0.93859251  1
  Zn  Zn163  1  0.08307338  0.31201552  0.06684920  1
  Zn  Zn164  1  0.06911141  0.31215230  0.56373256  1
  Zn  Zn165  1  0.06288504  0.80724004  0.06182061  1
  Zn  Zn166  1  0.06506253  0.81558599  0.56351618  1
  Zn  Zn167  1  0.56307920  0.31523981  0.06320488  1
  Zn  Zn168  1  0.56243066  0.31102989  0.56747381  1
  Zn  Zn169  1  0.55981497  0.81802940  0.06287166  1
  Zn  Zn170  1  0.55722019  0.81911198  0.57105115  1
  O  O171  1  0.11006802  0.12216918  0.12348789  1
  O  O172  1  0.11193637  0.12886372  0.62974789  1
  O  O173  1  0.11700249  0.62725667  0.11103579  1
  O  O174  1  0.12345719  0.62235048  0.61380022  1
  O  O175  1  0.62848779  0.12275587  0.11219301  1
  O  O176  1  0.62365873  0.12323020  0.61405420  1
  O  O177  1  0.61253295  0.62602480  0.12665571  1
  O  O178  1  0.63074921  0.61286987  0.62941580  1
  O  O179  1  0.37845368  0.37608304  0.38101534  1
  O  O180  1  0.38210125  0.38576693  0.87598593  1
  O  O181  1  0.38324238  0.88328810  0.37850461  1
  O  O182  1  0.38211354  0.87897254  0.88144185  1
  O  O183  1  0.88078234  0.38765879  0.37693274  1
  O  O184  1  0.87522715  0.38872229  0.87157465  1
  O  O185  1  0.88934055  0.87907899  0.37543217  1
  O  O186  1  0.87909154  0.87912692  0.88291738  1
  O  O187  1  0.25489766  0.00673116  0.36916370  1
  O  O188  1  0.25733211  0.01370070  0.88034400  1
  O  O189  1  0.24218872  0.50864938  0.37355569  1
  O  O190  1  0.26038858  0.50346694  0.87054433  1
  O  O191  1  0.74806932  0.00532117  0.36401599  1
  O  O192  1  0.75318872  0.00410566  0.86659457  1
  O  O193  1  0.75514156  0.51033833  0.37046355  1
  O  O194  1  0.75684383  0.50685695  0.86831445  1
  O  O195  1  0.26629050  0.48425303  0.12231038  1
  O  O196  1  0.25083386  0.49127000  0.63600704  1
  O  O197  1  0.24954146  0.99609821  0.13385923  1
  O  O198  1  0.24126977  0.99116818  0.62827145  1
  O  O199  1  0.75090636  0.49472462  0.13225798  1
  O  O200  1  0.74687097  0.49433004  0.63237053  1
  O  O201  1  0.74796213  0.99166291  0.13739681  1
  O  O202  1  0.75085404  1.00262310  0.64092549  1
  O  O203  1  0.00565827  0.36821910  0.25663001  1
  O  O204  1  0.00621015  0.36844850  0.74915258  1
  O  O205  1  0.00521785  0.87025069  0.25535173  1
  O  O206  1  -0.01104964  0.87401141  0.76367234  1
  O  O207  1  0.50734025  0.37056889  0.25614415  1
  O  O208  1  0.50670419  0.36746175  0.75547881  1
  O  O209  1  0.50486129  0.86687024  0.25736868  1
  O  O210  1  0.49376416  0.86575163  0.76164292  1
  O  O211  1  0.50314997  0.13511456  0.25109827  1
  O  O212  1  0.50176564  0.13172667  0.73724830  1
  O  O213  1  0.50445477  0.63888610  0.24230726  1
  O  O214  1  0.48953354  0.63654714  0.75662538  1
  O  O215  1  0.99644964  0.13077844  0.24296131  1
  O  O216  1  0.99391813  0.13150718  0.74510150  1
  O  O217  1  1.01047423  0.63290032  0.23641308  1
  O  O218  1  0.98591625  0.62476893  0.74893653  1
  O  O219  1  0.36832958  0.25076897  0.00619457  1
  O  O220  1  0.36443803  0.26890039  0.49249782  1
  O  O221  1  0.37364847  0.75764622  0.00491581  1
  O  O222  1  0.36921868  0.75607765  0.50784211  1
  O  O223  1  0.86825365  0.24399981  -0.00094216  1
  O  O224  1  0.86846300  0.25162791  0.50593850  1
  O  O225  1  0.87749367  0.76127722  -0.00007511  1
  O  O226  1  0.86834744  0.75115696  0.50850692  1
  O  O227  1  0.13595773  0.25251978  0.49912497  1
  O  O228  1  0.13993362  0.24483087  0.99633096  1
  O  O229  1  0.13564374  0.74297814  0.50462679  1
  O  O230  1  0.12590471  0.74014357  0.98889247  1
  O  O231  1  0.62962267  0.24612186  0.49359063  1
  O  O232  1  0.62857790  0.24299063  0.99606528  1
  O  O233  1  0.62880760  0.75276654  0.49764205  1
  O  O234  1  0.61985222  0.75162314  0.98814928  1
  O  O235  1  0.49198610  0.25786420  0.13512195  1
  O  O236  1  0.50370738  0.23602053  0.63479424  1
  O  O237  1  0.49552171  0.74684070  0.13080194  1
  O  O238  1  0.48720493  0.75168803  0.63431521  1
  O  O239  1  0.99446869  0.24670497  0.12703303  1
  O  O240  1  0.99478461  0.24590412  0.63447500  1
  O  O241  1  0.99750751  0.74157214  0.13188299  1
  O  O242  1  0.99031361  0.74858294  0.62692519  1
  O  O243  1  0.00086429  0.25493651  0.36851781  1
  O  O244  1  -0.00059446  0.25266253  0.86221411  1
  O  O245  1  -0.00236674  0.75747151  0.36530383  1
  O  O246  1  0.00575393  0.75754179  0.87349098  1
  O  O247  1  0.51290292  0.24580789  0.36885577  1
  O  O248  1  0.50520539  0.25354612  0.87019281  1
  O  O249  1  0.50313216  0.75178614  0.37203977  1
  O  O250  1  0.51012372  0.75593653  0.86902445  1
  O  O251  1  0.25492498  0.12315726  0.48401519  1
  O  O252  1  0.24886356  0.13115186  0.99529707  1
  O  O253  1  0.24507737  0.62887607  0.49442123  1
  O  O254  1  0.23931050  0.62383163  0.99541439  1
  O  O255  1  0.74261875  0.13017392  0.49660434  1
  O  O256  1  0.74323193  0.12630910  0.99510595  1
  O  O257  1  0.75068911  0.63885304  0.48978123  1
  O  O258  1  0.75190029  0.62179217  0.98935650  1
  O  O259  1  0.25165713  0.36614241  0.01112492  1
  O  O260  1  0.25439036  0.37735172  0.51427356  1
  O  O261  1  0.26130966  0.87449107  -0.00165240  1
  O  O262  1  0.26106088  0.86611110  0.48897145  1
  O  O263  1  0.74647665  0.37015008  0.01455799  1
  O  O264  1  0.75056338  0.36962739  0.50737330  1
  O  O265  1  0.75894469  0.88472883  0.00991402  1
  O  O266  1  0.75239224  0.86118139  0.49546834  1
  O  O267  1  0.11641411  0.48610500  0.25415614  1
  O  O268  1  0.12976488  0.49526367  0.75160074  1
  O  O269  1  0.13095480  0.98878206  0.24673285  1
  O  O270  1  0.11999609  0.99134149  0.74509943  1
  O  O271  1  0.63767647  0.49223098  0.24694356  1
  O  O272  1  0.63806463  0.49596693  0.74716633  1
  O  O273  1  0.62969463  0.99047733  0.24893243  1
  O  O274  1  0.63900810  1.00877556  0.75307201  1
  O  O275  1  0.36735373  -0.00202172  0.25707332  1
  O  O276  1  0.38136347  -0.00170639  0.76405182  1
  O  O277  1  0.39862505  0.48522031  0.25949777  1
  O  O278  1  0.37440058  0.50686042  0.75860558  1
  O  O279  1  0.86607867  0.00745524  0.25243045  1
  O  O280  1  0.86676315  0.00585916  0.75500846  1
  O  O281  1  0.86228123  0.49823932  0.26045410  1
  O  O282  1  0.86447914  0.50662052  0.75461145  1
  O  O283  1  0.11908926  0.37105966  0.36837656  1
  O  O284  1  0.12078748  0.37318482  0.86657034  1
  O  O285  1  0.11164593  0.87921947  0.36567938  1
  O  O286  1  0.11384447  0.86430851  0.88098132  1
  O  O287  1  0.63485381  0.36706767  0.36235553  1
  O  O288  1  0.62128836  0.36981168  0.86969854  1
  O  O289  1  0.61052616  0.87962439  0.36935594  1
  O  O290  1  0.61713700  0.86300354  0.87724976  1
  O  O291  1  0.37266291  0.13585509  0.12727443  1
  O  O292  1  0.38146876  0.12567855  0.61870991  1
  O  O293  1  0.38724944  0.63848622  0.11984327  1
  O  O294  1  0.37211711  0.62758321  0.63538493  1
  O  O295  1  0.88658077  0.12111191  0.13080520  1
  O  O296  1  0.88110594  0.13223881  0.63167312  1
  O  O297  1  0.89180953  0.62623977  0.11930370  1
  O  O298  1  0.87313159  0.63569317  0.63415178  1
  O  O299  1  0.25623565  0.25220274  0.12013201  1
  O  O300  1  0.25056299  0.26427349  0.63233172  1
  O  O301  1  0.25747836  0.75107884  0.12347998  1
  O  O302  1  0.26415744  0.74366732  0.61420467  1
  O  O303  1  0.75086062  0.25896155  0.11842912  1
  O  O304  1  0.75289345  0.25764371  0.62065955  1
  O  O305  1  0.75265403  0.76444046  0.13137879  1
  O  O306  1  0.75538243  0.74967787  0.61655650  1
  O  O307  1  0.24845119  0.22987700  0.36694363  1
  O  O308  1  0.25331604  0.23967723  0.88403448  1
  O  O309  1  0.25772547  0.73964464  0.38784049  1
  O  O310  1  0.24373458  0.74167354  0.87793452  1
  O  O311  1  0.74100351  0.24531386  0.37795843  1
  O  O312  1  0.74464427  0.24519773  0.88242887  1
  O  O313  1  0.75696025  0.74024881  0.37799584  1
  O  O314  1  0.73595410  0.74460041  0.87219924  1
  O  O315  1  0.00019089  0.11562361  0.00549012  1
  O  O316  1  -0.00250070  0.11308896  0.50729796  1
  O  O317  1  0.01152912  0.62508586  0.01068222  1
  O  O318  1  0.00734761  0.61859531  0.49999162  1
  O  O319  1  0.50757894  0.11460552  -0.00608321  1
  O  O320  1  0.50441770  0.12849433  0.51196714  1
  O  O321  1  0.49834295  0.61850601  0.00457179  1
  O  O322  1  0.51204969  0.64060962  0.48590246  1
  O  O323  1  0.48805979  0.36941064  0.50610375  1
  O  O324  1  0.49857499  0.38446920  0.99290673  1
  O  O325  1  0.48793162  0.87483834  0.49137209  1
  O  O326  1  0.49107431  0.88047648  0.98941364  1
  O  O327  1  0.99893231  0.38385156  0.49571715  1
  O  O328  1  0.99314692  0.35678433  1.00860315  1
  O  O329  1  0.99957849  0.88287237  0.49415246  1
  O  O330  1  0.99174818  0.88014856  0.99394034  1
  O  O331  1  0.51058649  0.49354933  0.37632833  1
  O  O332  1  0.49711342  0.49809297  0.87623852  1
  O  O333  1  0.49136791  0.99299143  0.37659928  1
  O  O334  1  0.49508685  0.99212735  0.88174250  1
  O  O335  1  0.99209390  0.49894110  0.38438146  1
  O  O336  1  0.98419350  0.49616328  0.87311582  1
  O  O337  1  0.99847041  0.99585411  0.38616662  1
  O  O338  1  0.99544096  0.99384201  0.88134011  1
  O  O339  1  -0.00140115  0.00612783  0.11673915  1
  O  O340  1  -0.00501964  0.00761833  0.61218756  1
  O  O341  1  -0.00050257  0.51345972  0.12937672  1
  O  O342  1  -0.00347783  0.50226967  0.61357863  1
  O  O343  1  0.49823854  -0.00789097  0.11093026  1
  O  O344  1  0.49797068  0.01504389  0.62492815  1
  O  O345  1  0.50364601  0.50987131  0.11153128  1
  O  O346  1  0.51838631  0.49889793  0.63451262  1
  O  O347  1  0.24513862  0.36962460  0.23868637  1
  O  O348  1  0.24297324  0.38203085  0.74926226  1
  O  O349  1  0.24172625  0.88268391  0.25298795  1
  O  O350  1  0.24732784  0.88424648  0.75768766  1
  O  O351  1  0.74567122  0.37976051  0.24110693  1
  O  O352  1  0.74604803  0.38298723  0.74401239  1
  O  O353  1  0.74293612  0.88124983  0.24801980  1
  O  O354  1  0.75332223  0.89071531  0.75249326  1
  O  O355  1  0.25037790  0.11158748  0.25681680  1
  O  O356  1  0.25080826  0.13095816  0.76497217  1
  O  O357  1  0.23763354  0.62516659  0.26284613  1
  O  O358  1  0.25816808  0.61892618  0.75546992  1
  O  O359  1  0.75211780  0.11849719  0.25281561  1
  O  O360  1  0.75561568  0.11964645  0.75663987  1
  O  O361  1  0.74552385  0.61836129  0.25740786  1
  O  O362  1  0.75942400  0.61910777  0.75906733  1
  O  O363  1  0.37103587  0.11268935  0.37272179  1
  O  O364  1  0.36317507  0.11556324  0.87921342  1
  O  O365  1  0.35738622  0.61498334  0.36734649  1
  O  O366  1  0.37022424  0.61970842  0.86737591  1
  O  O367  1  0.86577391  0.12458069  0.36674487  1
  O  O368  1  0.86835465  0.11675343  0.86751595  1
  O  O369  1  0.86887808  0.61477539  0.37740081  1
  O  O370  1  0.86944654  0.61802535  0.87080144  1
  O  O371  1  0.14307432  0.37731233  0.13434817  1
  O  O372  1  0.13215840  0.38044262  0.63958633  1
  O  O373  1  0.12612279  0.87632993  0.13236390  1
  O  O374  1  0.13127550  0.86320365  0.64005184  1
  O  O375  1  0.63260349  0.37760705  0.13661670  1
  O  O376  1  0.63627802  0.37828298  0.63125244  1
  O  O377  1  0.63098670  0.87869455  0.13237187  1
  O  O378  1  0.62774068  0.88477766  0.62363312  1
  O  O379  1  0.11099308  0.25601993  0.24940603  1
  O  O380  1  0.11591568  0.25929352  0.75312497  1
  O  O381  1  0.11517569  0.76235489  0.24597613  1
  O  O382  1  0.12243947  0.73530621  0.76721755  1
  O  O383  1  0.61977783  0.25638658  0.25519992  1
  O  O384  1  0.61995552  0.25525445  0.75732760  1
  O  O385  1  0.61635593  0.76380986  0.24889902  1
  O  O386  1  0.61350432  0.74669505  0.75453978  1
  O  O387  1  0.38550642  0.24645925  0.24439839  1
  O  O388  1  0.38805904  0.25415922  0.75630294  1
  O  O389  1  0.38535248  0.75849389  0.24059379  1
  O  O390  1  0.37988608  0.74346180  0.74432889  1
  O  O391  1  0.88818881  0.24431200  0.25323139  1
  O  O392  1  0.88015866  0.24465054  0.74560497  1
  O  O393  1  0.88895503  0.75375075  0.24534179  1
  O  O394  1  0.87384732  0.74250806  0.74483597  1
  O  O395  1  0.37525461  0.48121177  0.49874083  1
  O  O396  1  0.38564880  0.50141058  0.98707259  1
  O  O397  1  0.37478113  0.99166300  0.49245207  1
  O  O398  1  0.38095817  0.99172499  0.99315219  1
  O  O399  1  0.87977582  0.50041942  0.49445049  1
  O  O400  1  0.87130611  0.49766026  0.98518333  1
  O  O401  1  0.88328632  0.99669807  0.49710123  1
  O  O402  1  0.88413121  0.99321820  0.99379786  1
  O  O403  1  0.11158009  -0.00202457  0.00023429  1
  O  O404  1  0.11047091  -0.00345670  0.49853905  1
  O  O405  1  0.12557899  0.51060167  -0.00426658  1
  O  O406  1  0.11514633  0.50606377  0.50315999  1
  O  O407  1  0.61543201  0.00705479  0.00048306  1
  O  O408  1  0.61960365  0.01142509  0.49881973  1
  O  O409  1  0.61624715  0.49777608  -0.00195633  1
  O  O410  1  0.62921883  0.49908376  0.51628836  1
  O  O411  1  0.36550757  0.36069269  0.12119759  1
  O  O412  1  0.36924365  0.37694393  0.61809085  1
  O  O413  1  0.37403333  0.86302577  0.11494646  1
  O  O414  1  0.37748128  0.86696563  0.61414129  1
  O  O415  1  0.86947821  0.37597068  0.12965768  1
  O  O416  1  0.86229784  0.36999006  0.62576290  1
  O  O417  1  0.86700782  0.87484488  0.11615832  1
  O  O418  1  0.86761812  0.86290046  0.62533511  1
  O  O419  1  0.13706750  0.12254182  0.37079310  1
  O  O420  1  0.13781361  0.12677297  0.87777599  1
  O  O421  1  0.13283594  0.62433636  0.38915118  1
  O  O422  1  0.12701064  0.62708610  0.88681092  1
  O  O423  1  0.62932709  0.13273497  0.38576317  1
  O  O424  1  0.62927564  0.13017561  0.88488794  1
  O  O425  1  0.63257883  0.63110969  0.37382229  1
  O  O426  1  0.63349785  0.63855273  0.87214110  1
