# generated using pymatgen
data_V85Zn86O256
_symmetry_space_group_name_H-M   'P 1'
_cell_length_a   16.93219121
_cell_length_b   16.93117445
_cell_length_c   16.92538894
_cell_angle_alpha   89.99688268
_cell_angle_beta   89.97576388
_cell_angle_gamma   90.01416278
_symmetry_Int_Tables_number   1
_chemical_formula_structural   V85Zn86O256
_chemical_formula_sum   'V85 Zn86 O256'
_cell_volume   4852.20178582
_cell_formula_units_Z   1
loop_
 _symmetry_equiv_pos_site_id
 _symmetry_equiv_pos_as_xyz
  1  'x, y, z'
loop_
 _atom_site_type_symbol
 _atom_site_label
 _atom_site_symmetry_multiplicity
 _atom_site_fract_x
 _atom_site_fract_y
 _atom_site_fract_z
 _atom_site_occupancy
  V  V0  1  0.87604210  -0.00404856  0.87468254  1
  V  V1  1  0.63197358  0.50714029  0.13367142  1
  V  V2  1  0.24280023  0.50375970  0.24489743  1
  V  V3  1  0.74178106  0.87835004  0.62786184  1
  V  V4  1  0.87283249  0.12425584  0.74851466  1
  V  V5  1  0.73560967  0.62780687  0.87302277  1
  V  V6  1  0.62276584  0.50128020  0.62245634  1
  V  V7  1  0.12406563  -0.00094284  0.62360210  1
  V  V8  1  0.74540099  0.25081099  0.50049561  1
  V  V9  1  0.87450844  0.50769244  0.87455900  1
  V  V10  1  0.12353044  0.60932943  -0.00145679  1
  V  V11  1  0.49771129  0.49528665  0.49896904  1
  V  V12  1  0.12550238  0.73332016  0.37462383  1
  V  V13  1  0.24945390  0.87195958  0.61750844  1
  V  V14  1  0.00398640  0.87412708  0.37546668  1
  V  V15  1  0.87471206  0.73835644  0.62753826  1
  V  V16  1  0.49664931  0.37211720  0.37271477  1
  V  V17  1  0.51625943  0.87055679  0.87145158  1
  V  V18  1  0.62871313  0.37786063  0.25103005  1
  V  V19  1  -0.00095089  0.37321941  0.37917506  1
  V  V20  1  0.00209100  0.00104917  0.50038396  1
  V  V21  1  0.00122828  0.12822547  0.11944242  1
  V  V22  1  0.00781334  0.50937131  0.49978710  1
  V  V23  1  0.24147310  0.23247670  -0.00598679  1
  V  V24  1  0.63331047  0.13149067  0.00125661  1
  V  V25  1  0.49581090  0.75226824  0.26610568  1
  V  V26  1  0.62262979  0.24921001  0.37603049  1
  V  V27  1  0.24934840  0.12767093  0.37944376  1
  V  V28  1  0.51568015  0.75416274  0.74178352  1
  V  V29  1  0.00380585  0.37426389  0.87114364  1
  V  V30  1  0.37234672  -0.00176389  0.87793905  1
  V  V31  1  0.25181804  -0.00465037  0.75282567  1
  V  V32  1  0.35769194  0.36925302  0.50180348  1
  V  V33  1  0.75529520  0.12693113  0.37197739  1
  V  V34  1  0.75523962  0.87568431  0.12046418  1
  V  V35  1  0.00359830  0.00467049  -0.00357815  1
  V  V36  1  0.24317064  0.37442208  0.12534564  1
  V  V37  1  0.37174519  0.25062993  0.11950902  1
  V  V38  1  0.75111059  0.74907314  0.49996940  1
  V  V39  1  0.36698662  0.50035024  0.37318346  1
  V  V40  1  0.87709459  0.00181899  0.37317930  1
  V  V41  1  -0.00045627  0.87225731  0.87822437  1
  V  V42  1  0.17403327  0.50114264  0.67444794  1
  V  V43  1  -0.00080633  0.12743180  0.62185713  1
  V  V44  1  0.50258587  0.49646808  0.00383378  1
  V  V45  1  0.38779937  0.00140334  0.37485610  1
  V  V46  1  -0.00354695  0.24153613  0.25255671  1
  V  V47  1  0.62032567  0.62427963  0.50032937  1
  V  V48  1  0.86868523  0.62366913  0.24446582  1
  V  V49  1  0.11998957  0.37572283  0.24571585  1
  V  V50  1  0.37481923  0.12276772  0.75583889  1
  V  V51  1  0.12616107  0.86886177  0.74927959  1
  V  V52  1  0.36030916  0.24674769  0.62254643  1
  V  V53  1  0.00969198  0.25635235  0.74509214  1
  V  V54  1  0.87343029  0.25371092  0.62390926  1
  V  V55  1  0.75042875  0.50703652  0.74984767  1
  V  V56  1  0.74550020  0.37591716  0.62436782  1
  V  V57  1  0.73845697  -0.00198255  0.74743149  1
  V  V58  1  0.38710235  0.88020954  0.49588633  1
  V  V59  1  0.24472997  0.75034902  -0.00444372  1
  V  V60  1  0.34107600  0.40591885  -0.01444456  1
  V  V61  1  0.62116014  0.87497224  0.25674913  1
  V  V62  1  0.12560678  0.00133996  0.12543942  1
  V  V63  1  0.74681136  0.62313090  0.37053292  1
  V  V64  1  0.50346949  0.11116655  0.62359247  1
  V  V65  1  0.24377690  0.73898353  0.49511180  1
  V  V66  1  -0.00339631  0.73935207  0.75046916  1
  V  V67  1  0.86947991  0.36811760  -0.00455933  1
  V  V68  1  0.13033340  0.14267869  0.50766915  1
  V  V69  1  0.62190570  0.11113998  0.50348914  1
  V  V70  1  0.61973432  0.37643528  0.75276547  1
  V  V71  1  0.87668897  0.75213190  0.11559513  1
  V  V72  1  0.00049865  0.75051255  0.24603435  1
  V  V73  1  0.75744046  0.00262479  0.24876835  1
  V  V74  1  0.74445514  0.75331483  -0.00584068  1
  V  V75  1  0.62595210  0.00018734  0.12627644  1
  V  V76  1  0.49764349  0.12389192  0.12576243  1
  V  V77  1  0.87018370  0.49928732  0.37005723  1
  V  V78  1  0.86718055  0.24458810  0.12649483  1
  V  V79  1  0.37739238  0.87017993  0.00068200  1
  V  V80  1  0.75026007  0.37796973  0.12193406  1
  V  V81  1  0.36868626  0.62668823  0.25346081  1
  V  V82  1  0.87690466  0.87361943  0.50280149  1
  V  V83  1  0.49927832  0.24943090  0.75145953  1
  V  V84  1  0.49688403  0.62933538  0.12783603  1
  Zn  Zn85  1  0.63303366  0.25396820  0.88048191  1
  Zn  Zn86  1  0.50154334  0.37191813  0.88355181  1
  Zn  Zn87  1  0.37065538  0.12653964  0.25006564  1
  Zn  Zn88  1  0.25100730  0.87717755  0.12711674  1
  Zn  Zn89  1  0.75443623  0.12931570  0.88030506  1
  Zn  Zn90  1  0.00367911  0.61490116  0.12478933  1
  Zn  Zn91  1  0.87527680  0.37874197  0.50051259  1
  Zn  Zn92  1  0.24867581  -0.00025555  0.25236835  1
  Zn  Zn93  1  0.49644256  0.25150134  0.24783828  1
  Zn  Zn94  1  0.37509044  0.74752668  0.63111313  1
  Zn  Zn95  1  0.37243263  0.75075798  0.12615380  1
  Zn  Zn96  1  0.62025706  0.75354987  0.37855131  1
  Zn  Zn97  1  0.13071842  0.74598861  0.87203016  1
  Zn  Zn98  1  0.32902361  0.54250201  0.79626521  1
  Zn  Zn99  1  0.01200560  0.61685575  0.62666744  1
  Zn  Zn100  1  0.13223428  0.25479032  0.38155183  1
  Zn  Zn101  1  0.00110146  0.49179283  0.00799923  1
  Zn  Zn102  1  0.62049044  0.63106193  -0.00149892  1
  Zn  Zn103  1  0.12195563  0.23896476  0.88375788  1
  Zn  Zn104  1  0.50181293  -0.00245167  0.00034971  1
  Zn  Zn105  1  0.12926335  0.87434807  0.25007605  1
  Zn  Zn106  1  0.45475097  0.59664953  0.66306539  1
  Zn  Zn107  1  0.18479759  0.18609369  0.19108219  1
  Zn  Zn108  1  0.18089340  0.17996368  0.71454354  1
  Zn  Zn109  1  0.18780196  0.68713982  0.17792768  1
  Zn  Zn110  1  0.19504581  0.67765754  0.68989078  1
  Zn  Zn111  1  0.68655758  0.18908917  0.18946797  1
  Zn  Zn112  1  0.68542221  0.18624753  0.68943256  1
  Zn  Zn113  1  0.68623805  0.69336397  0.18788525  1
  Zn  Zn114  1  0.68061443  0.69000181  0.68723547  1
  Zn  Zn115  1  0.31039554  0.30966457  0.31120749  1
  Zn  Zn116  1  0.31123254  0.31870969  0.81899908  1
  Zn  Zn117  1  0.30959441  0.81647713  0.31539377  1
  Zn  Zn118  1  0.32243071  0.80558267  0.81249243  1
  Zn  Zn119  1  0.81156651  0.31303255  0.30821288  1
  Zn  Zn120  1  0.80946331  0.31318261  0.81117044  1
  Zn  Zn121  1  0.81335148  0.81182940  0.31058237  1
  Zn  Zn122  1  0.81139810  0.81283131  0.80989347  1
  Zn  Zn123  1  0.18518524  0.44027029  0.43377134  1
  Zn  Zn124  1  0.18195765  0.45151369  0.87880633  1
  Zn  Zn125  1  0.18776982  0.94225511  0.43597397  1
  Zn  Zn126  1  0.18721448  0.93581176  0.93906309  1
  Zn  Zn127  1  0.68870745  0.43795506  0.43448963  1
  Zn  Zn128  1  0.68449212  0.44081708  0.94017941  1
  Zn  Zn129  1  0.69008140  0.93613657  0.43774638  1
  Zn  Zn130  1  0.69204489  0.94518488  0.94104501  1
  Zn  Zn131  1  0.31295771  0.06097573  0.06137277  1
  Zn  Zn132  1  0.31258836  0.06144419  0.56372002  1
  Zn  Zn133  1  0.32093230  0.57748774  -0.03016575  1
  Zn  Zn134  1  0.30858435  0.56501781  0.56851190  1
  Zn  Zn135  1  0.81895225  0.06112941  0.06113292  1
  Zn  Zn136  1  0.81011727  0.06218526  0.56134633  1
  Zn  Zn137  1  0.81267510  0.56211356  0.05821299  1
  Zn  Zn138  1  0.81224765  0.56055962  0.55762408  1
  Zn  Zn139  1  0.43347393  0.43818627  0.18062813  1
  Zn  Zn140  1  0.40077715  0.41914890  0.70841785  1
  Zn  Zn141  1  0.43742990  0.93788909  0.19042987  1
  Zn  Zn142  1  0.43834476  0.93006865  0.68887600  1
  Zn  Zn143  1  0.93620273  0.43567543  0.18758793  1
  Zn  Zn144  1  0.93460565  0.44033765  0.68730541  1
  Zn  Zn145  1  0.93897102  0.93725143  0.18539632  1
  Zn  Zn146  1  0.93557975  0.93279239  0.68846821  1
  Zn  Zn147  1  0.06684281  0.06656182  0.31389811  1
  Zn  Zn148  1  0.06319879  0.06411891  0.80978160  1
  Zn  Zn149  1  0.05590705  0.55952052  0.30679901  1
  Zn  Zn150  1  0.06356275  0.56475604  0.81894026  1
  Zn  Zn151  1  0.56604397  0.06543622  0.31052256  1
  Zn  Zn152  1  0.55803434  0.06120016  0.81790562  1
  Zn  Zn153  1  0.55843171  0.56272176  0.31386959  1
  Zn  Zn154  1  0.53487300  0.55293440  0.80589533  1
  Zn  Zn155  1  0.43714611  0.18568964  0.44202999  1
  Zn  Zn156  1  0.43900242  0.18688804  0.93935137  1
  Zn  Zn157  1  0.42356114  0.67864333  0.45774650  1
  Zn  Zn158  1  0.44028760  0.68947534  0.92516126  1
  Zn  Zn159  1  0.93657063  0.18949673  0.44013600  1
  Zn  Zn160  1  0.93573854  0.18887213  0.93613265  1
  Zn  Zn161  1  0.93685510  0.68592190  0.43570287  1
  Zn  Zn162  1  0.93797150  0.68477076  0.93784721  1
  Zn  Zn163  1  0.06154887  0.31163517  0.05897540  1
  Zn  Zn164  1  0.07382223  0.33356936  0.58205518  1
  Zn  Zn165  1  0.06194174  0.81610790  0.06114178  1
  Zn  Zn166  1  0.06283922  0.80604900  0.56280530  1
  Zn  Zn167  1  0.56516416  0.31054049  0.06839531  1
  Zn  Zn168  1  0.55494809  0.30812569  0.56531435  1
  Zn  Zn169  1  0.56242856  0.81327381  0.06668807  1
  Zn  Zn170  1  0.56535592  0.81507162  0.56117851  1
  O  O171  1  0.10939812  0.11632578  0.13079789  1
  O  O172  1  0.11849485  0.11951529  0.62334485  1
  O  O173  1  0.11979525  0.62996412  0.10521685  1
  O  O174  1  0.12571939  0.59129839  0.64093449  1
  O  O175  1  0.62031850  0.12187633  0.11902105  1
  O  O176  1  0.61683552  0.12864031  0.61545883  1
  O  O177  1  0.61937847  0.62013748  0.12908944  1
  O  O178  1  0.63009213  0.61661588  0.61086743  1
  O  O179  1  0.37973957  0.37762694  0.37888976  1
  O  O180  1  0.38739928  0.35600379  0.90924892  1
  O  O181  1  0.37055421  0.89075211  0.38507757  1
  O  O182  1  0.38373974  0.87944729  0.88623613  1
  O  O183  1  0.87939048  0.38276833  0.37374086  1
  O  O184  1  0.87623843  0.37984647  0.88201894  1
  O  O185  1  0.88555741  0.87800195  0.38084414  1
  O  O186  1  0.88487687  0.88813290  0.86560937  1
  O  O187  1  0.25656541  0.01235143  0.37545825  1
  O  O188  1  0.26282087  -0.00992712  0.86849920  1
  O  O189  1  0.26035328  0.49377320  0.36228872  1
  O  O190  1  0.27966038  0.47691433  0.92727927  1
  O  O191  1  0.75700817  0.00631038  0.36821716  1
  O  O192  1  0.76087883  0.00423747  0.86726713  1
  O  O193  1  0.75560344  0.51293889  0.37543911  1
  O  O194  1  0.75258087  0.50650082  0.86840036  1
  O  O195  1  0.25006277  0.48096976  0.13961240  1
  O  O196  1  0.25412598  0.48001100  0.61228058  1
  O  O197  1  0.23777499  1.00114174  0.12534583  1
  O  O198  1  0.24411419  0.99043212  0.63060215  1
  O  O199  1  0.74346304  0.49275349  0.12424573  1
  O  O200  1  0.74469122  0.49622064  0.63062472  1
  O  O201  1  0.74992280  0.99476448  0.13135124  1
  O  O202  1  0.76065758  0.99048111  0.63549538  1
  O  O203  1  0.00280550  0.36812791  0.26055928  1
  O  O204  1  -0.01587652  0.36663325  0.76007001  1
  O  O205  1  -0.00212829  0.86395823  0.25755857  1
  O  O206  1  0.00901587  0.86585989  0.75562575  1
  O  O207  1  0.50905511  0.37513578  0.25249370  1
  O  O208  1  0.50327900  0.36448289  0.75499449  1
  O  O209  1  0.50895754  0.86555785  0.24643632  1
  O  O210  1  0.50282081  0.87402808  0.76498152  1
  O  O211  1  0.50125874  0.12877713  0.23722542  1
  O  O212  1  0.49334641  0.12790260  0.74474691  1
  O  O213  1  0.49333224  0.63311539  0.24749024  1
  O  O214  1  0.52179266  0.64911111  0.74472999  1
  O  O215  1  1.00039212  0.13702148  0.24644852  1
  O  O216  1  0.98661836  0.13474470  0.73956592  1
  O  O217  1  0.98754018  0.63624288  0.24822819  1
  O  O218  1  1.00186403  0.63551044  0.75143036  1
  O  O219  1  0.36198873  0.23870164  0.01200117  1
  O  O220  1  0.37389468  0.25240335  0.51425154  1
  O  O221  1  0.36715749  0.75512245  0.00024071  1
  O  O222  1  0.35728328  0.76900463  0.49043831  1
  O  O223  1  0.87592416  0.26032187  0.00862056  1
  O  O224  1  0.86576041  0.25172781  0.51004249  1
  O  O225  1  0.86671623  0.74588366  0.01058623  1
  O  O226  1  0.87121066  0.75389317  0.50555328  1
  O  O227  1  0.11943727  0.24541547  0.50963428  1
  O  O228  1  0.13580679  0.24318830  1.00218677  1
  O  O229  1  0.13481454  0.75102236  0.49149851  1
  O  O230  1  0.13678600  0.75723722  0.99655658  1
  O  O231  1  0.62935536  0.24671587  0.49346227  1
  O  O232  1  0.62326556  0.23554647  1.00284254  1
  O  O233  1  0.63038641  0.74147136  0.49738403  1
  O  O234  1  0.64039818  0.74960510  1.00744200  1
  O  O235  1  0.48955791  0.24326811  0.12399765  1
  O  O236  1  0.49275351  0.24020825  0.63846234  1
  O  O237  1  0.49956096  0.73978797  0.13397561  1
  O  O238  1  0.49848602  0.76516397  0.63682251  1
  O  O239  1  0.99259079  0.24431305  0.13073965  1
  O  O240  1  0.98783461  0.25190421  0.62366933  1
  O  O241  1  0.99230372  0.75166016  0.13048833  1
  O  O242  1  0.99452287  0.74154826  0.63133075  1
  O  O243  1  -0.00256029  0.25759770  0.36967996  1
  O  O244  1  -0.00185572  0.25429437  0.86212455  1
  O  O245  1  0.00442474  0.75647910  0.36845749  1
  O  O246  1  -0.00252381  0.75754969  0.86772438  1
  O  O247  1  0.50316898  0.25589115  0.37298079  1
  O  O248  1  0.50701146  0.24619048  0.86371538  1
  O  O249  1  0.49726961  0.74363736  0.36777463  1
  O  O250  1  0.50538007  0.76387966  0.86559935  1
  O  O251  1  0.23873459  0.12163575  0.49729612  1
  O  O252  1  0.24674865  0.13353547  1.00119762  1
  O  O253  1  0.25084984  0.64065391  0.49637901  1
  O  O254  1  0.23571281  0.64118352  1.00706594  1
  O  O255  1  0.74248769  0.13148828  0.49437505  1
  O  O256  1  0.73709707  0.11999014  1.00311350  1
  O  O257  1  0.74077572  0.62826522  0.49074734  1
  O  O258  1  0.74654278  0.63414401  0.99153873  1
  O  O259  1  0.24466014  0.35830579  0.01490810  1
  O  O260  1  0.25925898  0.36993698  0.48755577  1
  O  O261  1  0.25847762  0.86824817  0.00314742  1
  O  O262  1  0.24711260  0.87344844  0.50991535  1
  O  O263  1  0.75279446  0.37675881  0.01262478  1
  O  O264  1  0.74983740  0.36857153  0.50499394  1
  O  O265  1  0.74846146  0.87115430  0.01159432  1
  O  O266  1  0.75973968  0.86901030  0.50286957  1
  O  O267  1  0.13110647  0.48994761  0.25597129  1
  O  O268  1  0.14217110  0.49274675  0.77994602  1
  O  O269  1  0.12162933  0.99785203  0.24030883  1
  O  O270  1  0.12823980  0.98460699  0.74337610  1
  O  O271  1  0.62186900  0.49408226  0.24193724  1
  O  O272  1  0.62438044  0.49037705  0.74426299  1
  O  O273  1  0.63563051  0.99455271  0.24621739  1
  O  O274  1  0.64022771  1.01030345  0.75472969  1
  O  O275  1  0.37421124  0.00242116  0.26414664  1
  O  O276  1  0.37327142  0.00195140  0.75797972  1
  O  O277  1  0.36738575  0.50509799  0.25419616  1
  O  O278  1  0.43463673  0.52088584  0.74569048  1
  O  O279  1  0.86468180  -0.00414871  0.25519863  1
  O  O280  1  0.87478749  0.00877362  0.75532918  1
  O  O281  1  0.87791568  0.50953183  0.26081623  1
  O  O282  1  0.86049767  0.49547689  0.75986853  1
  O  O283  1  0.11522168  0.37180095  0.36667657  1
  O  O284  1  0.10657800  0.36252795  0.87989221  1
  O  O285  1  0.11210050  0.87276702  0.37472239  1
  O  O286  1  0.11805206  0.87226340  0.86437088  1
  O  O287  1  0.61928006  0.37150938  0.36760777  1
  O  O288  1  0.62199001  0.37472350  0.86733706  1
  O  O289  1  0.63231129  0.87342062  0.36137980  1
  O  O290  1  0.61367483  0.88411421  0.88233362  1
  O  O291  1  0.38256675  0.12831829  0.12767327  1
  O  O292  1  0.38331481  0.13198117  0.62865408  1
  O  O293  1  0.38480374  0.62850536  0.14318993  1
  O  O294  1  0.39066120  0.64088041  0.58299632  1
  O  O295  1  0.88507234  0.13456492  0.12179719  1
  O  O296  1  0.87956856  0.13264608  0.62710138  1
  O  O297  1  0.87384634  0.63303156  0.13045121  1
  O  O298  1  0.87276476  0.63643241  0.62036403  1
  O  O299  1  0.25267285  0.25295976  0.12132020  1
  O  O300  1  0.26349552  0.24014278  0.63940207  1
  O  O301  1  0.25317035  0.75723405  0.11224759  1
  O  O302  1  0.24957926  0.75488818  0.61300850  1
  O  O303  1  0.76029163  0.25734393  0.13135879  1
  O  O304  1  0.75414340  0.25519733  0.62149448  1
  O  O305  1  0.75710932  0.75847473  0.11957322  1
  O  O306  1  0.75727395  0.75607047  0.62000955  1
  O  O307  1  0.25050276  0.23446287  0.37384735  1
  O  O308  1  0.24928805  0.25296647  0.89120972  1
  O  O309  1  0.23730109  0.75684892  0.38559144  1
  O  O310  1  0.25069690  0.75820475  0.89018043  1
  O  O311  1  0.74560723  0.24361304  0.37808591  1
  O  O312  1  0.74510360  0.24076805  0.86479987  1
  O  O313  1  0.75157376  0.73952717  0.38140346  1
  O  O314  1  0.75732742  0.74205977  0.88238222  1
  O  O315  1  -0.00134837  0.11906863  0.00666897  1
  O  O316  1  0.00722520  0.12135571  0.50495163  1
  O  O317  1  0.01134623  0.62146131  0.00039025  1
  O  O318  1  -0.00103191  0.61365814  0.49972754  1
  O  O319  1  0.50898129  0.12243322  0.01210253  1
  O  O320  1  0.51076878  0.12942968  0.51040080  1
  O  O321  1  0.50198756  0.61978491  0.01097223  1
  O  O322  1  0.51516411  0.61212553  0.48197673  1
  O  O323  1  0.49395051  0.37910044  0.49123678  1
  O  O324  1  0.50765396  0.39110918  1.01107498  1
  O  O325  1  0.48528761  0.87103219  0.49794737  1
  O  O326  1  0.49578779  0.87267127  0.99161882  1
  O  O327  1  0.99872050  0.38061720  0.48986651  1
  O  O328  1  0.98831849  0.37177122  0.99024973  1
  O  O329  1  0.99631033  0.87844565  0.49417371  1
  O  O330  1  1.00187021  0.88165984  0.98378532  1
  O  O331  1  0.48961862  0.49041887  0.37812673  1
  O  O332  1  0.50725430  0.49576181  0.90095055  1
  O  O333  1  0.48701231  1.00855668  0.37417373  1
  O  O334  1  0.49027541  0.98877568  0.87804347  1
  O  O335  1  0.99061275  0.49359636  0.38088287  1
  O  O336  1  0.98905332  0.49109699  0.87691899  1
  O  O337  1  0.99579319  0.99458375  0.37854724  1
  O  O338  1  0.99812682  0.99626470  0.87720328  1
  O  O339  1  0.00037808  0.00783422  0.11583560  1
  O  O340  1  0.00345536  0.00482423  0.62040655  1
  O  O341  1  -0.00502515  0.50094583  0.12146760  1
  O  O342  1  -0.01817085  0.50230659  0.60353840  1
  O  O343  1  0.50727369  0.00704935  0.12552543  1
  O  O344  1  0.49450596  0.01183396  0.62973929  1
  O  O345  1  0.50947255  0.51244507  0.12597977  1
  O  O346  1  0.50624628  0.49952828  0.60404285  1
  O  O347  1  0.23829536  0.37621144  0.24614721  1
  O  O348  1  0.30391099  0.41852759  0.77169880  1
  O  O349  1  0.24703310  0.88051509  0.24567792  1
  O  O350  1  0.24526075  0.87373343  0.73882197  1
  O  O351  1  0.73674745  0.37363869  0.24146330  1
  O  O352  1  0.73874099  0.38609685  0.74416128  1
  O  O353  1  0.74520631  0.88090989  0.24139547  1
  O  O354  1  0.75530610  0.88642705  0.74122651  1
  O  O355  1  0.24968840  0.12084330  0.26132626  1
  O  O356  1  0.27002663  0.10969651  0.74090327  1
  O  O357  1  0.25516798  0.61569802  0.24290991  1
  O  O358  1  0.25522080  0.58864826  0.72074752  1
  O  O359  1  0.74447849  0.11529506  0.25957656  1
  O  O360  1  0.76268149  0.11699809  0.74380647  1
  O  O361  1  0.76070380  0.63298672  0.25537156  1
  O  O362  1  0.74142558  0.61433137  0.75432458  1
  O  O363  1  0.36931052  0.11576901  0.37784093  1
  O  O364  1  0.38323052  0.11279611  0.86731335  1
  O  O365  1  0.37838703  0.61301794  0.36510037  1
  O  O366  1  0.37225832  0.61557742  0.87837192  1
  O  O367  1  0.86198327  0.12133303  0.38131646  1
  O  O368  1  0.87699751  0.11632291  0.86422529  1
  O  O369  1  0.86777046  0.62000533  0.36620564  1
  O  O370  1  0.86565647  0.61105287  0.88117199  1
  O  O371  1  0.12744411  0.36743099  0.13744813  1
  O  O372  1  0.11827257  0.42070418  0.64085817  1
  O  O373  1  0.12005559  0.89028136  0.12735456  1
  O  O374  1  0.12962815  0.87668833  0.63040730  1
  O  O375  1  0.63248479  0.38143932  0.13282261  1
  O  O376  1  0.62612282  0.38058703  0.63033919  1
  O  O377  1  0.63369385  0.88056657  0.13549693  1
  O  O378  1  0.64348694  0.87989077  0.61225580  1
  O  O379  1  0.11339753  0.25719360  0.25443530  1
  O  O380  1  0.10539323  0.27087106  0.71723329  1
  O  O381  1  0.11583617  0.75035371  0.25417252  1
  O  O382  1  0.12157447  0.75490388  0.74827407  1
  O  O383  1  0.62172995  0.25885905  0.25773683  1
  O  O384  1  0.61774883  0.26252174  0.74649173  1
  O  O385  1  0.61585987  0.75830374  0.25395506  1
  O  O386  1  0.61691103  0.76748317  0.74194956  1
  O  O387  1  0.37484928  0.24967222  0.23465693  1
  O  O388  1  0.38057557  0.24110046  0.74747205  1
  O  O389  1  0.37844640  0.74437569  0.25312845  1
  O  O390  1  0.39538141  0.75591172  0.74506582  1
  O  O391  1  0.88405514  0.25591727  0.23884832  1
  O  O392  1  0.87721500  0.24396615  0.73710584  1
  O  O393  1  0.88065555  0.74409952  0.24047887  1
  O  O394  1  0.88539966  0.75549877  0.73943049  1
  O  O395  1  0.37992228  0.48956929  0.49032444  1
  O  O396  1  0.39371614  0.49894382  1.02332872  1
  O  O397  1  0.37202492  0.98899651  0.49126771  1
  O  O398  1  0.37736717  0.99200497  0.99341059  1
  O  O399  1  0.87850944  0.49961105  0.48338600  1
  O  O400  1  0.87193443  0.48651950  0.99074362  1
  O  O401  1  0.88186171  0.99482145  0.49350450  1
  O  O402  1  0.88833215  1.00369531  0.98759594  1
  O  O403  1  0.11197087  -0.00237397  0.00467485  1
  O  O404  1  0.11783302  0.00736005  0.50686477  1
  O  O405  1  0.12627050  0.50915019  -0.01180812  1
  O  O406  1  0.10672424  0.50004949  0.49005232  1
  O  O407  1  0.62402046  0.00961900  0.01081854  1
  O  O408  1  0.62931633  0.01207926  0.49536984  1
  O  O409  1  0.61852518  0.50534232  0.01646648  1
  O  O410  1  0.61850465  0.50406885  0.49963494  1
  O  O411  1  0.36317840  0.36865713  0.11101379  1
  O  O412  1  0.37911479  0.35517744  0.61513159  1
  O  O413  1  0.37916231  0.87491544  0.11158147  1
  O  O414  1  0.36632845  0.87576221  0.61084051  1
  O  O415  1  0.86591131  0.36807844  0.11911587  1
  O  O416  1  0.86443608  0.36861921  0.62263347  1
  O  O417  1  0.86622914  0.86610572  0.12932320  1
  O  O418  1  0.87211472  0.86466232  0.61702294  1
  O  O419  1  0.13054920  0.13044050  0.38935508  1
  O  O420  1  0.13291218  0.14852003  0.81840845  1
  O  O421  1  0.11769233  0.63470211  0.36898955  1
  O  O422  1  0.12375216  0.63228878  0.89210222  1
  O  O423  1  0.63406244  0.13028425  0.38159329  1
  O  O424  1  0.62392862  0.12151286  0.89407495  1
  O  O425  1  0.63388832  0.62633158  0.37709078  1
  O  O426  1  0.63450825  0.61785035  0.87688933  1
