# generated using pymatgen
data_V85Zn86O256
_symmetry_space_group_name_H-M   'P 1'
_cell_length_a   16.94738051
_cell_length_b   16.94789947
_cell_length_c   16.94958551
_cell_angle_alpha   90.02138951
_cell_angle_beta   89.96371924
_cell_angle_gamma   90.08287594
_symmetry_Int_Tables_number   1
_chemical_formula_structural   V85Zn86O256
_chemical_formula_sum   'V85 Zn86 O256'
_cell_volume   4868.29593986
_cell_formula_units_Z   1
loop_
 _symmetry_equiv_pos_site_id
 _symmetry_equiv_pos_as_xyz
  1  'x, y, z'
loop_
 _atom_site_type_symbol
 _atom_site_label
 _atom_site_symmetry_multiplicity
 _atom_site_fract_x
 _atom_site_fract_y
 _atom_site_fract_z
 _atom_site_occupancy
  V  V0  1  0.75538047  0.25045235  0.50555521  1
  V  V1  1  0.62050495  0.75138872  0.37470959  1
  V  V2  1  0.24711920  0.25602474  0.50012016  1
  V  V3  1  0.88253156  0.37913090  0.00485458  1
  V  V4  1  0.25023137  0.75119486  -0.00920773  1
  V  V5  1  0.13709111  0.49274738  0.62111339  1
  V  V6  1  0.75298156  0.74965282  0.00261196  1
  V  V7  1  0.12569161  0.74924613  0.37296969  1
  V  V8  1  0.87816652  0.25177714  0.63100245  1
  V  V9  1  0.87543712  0.87556013  0.49862256  1
  V  V10  1  0.25658738  0.86311757  0.60981830  1
  V  V11  1  0.87754232  0.87537147  -0.00087098  1
  V  V12  1  -0.00231230  0.86824116  0.36263052  1
  V  V13  1  0.75105124  0.12593875  0.87571444  1
  V  V14  1  0.63809019  0.37052296  0.73992433  1
  V  V15  1  0.00540088  0.62659166  0.12864904  1
  V  V16  1  0.62640222  0.24837823  0.87666011  1
  V  V17  1  0.49645353  0.24161251  0.75020778  1
  V  V18  1  0.25930374  0.12599735  0.87160215  1
  V  V19  1  0.00115295  0.75044833  0.75185018  1
  V  V20  1  0.75085614  0.12596558  0.37391052  1
  V  V21  1  0.12684685  -0.00207993  0.62332761  1
  V  V22  1  0.87023843  0.61508315  0.75157404  1
  V  V23  1  0.49761149  0.75401994  0.24888140  1
  V  V24  1  0.49716191  0.50120171  0.51154503  1
  V  V25  1  0.87598090  0.49813291  0.36937569  1
  V  V26  1  0.69139180  0.44252126  0.30077213  1
  V  V27  1  0.36749335  0.24906055  0.62910496  1
  V  V28  1  0.74843664  0.87613283  0.62909550  1
  V  V29  1  0.37307694  0.12213416  0.24909657  1
  V  V30  1  0.37003325  -0.00283292  0.37746716  1
  V  V31  1  0.50732536  0.12171040  0.12896114  1
  V  V32  1  0.38138721  0.49443213  0.37325828  1
  V  V33  1  0.49350804  0.87551093  0.38305036  1
  V  V34  1  0.50016411  0.62650271  0.12552023  1
  V  V35  1  0.11632634  0.24649056  0.86622805  1
  V  V36  1  0.00054825  0.49645662  0.49812082  1
  V  V37  1  0.75054544  -0.00155972  0.75123225  1
  V  V38  1  0.74734645  0.75343254  0.49787994  1
  V  V39  1  0.12295208  0.12585994  0.49886340  1
  V  V40  1  -0.00179547  -0.00073111  0.49870318  1
  V  V41  1  0.12011834  0.24964294  0.37210144  1
  V  V42  1  0.38858033  0.73898428  0.62414695  1
  V  V43  1  0.50635256  0.26145194  0.25723889  1
  V  V44  1  0.12111726  0.36998315  0.24783876  1
  V  V45  1  0.62231851  0.88311709  0.24833410  1
  V  V46  1  0.00296396  0.38265151  0.87235153  1
  V  V47  1  0.62431147  0.75791525  0.86703763  1
  V  V48  1  0.25159964  0.87766612  0.12789595  1
  V  V49  1  0.00037595  0.12491919  0.63492521  1
  V  V50  1  0.87792014  0.25207648  0.13791760  1
  V  V51  1  0.37262683  0.62603290  0.24969259  1
  V  V52  1  -0.00431313  0.36999702  0.37201934  1
  V  V53  1  0.87654976  0.75309251  0.62639251  1
  V  V54  1  0.00161595  0.00175943  0.00037451  1
  V  V55  1  0.62277232  0.12763965  0.49931070  1
  V  V56  1  -0.00268768  0.12914056  0.13725160  1
  V  V57  1  0.49282492  -0.00517805  0.00065327  1
  V  V58  1  0.62167180  -0.00665972  0.62634794  1
  V  V59  1  0.12967466  0.00070152  0.13288646  1
  V  V60  1  0.87895531  0.63274641  0.24989442  1
  V  V61  1  0.24718689  0.12086211  0.36950413  1
  V  V62  1  0.75161946  0.25851343  0.00688961  1
  V  V63  1  0.63424397  0.48535634  0.12348831  1
  V  V64  1  0.37784762  0.37143653  0.49681708  1
  V  V65  1  0.12318682  0.61834202  -0.00808759  1
  V  V66  1  0.25947743  0.00129810  0.74789969  1
  V  V67  1  0.74625458  0.88092663  0.12413521  1
  V  V68  1  0.74836982  0.00820176  0.24505131  1
  V  V69  1  0.49366939  0.12495716  0.62423813  1
  V  V70  1  0.37481730  0.25264272  0.12266453  1
  V  V71  1  0.12647829  0.12711541  -0.00015168  1
  V  V72  1  0.74588630  0.62893426  0.36660330  1
  V  V73  1  0.62836699  0.62579749  0.00497162  1
  V  V74  1  0.37293980  0.75698393  0.12133512  1
  V  V75  1  0.62881646  0.11744689  0.00483319  1
  V  V76  1  0.49251242  0.49930660  0.00389707  1
  V  V77  1  0.42783278  0.55395884  0.82007985  1
  V  V78  1  0.24830570  0.49757468  0.24804452  1
  V  V79  1  0.24614402  0.50296292  0.76903425  1
  V  V80  1  0.00521846  0.62356834  0.62412150  1
  V  V81  1  0.25099961  0.62921385  0.38184303  1
  V  V82  1  0.12901600  0.87398635  0.74970099  1
  V  V83  1  0.87417750  0.00302004  0.36881023  1
  V  V84  1  0.49398288  0.36995747  0.87314625  1
  Zn  Zn85  1  0.88023560  0.12666894  0.75614790  1
  Zn  Zn86  1  0.62522551  0.26549034  0.37543999  1
  Zn  Zn87  1  0.12952652  0.62951776  0.50090387  1
  Zn  Zn88  1  0.86301689  0.49442671  0.87616049  1
  Zn  Zn89  1  0.12901778  0.74548968  0.87094115  1
  Zn  Zn90  1  0.25151191  0.25268200  -0.00313506  1
  Zn  Zn91  1  0.64805681  0.50386217  0.63294431  1
  Zn  Zn92  1  0.50486046  0.62382868  0.64839165  1
  Zn  Zn93  1  0.12305742  0.86987592  0.24591779  1
  Zn  Zn94  1  0.49480124  -0.00041920  0.49945856  1
  Zn  Zn95  1  0.36986217  0.37869760  -0.00377431  1
  Zn  Zn96  1  0.12985795  0.36762532  0.74155040  1
  Zn  Zn97  1  0.88262018  0.75395002  0.12989629  1
  Zn  Zn98  1  0.83146860  0.41492763  0.55511144  1
  Zn  Zn99  1  0.00296897  0.87491504  0.87617112  1
  Zn  Zn100  1  0.49267743  0.86175242  0.84865990  1
  Zn  Zn101  1  0.24779448  0.37448961  0.12167056  1
  Zn  Zn102  1  0.87667520  0.00120107  0.87522750  1
  Zn  Zn103  1  0.75430600  0.62300823  0.87706503  1
  Zn  Zn104  1  0.37152065  -0.01249297  0.88166935  1
  Zn  Zn105  1  0.11713258  0.49551041  0.12200614  1
  Zn  Zn106  1  0.61901258  0.62753874  0.50669561  1
  Zn  Zn107  1  0.18777198  0.18917218  0.18677078  1
  Zn  Zn108  1  0.18784218  0.18430557  0.68785760  1
  Zn  Zn109  1  0.18610106  0.68925648  0.19016335  1
  Zn  Zn110  1  0.19440306  0.68483302  0.68878891  1
  Zn  Zn111  1  0.68823084  0.19437726  0.18816446  1
  Zn  Zn112  1  0.68764505  0.18462291  0.68835583  1
  Zn  Zn113  1  0.68827416  0.69085491  0.18685445  1
  Zn  Zn114  1  0.68724588  0.68791844  0.68525031  1
  Zn  Zn115  1  0.31178687  0.30979698  0.31093685  1
  Zn  Zn116  1  0.30669700  0.31550187  0.80973417  1
  Zn  Zn117  1  0.30841572  0.81279539  0.31071763  1
  Zn  Zn118  1  0.31618591  0.81234044  0.80684963  1
  Zn  Zn119  1  0.81521244  0.30796705  0.31781555  1
  Zn  Zn120  1  0.81878861  0.30865290  0.81509725  1
  Zn  Zn121  1  0.81086158  0.81506908  0.31008927  1
  Zn  Zn122  1  0.81200124  0.81228951  0.81468576  1
  Zn  Zn123  1  0.18763487  0.43882735  0.43502347  1
  Zn  Zn124  1  0.18556293  0.43416811  0.93925121  1
  Zn  Zn125  1  0.18387576  0.93780672  0.43281168  1
  Zn  Zn126  1  0.19038036  0.93539342  0.93837495  1
  Zn  Zn127  1  0.69480878  0.44718574  0.47051063  1
  Zn  Zn128  1  0.68750965  0.43588098  0.93493214  1
  Zn  Zn129  1  0.68441255  0.93944920  0.43823253  1
  Zn  Zn130  1  0.68527388  0.93931983  0.93774594  1
  Zn  Zn131  1  0.31209470  0.06605564  0.06343020  1
  Zn  Zn132  1  0.30953660  0.06293872  0.55912070  1
  Zn  Zn133  1  0.30785625  0.56765897  0.06194228  1
  Zn  Zn134  1  0.31749213  0.56609597  0.56521485  1
  Zn  Zn135  1  0.81612236  0.06672862  0.06405144  1
  Zn  Zn136  1  0.81350072  0.06506697  0.56239594  1
  Zn  Zn137  1  0.81525817  0.56100862  0.06717068  1
  Zn  Zn138  1  0.81597582  0.57908744  0.55539554  1
  Zn  Zn139  1  0.43836832  0.43710876  0.18518313  1
  Zn  Zn140  1  0.43311716  0.42469825  0.68527165  1
  Zn  Zn141  1  0.43557015  0.94152944  0.18721500  1
  Zn  Zn142  1  0.43336883  0.93132853  0.68399719  1
  Zn  Zn143  1  0.93633274  0.44177593  0.18845605  1
  Zn  Zn144  1  0.95045933  0.43685134  0.69347695  1
  Zn  Zn145  1  0.93449330  0.94296784  0.18428262  1
  Zn  Zn146  1  0.93705634  0.93915177  0.68933610  1
  Zn  Zn147  1  0.06148617  0.05966671  0.31171686  1
  Zn  Zn148  1  0.06857934  0.05782325  0.81466635  1
  Zn  Zn149  1  0.06334362  0.56318781  0.30907311  1
  Zn  Zn150  1  0.06267547  0.55853495  0.81025647  1
  Zn  Zn151  1  0.56123939  0.06387440  0.31393209  1
  Zn  Zn152  1  0.54220915  0.02937140  0.79324202  1
  Zn  Zn153  1  0.55517094  0.56548107  0.31514036  1
  Zn  Zn154  1  0.59846531  0.55196675  0.82214701  1
  Zn  Zn155  1  0.43681472  0.18786317  0.43475681  1
  Zn  Zn156  1  0.43958537  0.18212175  0.94013562  1
  Zn  Zn157  1  0.43033315  0.68877461  0.44405846  1
  Zn  Zn158  1  0.44060157  0.69526715  0.94088092  1
  Zn  Zn159  1  0.93577934  0.18673414  0.44022395  1
  Zn  Zn160  1  0.93750987  0.19026830  0.94332794  1
  Zn  Zn161  1  0.93930455  0.68775106  0.43691189  1
  Zn  Zn162  1  0.94204566  0.68585071  0.93777805  1
  Zn  Zn163  1  0.06016418  0.31095945  0.06060463  1
  Zn  Zn164  1  0.05601442  0.31308131  0.56050243  1
  Zn  Zn165  1  0.06487705  0.80855787  0.06321385  1
  Zn  Zn166  1  0.06635720  0.81209709  0.55828590  1
  Zn  Zn167  1  0.55909630  0.30880451  0.06203420  1
  Zn  Zn168  1  0.55946185  0.31255438  0.56069230  1
  Zn  Zn169  1  0.56554975  0.81478939  0.06201287  1
  Zn  Zn170  1  0.55858804  0.81048965  0.56470795  1
  O  O171  1  0.12085144  0.12020701  0.11831722  1
  O  O172  1  0.11796898  0.11941488  0.61851783  1
  O  O173  1  0.11694393  0.62389693  0.12159076  1
  O  O174  1  0.11556834  0.61839961  0.62310322  1
  O  O175  1  0.61767356  0.13140466  0.11896669  1
  O  O176  1  0.61614856  0.12095199  0.61544287  1
  O  O177  1  0.62035139  0.62253283  0.11819133  1
  O  O178  1  0.62003234  0.61893473  0.62636976  1
  O  O179  1  0.36795326  0.38065413  0.38584105  1
  O  O180  1  0.38940252  0.36568768  0.87645494  1
  O  O181  1  0.38099502  0.88514519  0.36457088  1
  O  O182  1  0.38222213  0.87450127  0.87056392  1
  O  O183  1  0.88317777  0.38420258  0.37014069  1
  O  O184  1  0.88688641  0.37371710  0.88123805  1
  O  O185  1  0.87979998  0.88139085  0.37848347  1
  O  O186  1  0.87648641  0.87786537  0.88840086  1
  O  O187  1  0.25316477  0.01176215  0.37523600  1
  O  O188  1  0.25062092  0.00576292  0.86747828  1
  O  O189  1  0.25874340  0.50471387  0.36497110  1
  O  O190  1  0.24437355  0.50439072  0.86833973  1
  O  O191  1  0.75523264  0.00465406  0.36830795  1
  O  O192  1  0.75002020  0.00666177  0.86796147  1
  O  O193  1  0.75051286  0.50431969  0.37124452  1
  O  O194  1  0.74698712  0.50826892  0.87544224  1
  O  O195  1  0.25063099  0.49977324  0.13947554  1
  O  O196  1  0.23767049  0.49947440  0.61544841  1
  O  O197  1  0.24133147  0.99156091  0.11579432  1
  O  O198  1  0.24399709  0.99671757  0.62951151  1
  O  O199  1  0.73269431  0.50263714  0.12427048  1
  O  O200  1  0.74941321  0.49105645  0.58168238  1
  O  O201  1  0.75625578  0.99549139  0.13490822  1
  O  O202  1  0.74490123  0.99620454  0.62954979  1
  O  O203  1  0.00787915  0.38240476  0.26269561  1
  O  O204  1  0.00705817  0.37178304  0.76763488  1
  O  O205  1  -0.00222360  0.88192485  0.25971404  1
  O  O206  1  0.00779574  0.86701912  0.74827851  1
  O  O207  1  0.49560592  0.35959501  0.24878806  1
  O  O208  1  0.50462044  0.35975490  0.75448277  1
  O  O209  1  0.50693092  0.87401063  0.25422796  1
  O  O210  1  0.51635241  0.92175795  0.75598352  1
  O  O211  1  0.49485557  0.13094865  0.24491683  1
  O  O212  1  0.50427813  0.13322180  0.74010507  1
  O  O213  1  0.49345408  0.63321321  0.24404072  1
  O  O214  1  0.49977539  0.60317402  0.76658517  1
  O  O215  1  1.00187308  0.12063874  0.23653907  1
  O  O216  1  1.00190611  0.11598468  0.73832202  1
  O  O217  1  0.99325901  0.62575662  0.24134600  1
  O  O218  1  0.99528603  0.63090138  0.74265006  1
  O  O219  1  0.37783306  0.24901265  0.01204162  1
  O  O220  1  0.36792836  0.25437657  0.50247782  1
  O  O221  1  0.36106829  0.74303112  0.00918708  1
  O  O222  1  0.37516385  0.74980958  0.52132195  1
  O  O223  1  0.86828922  0.25921666  0.00819868  1
  O  O224  1  0.86722423  0.24233651  0.51418086  1
  O  O225  1  0.86970247  0.75744332  0.00119340  1
  O  O226  1  0.86947826  0.75499736  0.50612327  1
  O  O227  1  0.12995300  0.24565274  0.49457776  1
  O  O228  1  0.12549938  0.23676726  0.99498220  1
  O  O229  1  0.11792218  0.74542913  0.48213183  1
  O  O230  1  0.13414836  0.74224737  0.99570971  1
  O  O231  1  0.63093942  0.24366810  0.49679612  1
  O  O232  1  0.63260386  0.24298267  0.99765811  1
  O  O233  1  0.62824284  0.74896224  0.49253773  1
  O  O234  1  0.63446687  0.74308727  1.00014759  1
  O  O235  1  0.49428752  0.24130404  0.13469610  1
  O  O236  1  0.49196011  0.24308083  0.63054858  1
  O  O237  1  0.49252465  0.74835093  0.12699449  1
  O  O238  1  0.49459013  0.74717294  0.63377522  1
  O  O239  1  0.98899960  0.24144286  0.12212262  1
  O  O240  1  0.98937587  0.23689144  0.61755119  1
  O  O241  1  0.99859892  0.73534436  0.12326460  1
  O  O242  1  0.99869008  0.74344583  0.63227674  1
  O  O243  1  0.00433990  0.25919579  0.38147526  1
  O  O244  1  0.00985099  0.25441195  0.87993266  1
  O  O245  1  0.00364374  0.76049294  0.37599241  1
  O  O246  1  0.00249416  0.75286790  0.86172411  1
  O  O247  1  0.50411220  0.24748801  0.36219900  1
  O  O248  1  0.50478835  0.25054517  0.86854888  1
  O  O249  1  0.49920144  0.75713486  0.36921858  1
  O  O250  1  0.51808220  0.75186354  0.88074602  1
  O  O251  1  0.24253083  0.13398424  0.49068289  1
  O  O252  1  0.24140024  0.12583228  0.99151995  1
  O  O253  1  0.25058080  0.61696672  0.48482211  1
  O  O254  1  0.23485103  0.63878947  1.00809774  1
  O  O255  1  0.74237479  0.13085065  0.49450551  1
  O  O256  1  0.74523922  0.13131413  0.99725210  1
  O  O257  1  0.74658613  0.63699662  0.48338443  1
  O  O258  1  0.74604901  0.63470701  1.00600832  1
  O  O259  1  0.25338735  0.37104109  0.00357002  1
  O  O260  1  0.25330117  0.36067247  0.49336476  1
  O  O261  1  0.24313483  0.85944538  0.01039215  1
  O  O262  1  0.24366721  0.88249625  0.51315133  1
  O  O263  1  0.75473253  0.36185981  -0.00327899  1
  O  O264  1  0.75570831  0.35430057  0.49124234  1
  O  O265  1  0.75563231  0.87304320  0.00758232  1
  O  O266  1  0.75555590  0.87200565  0.50512264  1
  O  O267  1  0.13303964  0.48868429  0.25064298  1
  O  O268  1  0.13349091  0.49721940  0.74129247  1
  O  O269  1  0.12351167  0.99837142  0.23557990  1
  O  O270  1  0.13069692  0.99067294  0.74210197  1
  O  O271  1  0.62320614  0.49805223  0.24294520  1
  O  O272  1  0.62610046  0.47758459  0.74443465  1
  O  O273  1  0.63198747  0.99010440  0.25528846  1
  O  O274  1  0.64297235  1.01529390  0.73560201  1
  O  O275  1  0.37902513  0.01512120  0.25843689  1
  O  O276  1  0.36085097  0.00188977  0.74745228  1
  O  O277  1  0.37067946  0.50283167  0.25617863  1
  O  O278  1  0.36931363  0.49524873  0.75622260  1
  O  O279  1  0.86441804  -0.00265094  0.26108528  1
  O  O280  1  0.86456831  0.00424726  0.75270528  1
  O  O281  1  0.87660571  0.51309402  0.26243673  1
  O  O282  1  0.88045655  0.51273280  0.74776640  1
  O  O283  1  0.11748076  0.36991705  0.36875385  1
  O  O284  1  0.11420661  0.36510714  0.87862000  1
  O  O285  1  0.11517659  0.86990279  0.37061017  1
  O  O286  1  0.12516094  0.87402607  0.86053444  1
  O  O287  1  0.64000530  0.38776514  0.36912643  1
  O  O288  1  0.61345551  0.36689388  0.86781039  1
  O  O289  1  0.61632819  0.87164996  0.36754063  1
  O  O290  1  0.62646924  0.86016359  0.88065824  1
  O  O291  1  0.38177877  0.13222475  0.13289557  1
  O  O292  1  0.38670199  0.13219360  0.61518313  1
  O  O293  1  0.37956537  0.63534456  0.13091701  1
  O  O294  1  0.38691529  0.63213587  0.62541573  1
  O  O295  1  0.88555270  0.13886844  0.12055458  1
  O  O296  1  0.88516673  0.12944637  0.62758942  1
  O  O297  1  0.88363123  0.62733712  0.13301712  1
  O  O298  1  0.88618050  0.63163670  0.63279556  1
  O  O299  1  0.26223870  0.24981383  0.12336144  1
  O  O300  1  0.25846939  0.23981773  0.61473438  1
  O  O301  1  0.25615206  0.75570519  0.11919939  1
  O  O302  1  0.24127634  0.76216869  0.61659802  1
  O  O303  1  0.76495136  0.24444724  0.11872125  1
  O  O304  1  0.76448286  0.24065515  0.61875390  1
  O  O305  1  0.75346213  0.76044369  0.11649351  1
  O  O306  1  0.75459312  0.75704073  0.61864493  1
  O  O307  1  0.24292148  0.23998079  0.38061422  1
  O  O308  1  0.24118329  0.24157419  0.87530506  1
  O  O309  1  0.24325655  0.74041806  0.37184277  1
  O  O310  1  0.25003037  0.75283366  0.88803089  1
  O  O311  1  0.74697959  0.23973151  0.38081440  1
  O  O312  1  0.74828044  0.24314336  0.88487462  1
  O  O313  1  0.74211038  0.74682931  0.37689754  1
  O  O314  1  0.74496796  0.74836503  0.88850130  1
  O  O315  1  0.00712045  0.11745936  0.00697672  1
  O  O316  1  0.00521303  0.11673527  0.50570169  1
  O  O317  1  0.01511968  0.62950173  0.00942882  1
  O  O318  1  -0.00060191  0.61502850  0.50781497  1
  O  O319  1  0.51027851  0.12252430  0.01172915  1
  O  O320  1  0.50813807  0.12650736  0.50443143  1
  O  O321  1  0.50851127  0.61894046  0.00607419  1
  O  O322  1  0.49726491  0.60851132  0.49632566  1
  O  O323  1  0.49100634  0.38604952  0.50020087  1
  O  O324  1  0.50020489  0.38336185  0.99127762  1
  O  O325  1  0.50316605  0.87706307  0.48580403  1
  O  O326  1  0.50897617  0.89527883  1.00446509  1
  O  O327  1  1.00200870  0.38800567  0.48752817  1
  O  O328  1  0.99298854  0.37060892  0.98846559  1
  O  O329  1  0.99340778  0.88173837  0.49200589  1
  O  O330  1  0.99395088  0.88161611  1.00171764  1
  O  O331  1  0.48532439  0.50042272  0.38068273  1
  O  O332  1  0.49764846  0.49362645  0.88057109  1
  O  O333  1  0.49072690  0.99284665  0.37519903  1
  O  O334  1  0.49358801  1.01617985  0.89662921  1
  O  O335  1  0.99296225  0.49735066  0.38028063  1
  O  O336  1  0.99752945  0.48557412  0.87449741  1
  O  O337  1  0.99049322  0.99510769  0.37837661  1
  O  O338  1  0.99990071  0.99818628  0.88806807  1
  O  O339  1  0.00640345  0.00657826  0.11600186  1
  O  O340  1  0.00536809  0.00465903  0.61827880  1
  O  O341  1  -0.00007131  0.51836727  0.12796794  1
  O  O342  1  0.00545388  0.50690323  0.61687796  1
  O  O343  1  0.49707759  0.01378314  0.11816862  1
  O  O344  1  0.50522981  0.00883502  0.61858410  1
  O  O345  1  0.50896095  0.50573228  0.12063783  1
  O  O346  1  0.49122554  0.49962828  0.61557602  1
  O  O347  1  0.24233343  0.38113550  0.24937648  1
  O  O348  1  0.24674733  0.39328865  0.75129313  1
  O  O349  1  0.24640681  0.87224053  0.23274916  1
  O  O350  1  0.24210095  0.88227234  0.73802187  1
  O  O351  1  0.74950712  0.38028072  0.25101709  1
  O  O352  1  0.73600256  0.36128279  0.75377384  1
  O  O353  1  0.74333611  0.88488312  0.24391885  1
  O  O354  1  0.75558399  0.88416812  0.74140558  1
  O  O355  1  0.25889457  0.13152706  0.25858910  1
  O  O356  1  0.24070444  0.11273369  0.76012157  1
  O  O357  1  0.25499144  0.61717609  0.25720343  1
  O  O358  1  0.25081393  0.60100143  0.74010393  1
  O  O359  1  0.74117070  0.11546373  0.25829002  1
  O  O360  1  0.75372076  0.12088043  0.76125409  1
  O  O361  1  0.75513562  0.62963995  0.26026503  1
  O  O362  1  0.76875919  0.63101659  0.74779973  1
  O  O363  1  0.36610867  0.12159864  0.36790908  1
  O  O364  1  0.36116401  0.12354750  0.87872930  1
  O  O365  1  0.36889967  0.61868849  0.36871656  1
  O  O366  1  0.37958661  0.61919201  0.87652655  1
  O  O367  1  0.86109607  0.11705187  0.37996013  1
  O  O368  1  0.86442014  0.12405501  0.87890511  1
  O  O369  1  0.86719576  0.62006242  0.37002488  1
  O  O370  1  0.87835131  0.62256987  0.86280456  1
  O  O371  1  0.12379598  0.37611434  0.13276545  1
  O  O372  1  0.11395239  0.38655425  0.62542556  1
  O  O373  1  0.13043176  0.88350249  0.12459483  1
  O  O374  1  0.13004150  0.87925381  0.63139494  1
  O  O375  1  0.62232733  0.38647617  0.12054085  1
  O  O376  1  0.62464845  0.37002023  0.63704464  1
  O  O377  1  0.63796816  0.87368501  0.13312976  1
  O  O378  1  0.62993259  0.88751780  0.61759015  1
  O  O379  1  0.12795043  0.26206265  0.25555953  1
  O  O380  1  0.12945697  0.24996533  0.76141674  1
  O  O381  1  0.12490145  0.75206683  0.26423375  1
  O  O382  1  0.12045821  0.75496324  0.74960621  1
  O  O383  1  0.61165980  0.24983348  0.25399041  1
  O  O384  1  0.61701519  0.25344988  0.75476709  1
  O  O385  1  0.61876997  0.76213336  0.25386434  1
  O  O386  1  0.63471568  0.74558911  0.76901673  1
  O  O387  1  0.38437654  0.24100737  0.24583762  1
  O  O388  1  0.38011228  0.25332147  0.73781431  1
  O  O389  1  0.37969374  0.74604557  0.24200237  1
  O  O390  1  0.35622158  0.75018363  0.72190995  1
  O  O391  1  0.87260006  0.25124909  0.23676557  1
  O  O392  1  0.87369803  0.24374018  0.73596727  1
  O  O393  1  0.87050007  0.73805733  0.25043668  1
  O  O394  1  0.88403432  0.74550062  0.74502399  1
  O  O395  1  0.37977103  0.49130744  0.49454259  1
  O  O396  1  0.38825502  0.50134042  1.00947401  1
  O  O397  1  0.37559425  1.00716655  0.48216876  1
  O  O398  1  0.38854062  1.00375007  1.00404647  1
  O  O399  1  0.88298348  0.50193658  0.48779561  1
  O  O400  1  0.86714425  0.48254875  1.00204582  1
  O  O401  1  0.87668485  0.99565980  0.48891032  1
  O  O402  1  0.88419854  0.99336886  1.00140021  1
  O  O403  1  0.11948369  0.00876758  0.00528716  1
  O  O404  1  0.11825843  0.00592875  0.50350485  1
  O  O405  1  0.13252178  0.51543982  0.00499336  1
  O  O406  1  0.11758308  0.50332245  0.50390735  1
  O  O407  1  0.61954429  0.01342616  -0.00026159  1
  O  O408  1  0.62375837  0.01007289  0.50865414  1
  O  O409  1  0.61693379  0.50582842  0.00898331  1
  O  O410  1  0.60462982  0.50401908  0.50326201  1
  O  O411  1  0.37535636  0.36383593  0.12298476  1
  O  O412  1  0.37416249  0.36112310  0.60967771  1
  O  O413  1  0.36989128  0.86491514  0.12840104  1
  O  O414  1  0.36152268  0.87100417  0.62114738  1
  O  O415  1  0.88589409  0.36252937  0.12011315  1
  O  O416  1  0.89133398  0.35875539  0.62990913  1
  O  O417  1  0.86658593  0.87474612  0.11644573  1
  O  O418  1  0.87069889  0.87098233  0.61863944  1
  O  O419  1  0.12923341  0.12836428  0.37691009  1
  O  O420  1  0.12944377  0.12982292  0.88255077  1
  O  O421  1  0.13361933  0.63030074  0.37378065  1
  O  O422  1  0.11822380  0.62550194  0.88823711  1
  O  O423  1  0.63431392  0.12166932  0.38611846  1
  O  O424  1  0.63879733  0.13225187  0.88608204  1
  O  O425  1  0.63025037  0.63268552  0.37256007  1
  O  O426  1  0.63048286  0.63484398  0.89210231  1
