# generated using pymatgen
data_V85Zn86O256
_symmetry_space_group_name_H-M   'P 1'
_cell_length_a   16.94650979
_cell_length_b   16.94972784
_cell_length_c   16.93562267
_cell_angle_alpha   90.01129864
_cell_angle_beta   89.97440986
_cell_angle_gamma   90.00902879
_symmetry_Int_Tables_number   1
_chemical_formula_structural   V85Zn86O256
_chemical_formula_sum   'V85 Zn86 O256'
_cell_volume   4864.56608623
_cell_formula_units_Z   1
loop_
 _symmetry_equiv_pos_site_id
 _symmetry_equiv_pos_as_xyz
  1  'x, y, z'
loop_
 _atom_site_type_symbol
 _atom_site_label
 _atom_site_symmetry_multiplicity
 _atom_site_fract_x
 _atom_site_fract_y
 _atom_site_fract_z
 _atom_site_occupancy
  V  V0  1  0.37363212  0.12180647  0.75293400  1
  V  V1  1  0.50111272  0.25477766  0.74828709  1
  V  V2  1  0.86499730  0.38134853  0.02192573  1
  V  V3  1  0.62655609  0.63125288  0.00034474  1
  V  V4  1  0.37010223  0.25027868  0.62472140  1
  V  V5  1  -0.02289401  0.25171504  0.24520045  1
  V  V6  1  0.50085975  0.11962323  0.12290792  1
  V  V7  1  0.75985392  0.63223898  0.35850764  1
  V  V8  1  -0.00001791  0.12403937  0.62450258  1
  V  V9  1  0.62729798  0.25970512  0.37168960  1
  V  V10  1  0.49983936  0.75263456  0.75935630  1
  V  V11  1  -0.00777106  0.75361946  0.24589203  1
  V  V12  1  0.63099437  0.12153985  -0.01412704  1
  V  V13  1  0.49432560  0.62087957  0.14148264  1
  V  V14  1  0.14154268  0.51694841  0.14273044  1
  V  V15  1  0.37778548  0.87017974  -0.00111691  1
  V  V16  1  0.49703837  0.00192676  0.49793656  1
  V  V17  1  0.75247619  0.12166430  0.37012215  1
  V  V18  1  0.25759458  0.62622080  0.86581879  1
  V  V19  1  0.24959649  0.37261664  0.61864384  1
  V  V20  1  0.12271488  0.12630120  0.00762366  1
  V  V21  1  -0.00895122  0.00395116  -0.00343293  1
  V  V22  1  0.75063351  0.86445416  0.12116669  1
  V  V23  1  0.87354073  0.37965690  0.50119007  1
  V  V24  1  0.64176787  0.50181859  0.13079577  1
  V  V25  1  0.24106792  0.87577109  0.12831942  1
  V  V26  1  0.38035680  0.50394351  0.86601995  1
  V  V27  1  0.87290850  0.74974301  0.62483442  1
  V  V28  1  0.62378604  0.12657461  0.49901264  1
  V  V29  1  0.49951834  0.12747503  0.62242374  1
  V  V30  1  0.46534975  0.50963063  0.49962751  1
  V  V31  1  0.00711471  0.88221658  0.87005664  1
  V  V32  1  0.12609601  0.25316333  0.87926175  1
  V  V33  1  0.01253461  0.87808285  0.36577865  1
  V  V34  1  0.25097175  0.74881673  -0.00118212  1
  V  V35  1  0.62584460  0.00055394  0.62388298  1
  V  V36  1  0.00815239  0.75593780  0.74780778  1
  V  V37  1  0.37147447  0.87297350  0.50251878  1
  V  V38  1  0.12213397  0.50079712  0.62413722  1
  V  V39  1  0.13362951  0.24422486  0.37203624  1
  V  V40  1  0.62538055  0.37859958  0.74759393  1
  V  V41  1  0.87291917  0.12410511  0.76784310  1
  V  V42  1  0.15521956  0.38720988  0.27025806  1
  V  V43  1  -0.00598619  0.62823091  0.12369860  1
  V  V44  1  0.74929219  0.87552584  0.62002798  1
  V  V45  1  0.12844253  0.37631046  0.75344144  1
  V  V46  1  0.12492323  0.62456450  -0.00609893  1
  V  V47  1  0.38240106  0.25017093  0.12183456  1
  V  V48  1  0.00058726  0.25035028  0.75198491  1
  V  V49  1  -0.00083691  0.00123121  0.49689417  1
  V  V50  1  0.37590500  0.74534086  0.14211691  1
  V  V51  1  0.64409510  0.63560391  0.50242936  1
  V  V52  1  0.47817076  0.39699463  0.36649262  1
  V  V53  1  0.87001065  0.86875493  -0.01075791  1
  V  V54  1  -0.01931975  0.13145640  0.12631442  1
  V  V55  1  0.50288710  0.37617822  0.88063736  1
  V  V56  1  0.13126135  0.73931585  0.36629443  1
  V  V57  1  0.87423882  -0.00028081  0.37042435  1
  V  V58  1  0.87816264  0.62406976  0.75806051  1
  V  V59  1  -0.00630718  0.37298371  0.37196398  1
  V  V60  1  0.37431033  0.74445454  0.62836569  1
  V  V61  1  0.75086235  0.37544638  0.62535259  1
  V  V62  1  0.74895525  0.24759526  0.50182271  1
  V  V63  1  0.75394566  -0.00186221  0.24602361  1
  V  V64  1  0.37054448  0.00770098  0.37590518  1
  V  V65  1  -0.00779963  0.38470959  0.87974484  1
  V  V66  1  0.12171824  -0.01006461  0.62763881  1
  V  V67  1  0.87132526  0.50538969  0.35892399  1
  V  V68  1  0.63277850  0.50090509  0.61360337  1
  V  V69  1  0.87264410  0.87008164  0.49423483  1
  V  V70  1  0.50674860  0.62923245  0.63010030  1
  V  V71  1  0.24186911  0.00162284  0.25123849  1
  V  V72  1  0.25342930  0.24856772  -0.00118102  1
  V  V73  1  0.75398322  0.00454797  0.75943796  1
  V  V74  1  0.62297657  -0.00373913  0.12539484  1
  V  V75  1  0.75528635  0.50124741  0.76114846  1
  V  V76  1  0.37667273  -0.00744574  0.87418756  1
  V  V77  1  0.36712104  0.12892566  0.25028120  1
  V  V78  1  0.25552366  0.38025687  0.12081718  1
  V  V79  1  0.87580357  0.24809630  0.62585176  1
  V  V80  1  0.49726954  -0.00703654  -0.00402681  1
  V  V81  1  0.49635066  0.86242728  0.36939322  1
  V  V82  1  0.24311494  -0.00858087  0.75174769  1
  V  V83  1  0.62278272  0.87533241  0.75700809  1
  V  V84  1  0.50849384  0.24344355  0.25065102  1
  Zn  Zn85  1  0.24893981  0.74569840  0.49537461  1
  Zn  Zn86  1  0.24754538  0.12281715  0.87569892  1
  Zn  Zn87  1  -0.00144436  0.50441861  0.49794734  1
  Zn  Zn88  1  0.11773873  -0.00142172  0.12936362  1
  Zn  Zn89  1  0.86901128  0.74436370  0.12172327  1
  Zn  Zn90  1  0.63436452  0.38047855  0.24003254  1
  Zn  Zn91  1  0.62905883  0.75649149  0.88299512  1
  Zn  Zn92  1  0.25527481  0.50465920  0.74574312  1
  Zn  Zn93  1  0.63066848  0.75115020  0.37376458  1
  Zn  Zn94  1  0.63566810  0.24766623  0.87067178  1
  Zn  Zn95  1  0.00202722  0.50276573  0.00108836  1
  Zn  Zn96  1  0.50067495  0.50141979  0.00555912  1
  Zn  Zn97  1  0.37866793  0.37624513  -0.00364304  1
  Zn  Zn98  1  0.12482412  0.62253971  0.49489798  1
  Zn  Zn99  1  0.13061975  0.12386589  0.49535146  1
  Zn  Zn100  1  0.24511920  0.87057714  0.62763723  1
  Zn  Zn101  1  0.13103630  0.75747703  0.86704573  1
  Zn  Zn102  1  0.75627394  0.63349907  0.88460559  1
  Zn  Zn103  1  0.25633267  0.24413995  0.49237449  1
  Zn  Zn104  1  0.00058640  0.62675485  0.62209289  1
  Zn  Zn105  1  0.61893423  0.86865586  0.24712151  1
  Zn  Zn106  1  0.76395382  0.24643728  0.00203177  1
  Zn  Zn107  1  0.18545437  0.19687623  0.18793166  1
  Zn  Zn108  1  0.18575019  0.18222259  0.68768292  1
  Zn  Zn109  1  0.17842788  0.69179018  0.18527796  1
  Zn  Zn110  1  0.18791767  0.68648365  0.68217326  1
  Zn  Zn111  1  0.69835066  0.18273138  0.18222811  1
  Zn  Zn112  1  0.68806064  0.18672148  0.68985623  1
  Zn  Zn113  1  0.67766902  0.68965222  0.19112976  1
  Zn  Zn114  1  0.69256180  0.69097555  0.69556902  1
  Zn  Zn115  1  0.31814386  0.35919487  0.32644842  1
  Zn  Zn116  1  0.31453277  0.31405922  0.81128002  1
  Zn  Zn117  1  0.30903803  0.82048308  0.31331572  1
  Zn  Zn118  1  0.31590569  0.81148425  0.81128601  1
  Zn  Zn119  1  0.80785461  0.31705275  0.31093730  1
  Zn  Zn120  1  0.80998527  0.30924906  0.81868078  1
  Zn  Zn121  1  0.81087643  0.81146218  0.30891411  1
  Zn  Zn122  1  0.81206641  0.81196790  0.81073171  1
  Zn  Zn123  1  0.18346557  0.43274866  0.44316510  1
  Zn  Zn124  1  0.19035018  0.44254638  0.93964628  1
  Zn  Zn125  1  0.18895477  0.94018577  0.43975433  1
  Zn  Zn126  1  0.18639251  0.94035467  0.94210412  1
  Zn  Zn127  1  0.69238618  0.43341090  0.41715812  1
  Zn  Zn128  1  0.68443540  0.44126605  0.94175530  1
  Zn  Zn129  1  0.68447544  0.93649922  0.43698446  1
  Zn  Zn130  1  0.68915088  0.93849279  0.93614909  1
  Zn  Zn131  1  0.31083939  0.06177848  0.06370948  1
  Zn  Zn132  1  0.30663274  0.06439976  0.56334583  1
  Zn  Zn133  1  0.32144552  0.56418208  0.05360563  1
  Zn  Zn134  1  0.30959896  0.56679490  0.54797211  1
  Zn  Zn135  1  0.81002338  0.05652150  0.05861452  1
  Zn  Zn136  1  0.81412718  0.06019401  0.56332361  1
  Zn  Zn137  1  0.81380752  0.55768664  0.05673896  1
  Zn  Zn138  1  0.81634459  0.56255353  0.56656009  1
  Zn  Zn139  1  0.44219095  0.43153681  0.19377145  1
  Zn  Zn140  1  0.43428800  0.44403328  0.67547353  1
  Zn  Zn141  1  0.43012392  0.93606658  0.18820190  1
  Zn  Zn142  1  0.43821466  0.93477339  0.68600808  1
  Zn  Zn143  1  0.94929358  0.44420897  0.18573984  1
  Zn  Zn144  1  0.93865229  0.43769396  0.69124321  1
  Zn  Zn145  1  0.93460765  0.93717463  0.18232215  1
  Zn  Zn146  1  0.93412880  0.93899507  0.68905141  1
  Zn  Zn147  1  0.05677589  0.06912486  0.30706658  1
  Zn  Zn148  1  0.06235500  0.06542923  0.81527153  1
  Zn  Zn149  1  0.05332359  0.56398151  0.30938841  1
  Zn  Zn150  1  0.06521881  0.56584565  0.80902822  1
  Zn  Zn151  1  0.56256869  0.06013151  0.31240225  1
  Zn  Zn152  1  0.55731786  0.05649091  0.80826717  1
  Zn  Zn153  1  0.56767677  0.56819841  0.31597009  1
  Zn  Zn154  1  0.56740886  0.56189144  0.81057996  1
  Zn  Zn155  1  0.43292400  0.20037649  0.43052030  1
  Zn  Zn156  1  0.44403769  0.18560031  0.93512908  1
  Zn  Zn157  1  0.43821337  0.67937847  0.44738947  1
  Zn  Zn158  1  0.44141357  0.68388639  0.94209685  1
  Zn  Zn159  1  0.93663515  0.18782249  0.43632408  1
  Zn  Zn160  1  0.93839277  0.19943011  0.94267389  1
  Zn  Zn161  1  0.94148815  0.68907078  0.43657155  1
  Zn  Zn162  1  0.94152561  0.69274416  0.93313601  1
  Zn  Zn163  1  0.06688290  0.32183168  0.07088905  1
  Zn  Zn164  1  0.06290815  0.31234469  0.55973953  1
  Zn  Zn165  1  0.06112401  0.81267607  0.05698530  1
  Zn  Zn166  1  0.05842276  0.81129930  0.55362609  1
  Zn  Zn167  1  0.60500457  0.29510047  0.07839872  1
  Zn  Zn168  1  0.55520538  0.32477533  0.55199718  1
  Zn  Zn169  1  0.55714543  0.80754844  0.06786497  1
  Zn  Zn170  1  0.56074959  0.81356817  0.56160351  1
  O  O171  1  0.11801865  0.12960766  0.11560624  1
  O  O172  1  0.11031164  0.11705649  0.62645518  1
  O  O173  1  0.11093195  0.63694628  0.10351569  1
  O  O174  1  0.12053077  0.61204872  0.62847920  1
  O  O175  1  0.61930571  0.10772361  0.11558999  1
  O  O176  1  0.61813936  0.12159236  0.61950399  1
  O  O177  1  0.61485813  0.61846232  0.12080189  1
  O  O178  1  0.62923174  0.62293137  0.61760678  1
  O  O179  1  0.40852846  0.32203133  0.39102079  1
  O  O180  1  0.38571827  0.38113459  0.87252407  1
  O  O181  1  0.38181233  0.88224555  0.38193797  1
  O  O182  1  0.36982851  0.88148833  0.88575174  1
  O  O183  1  0.87926885  0.38191822  0.38253823  1
  O  O184  1  0.89300131  0.37688493  0.86829395  1
  O  O185  1  0.87864115  0.88041107  0.37996511  1
  O  O186  1  0.88282326  0.87373499  0.88483142  1
  O  O187  1  0.26193666  -0.00537459  0.36691654  1
  O  O188  1  0.25807499  0.00196363  0.87075277  1
  O  O189  1  0.22889081  0.43467356  0.34139706  1
  O  O190  1  0.25965300  0.50928026  0.87314779  1
  O  O191  1  0.75186000  0.00206734  0.36587386  1
  O  O192  1  0.74913909  -0.00239695  0.85864746  1
  O  O193  1  0.76262544  0.52203064  0.38483676  1
  O  O194  1  0.74436631  0.50558794  0.86309928  1
  O  O195  1  0.25880194  0.48453425  0.11021414  1
  O  O196  1  0.23703721  0.48904225  0.62789381  1
  O  O197  1  0.24869005  0.99206733  0.13220492  1
  O  O198  1  0.23920758  0.99647319  0.63395034  1
  O  O199  1  0.74024662  0.50454059  0.12938360  1
  O  O200  1  0.74928809  0.49201782  0.63298436  1
  O  O201  1  0.74212643  0.99253893  0.12979484  1
  O  O202  1  0.74373978  0.99424960  0.62960030  1
  O  O203  1  -0.00689663  0.36143404  0.25724599  1
  O  O204  1  0.01064038  0.37142843  0.75932733  1
  O  O205  1  -0.00326035  0.87176071  0.25567292  1
  O  O206  1  -0.00732328  0.87049221  0.75963840  1
  O  O207  1  0.51518448  0.35729234  0.26157965  1
  O  O208  1  0.50598642  0.37001963  0.75044778  1
  O  O209  1  0.49467261  0.87994989  0.26679571  1
  O  O210  1  0.51190283  0.86714921  0.74309167  1
  O  O211  1  0.49365493  0.12081992  0.23857586  1
  O  O212  1  0.49401837  0.13221328  0.74324750  1
  O  O213  1  0.49990210  0.62481915  0.24154487  1
  O  O214  1  0.51346721  0.63493677  0.73692442  1
  O  O215  1  0.99767726  0.14195212  0.24048782  1
  O  O216  1  0.99253829  0.12960149  0.74402388  1
  O  O217  1  1.00490431  0.63826141  0.23518104  1
  O  O218  1  0.99414842  0.63503521  0.74779323  1
  O  O219  1  0.37080634  0.24809252  0.00271665  1
  O  O220  1  0.37543056  0.24013958  0.52185750  1
  O  O221  1  0.36609415  0.75454068  0.00371449  1
  O  O222  1  0.37460072  0.75767010  0.50764385  1
  O  O223  1  0.87893407  0.27522708  0.00118786  1
  O  O224  1  0.86973319  0.25815771  0.50541496  1
  O  O225  1  0.87920983  0.76600650  0.00034795  1
  O  O226  1  0.88153078  0.76424344  0.50683848  1
  O  O227  1  0.11865535  0.24818513  0.48190266  1
  O  O228  1  0.13272199  0.24736109  0.99962246  1
  O  O229  1  0.12195529  0.75323979  0.47803412  1
  O  O230  1  0.13890108  0.74819567  0.99492755  1
  O  O231  1  0.62707938  0.24278365  0.49702208  1
  O  O232  1  0.60433897  0.22431949  0.98665221  1
  O  O233  1  0.62256668  0.73759514  0.49741069  1
  O  O234  1  0.61927061  0.73690982  1.00187929  1
  O  O235  1  0.50719795  0.24022503  0.13440791  1
  O  O236  1  0.49334077  0.25091971  0.63260964  1
  O  O237  1  0.48177262  0.74333139  0.12770247  1
  O  O238  1  0.49673557  0.74527630  0.63067643  1
  O  O239  1  1.00329510  0.24857485  0.13928913  1
  O  O240  1  0.99779407  0.24315054  0.63152579  1
  O  O241  1  0.99881157  0.74785502  0.12937738  1
  O  O242  1  0.98937871  0.75597547  0.63014555  1
  O  O243  1  -0.00227201  0.25334032  0.36090425  1
  O  O244  1  0.00844344  0.26261501  0.87100227  1
  O  O245  1  0.00575145  0.75947618  0.36444332  1
  O  O246  1  0.00529599  0.76202989  0.86486425  1
  O  O247  1  0.52013053  0.21861975  0.35620276  1
  O  O248  1  0.49989364  0.25720703  0.85952417  1
  O  O249  1  0.49220662  0.76089519  0.38264980  1
  O  O250  1  0.50333533  0.74492810  0.86224212  1
  O  O251  1  0.24345340  0.13201096  0.50428680  1
  O  O252  1  0.24144852  0.13047001  0.99931874  1
  O  O253  1  0.23734925  0.63325413  0.50221433  1
  O  O254  1  0.24590623  0.63325740  0.99138503  1
  O  O255  1  0.74390929  0.12827537  0.49617351  1
  O  O256  1  0.73304947  0.11889700  0.99971692  1
  O  O257  1  0.74527118  0.63199183  0.50593509  1
  O  O258  1  0.73289325  0.62119688  1.00197406  1
  O  O259  1  0.25312041  0.36408885  0.00301589  1
  O  O260  1  0.24727413  0.36447322  0.51524057  1
  O  O261  1  0.25859313  0.86992617  0.00660680  1
  O  O262  1  0.26139148  0.87177695  0.50144196  1
  O  O263  1  0.76403350  0.38368703  0.00110462  1
  O  O264  1  0.75652242  0.36768606  0.50242201  1
  O  O265  1  0.76329184  0.88265227  0.00377426  1
  O  O266  1  0.75658800  0.88111882  0.51055407  1
  O  O267  1  0.10177446  0.47564132  0.25071945  1
  O  O268  1  0.12810519  0.49086644  0.74431441  1
  O  O269  1  0.13807451  1.01101561  0.24853981  1
  O  O270  1  0.13227842  1.00648083  0.74272285  1
  O  O271  1  0.62056631  0.50501547  0.23414816  1
  O  O272  1  0.63601408  0.49750073  0.73769165  1
  O  O273  1  0.63112312  0.99291703  0.24084414  1
  O  O274  1  0.62997396  0.99455079  0.74170446  1
  O  O275  1  0.36632885  0.00888836  0.25626285  1
  O  O276  1  0.36998600  0.00302007  0.75587400  1
  O  O277  1  0.40190922  0.44350785  0.30101414  1
  O  O278  1  0.37424566  0.49794136  0.76024958  1
  O  O279  1  0.86178589  -0.00371125  0.25338582  1
  O  O280  1  0.86594136  0.01287345  0.74468746  1
  O  O281  1  0.87741228  0.49624095  0.26020047  1
  O  O282  1  0.86844415  0.51081553  0.74497276  1
  O  O283  1  0.10448496  0.36315339  0.37565420  1
  O  O284  1  0.12269200  0.37126314  0.87067893  1
  O  O285  1  0.11430633  0.87532280  0.37573061  1
  O  O286  1  0.11207901  0.87617000  0.88109450  1
  O  O287  1  0.59407393  0.35416658  0.39663502  1
  O  O288  1  0.61843029  0.37715189  0.86523930  1
  O  O289  1  0.60600345  0.87445869  0.38039277  1
  O  O290  1  0.62601403  0.87726409  0.86109257  1
  O  O291  1  0.38259584  0.12890933  0.12859639  1
  O  O292  1  0.38015203  0.12580705  0.63865423  1
  O  O293  1  0.37868555  0.63743147  0.12337495  1
  O  O294  1  0.39050610  0.63916731  0.62069969  1
  O  O295  1  0.88129276  0.12802278  0.11514094  1
  O  O296  1  0.88620782  0.13005402  0.62683468  1
  O  O297  1  0.88964929  0.62710386  0.11054761  1
  O  O298  1  0.87823840  0.63577140  0.63304491  1
  O  O299  1  0.25774059  0.25233605  0.11040689  1
  O  O300  1  0.25510075  0.25426126  0.63083822  1
  O  O301  1  0.25601375  0.75462693  0.11977847  1
  O  O302  1  0.26068857  0.75396681  0.62683615  1
  O  O303  1  0.71291618  0.25718627  0.10396399  1
  O  O304  1  0.75469934  0.25583343  0.62045929  1
  O  O305  1  0.74832701  0.76154021  0.12711664  1
  O  O306  1  0.76436682  0.76139913  0.63227964  1
  O  O307  1  0.23479696  0.26137662  0.37402841  1
  O  O308  1  0.24696272  0.24776593  0.88440249  1
  O  O309  1  0.23390027  0.75506176  0.36916985  1
  O  O310  1  0.25104735  0.74465073  0.88051004  1
  O  O311  1  0.74378509  0.23749872  0.38265974  1
  O  O312  1  0.74698826  0.25104669  0.88741143  1
  O  O313  1  0.75436316  0.73731837  0.37642089  1
  O  O314  1  0.74030368  0.74411642  0.86046628  1
  O  O315  1  0.00346282  0.12300631  0.00615603  1
  O  O316  1  0.00020068  0.11901784  0.50728707  1
  O  O317  1  0.00924148  0.62468490  -0.00296424  1
  O  O318  1  0.00568943  0.62291288  0.50353064  1
  O  O319  1  0.50254428  0.11051223  0.00489587  1
  O  O320  1  0.50288335  0.12209072  0.50427533  1
  O  O321  1  0.50913167  0.62407072  0.01357882  1
  O  O322  1  0.52156277  0.61588056  0.51341912  1
  O  O323  1  0.49057417  0.40362145  0.49499295  1
  O  O324  1  0.50478500  0.37233956  0.98344271  1
  O  O325  1  0.48868342  0.88167691  0.49365055  1
  O  O326  1  0.48543263  0.87631638  1.00570767  1
  O  O327  1  0.98779730  0.37153574  0.49084035  1
  O  O328  1  1.00093966  0.37793754  0.99061994  1
  O  O329  1  0.99097981  0.88307074  0.48746709  1
  O  O330  1  0.99047306  0.88423395  0.99351146  1
  O  O331  1  0.51687063  0.49698422  0.39111967  1
  O  O332  1  0.49722819  0.49235754  0.87184690  1
  O  O333  1  0.48814855  0.99509362  0.38019313  1
  O  O334  1  0.48436714  0.99903521  0.87785845  1
  O  O335  1  0.98945258  0.49079264  0.37710284  1
  O  O336  1  1.01149359  0.48680273  0.87661235  1
  O  O337  1  0.99438276  0.99632655  0.37382250  1
  O  O338  1  1.00223553  0.99569757  0.88388052  1
  O  O339  1  -0.00066526  0.01278597  0.11943113  1
  O  O340  1  0.00344665  0.00583549  0.62070346  1
  O  O341  1  0.01915105  0.51392005  0.12482204  1
  O  O342  1  0.01167677  0.49594227  0.62437412  1
  O  O343  1  0.50451884  -0.00188971  0.11910079  1
  O  O344  1  0.50490837  0.00601759  0.61805969  1
  O  O345  1  0.48647286  0.51212400  0.12596513  1
  O  O346  1  0.51755413  0.51126588  0.62110251  1
  O  O347  1  0.25429816  0.35188109  0.22621667  1
  O  O348  1  0.23710681  0.37371094  0.74738615  1
  O  O349  1  0.25386953  0.88885362  0.23982679  1
  O  O350  1  0.25249871  0.88770944  0.74978925  1
  O  O351  1  0.71825524  0.37997077  0.31403328  1
  O  O352  1  0.74637246  0.38135131  0.74497935  1
  O  O353  1  0.74792812  0.88246021  0.23931105  1
  O  O354  1  0.74583127  0.88482942  0.73758680  1
  O  O355  1  0.26187101  0.12232566  0.24013634  1
  O  O356  1  0.25809731  0.11375228  0.75263282  1
  O  O357  1  0.19475692  0.57943278  0.20429593  1
  O  O358  1  0.24712032  0.62619523  0.76244597  1
  O  O359  1  0.74485173  0.11269422  0.25799291  1
  O  O360  1  0.76117278  0.11753072  0.74432048  1
  O  O361  1  0.75154013  0.62877890  0.26025993  1
  O  O362  1  0.76093018  0.61550776  0.74786971  1
  O  O363  1  0.37778614  0.11830970  0.36404025  1
  O  O364  1  0.37516697  0.11742684  0.86469285  1
  O  O365  1  0.39523909  0.57264644  0.44716727  1
  O  O366  1  0.36927385  0.61816626  0.87899192  1
  O  O367  1  0.86041062  0.11643356  0.38247948  1
  O  O368  1  0.88340875  0.13146446  0.86657646  1
  O  O369  1  0.86816405  0.62034565  0.37689299  1
  O  O370  1  0.87540950  0.62958596  0.86268609  1
  O  O371  1  0.14017247  0.39161392  0.13429379  1
  O  O372  1  0.12981555  0.37583737  0.63411023  1
  O  O373  1  0.13738564  0.87759586  0.11712409  1
  O  O374  1  0.12170791  0.88662552  0.61918885  1
  O  O375  1  0.61512424  0.39861941  0.12577301  1
  O  O376  1  0.62974308  0.38311329  0.62579258  1
  O  O377  1  0.63015623  0.88293575  0.11999805  1
  O  O378  1  0.63274442  0.88014140  0.62745852  1
  O  O379  1  0.12345113  0.26632086  0.26130052  1
  O  O380  1  0.11961845  0.25462932  0.75742136  1
  O  O381  1  0.11529927  0.75426742  0.26000815  1
  O  O382  1  0.11213200  0.74979210  0.74602614  1
  O  O383  1  0.62582179  0.24656593  0.25738245  1
  O  O384  1  0.61661304  0.25616964  0.74952612  1
  O  O385  1  0.62282125  0.75684067  0.26006641  1
  O  O386  1  0.61689377  0.76159795  0.74594419  1
  O  O387  1  0.39038230  0.23935515  0.24035046  1
  O  O388  1  0.38087005  0.23884114  0.74698191  1
  O  O389  1  0.36473711  0.74959899  0.24003534  1
  O  O390  1  0.38739438  0.75727396  0.74074953  1
  O  O391  1  0.87746046  0.25168822  0.24946988  1
  O  O392  1  0.88096412  0.24391833  0.74407318  1
  O  O393  1  0.88774839  0.75491224  0.24341650  1
  O  O394  1  0.88533179  0.74548366  0.74206478  1
  O  O395  1  0.38624940  0.48462790  0.56335875  1
  O  O396  1  0.38274757  0.49530606  0.98339782  1
  O  O397  1  0.37623205  0.99501975  0.49406149  1
  O  O398  1  0.37598117  0.99107834  0.99364931  1
  O  O399  1  0.87601526  0.48778146  0.50010914  1
  O  O400  1  0.88458410  0.48618204  1.00049895  1
  O  O401  1  0.87959255  0.99013322  0.49344140  1
  O  O402  1  0.88558149  0.99108810  1.00080173  1
  O  O403  1  0.11398958  0.01056518  0.00417445  1
  O  O404  1  0.11701039  0.00286363  0.50746805  1
  O  O405  1  0.13082147  0.51314875  0.01242774  1
  O  O406  1  0.11972741  0.49664053  0.50914491  1
  O  O407  1  0.61725676  0.00318347  0.00269106  1
  O  O408  1  0.61840892  0.00754160  0.50442669  1
  O  O409  1  0.62013523  0.51017833  0.01348226  1
  O  O410  1  0.64312791  0.50794777  0.51010525  1
  O  O411  1  0.37519784  0.36603185  0.11908462  1
  O  O412  1  0.35961536  0.35832615  0.64588478  1
  O  O413  1  0.36589534  0.86256668  0.12030135  1
  O  O414  1  0.37502788  0.86698337  0.61645555  1
  O  O415  1  0.87649163  0.38208503  0.12098655  1
  O  O416  1  0.87202673  0.36834015  0.61977194  1
  O  O417  1  0.86605175  0.87386863  0.11146066  1
  O  O418  1  0.86800786  0.87231643  0.61678203  1
  O  O419  1  0.12082918  0.14126841  0.37064595  1
  O  O420  1  0.12383562  0.13474926  0.88919630  1
  O  O421  1  0.12154919  0.63671647  0.36888164  1
  O  O422  1  0.13379597  0.62886909  0.88125098  1
  O  O423  1  0.63734240  0.12420643  0.38164295  1
  O  O424  1  0.61995016  0.11622331  0.88342792  1
  O  O425  1  0.64230133  0.62571337  0.38839177  1
  O  O426  1  0.62114034  0.62322666  0.89293069  1
