# generated using pymatgen
data_V85Zn86O256
_symmetry_space_group_name_H-M   'P 1'
_cell_length_a   16.91902357
_cell_length_b   16.92066793
_cell_length_c   16.91884549
_cell_angle_alpha   90.00007597
_cell_angle_beta   89.96859032
_cell_angle_gamma   89.98302785
_symmetry_Int_Tables_number   1
_chemical_formula_structural   V85Zn86O256
_chemical_formula_sum   'V85 Zn86 O256'
_cell_volume   4843.54610203
_cell_formula_units_Z   1
loop_
 _symmetry_equiv_pos_site_id
 _symmetry_equiv_pos_as_xyz
  1  'x, y, z'
loop_
 _atom_site_type_symbol
 _atom_site_label
 _atom_site_symmetry_multiplicity
 _atom_site_fract_x
 _atom_site_fract_y
 _atom_site_fract_z
 _atom_site_occupancy
  V  V0  1  0.13562138  0.62042739  -0.00694285  1
  V  V1  1  0.25910967  -0.00815406  0.75482189  1
  V  V2  1  0.87716369  0.37634818  0.49908006  1
  V  V3  1  0.00071537  0.50774208  0.00002142  1
  V  V4  1  0.87796803  0.24823103  0.62415411  1
  V  V5  1  0.13851641  0.62523358  0.49989707  1
  V  V6  1  0.00503660  0.87477756  0.37040734  1
  V  V7  1  0.75630897  0.62703865  0.86707683  1
  V  V8  1  0.24758613  -0.01464238  0.24857302  1
  V  V9  1  0.36307796  0.74904584  0.12618855  1
  V  V10  1  0.25541592  0.36772918  0.62510550  1
  V  V11  1  0.24945459  0.50303242  0.75938156  1
  V  V12  1  0.75299737  0.62817488  0.37359490  1
  V  V13  1  0.25184508  0.25300557  0.00746687  1
  V  V14  1  0.74699725  0.74296520  0.00286671  1
  V  V15  1  0.37243933  0.12366046  0.25220628  1
  V  V16  1  0.62704786  0.87524003  0.74917649  1
  V  V17  1  -0.00242741  0.75111589  0.75576860  1
  V  V18  1  0.49281115  0.88428497  0.87893605  1
  V  V19  1  0.12613226  -0.01665837  0.12947879  1
  V  V20  1  0.23934320  0.12639351  0.37934650  1
  V  V21  1  0.62322880  0.50104784  0.62342665  1
  V  V22  1  0.51126710  0.62112092  0.11840892  1
  V  V23  1  0.62970664  -0.00092094  0.62458248  1
  V  V24  1  0.12652291  0.12141891  0.00394417  1
  V  V25  1  0.48867272  0.50326981  0.49635013  1
  V  V26  1  0.00466534  0.12690123  0.12969481  1
  V  V27  1  0.62524651  0.38129584  0.24654787  1
  V  V28  1  0.62299026  0.62637590  0.49937397  1
  V  V29  1  0.49165660  -0.00482594  0.50165819  1
  V  V30  1  -0.00414057  0.62401637  0.62951258  1
  V  V31  1  0.87434699  0.50602567  0.37090978  1
  V  V32  1  0.48770202  0.87201885  0.37709662  1
  V  V33  1  0.37477223  0.36408661  0.50077063  1
  V  V34  1  0.00232762  0.37394066  0.87581352  1
  V  V35  1  0.88486645  0.87347273  -0.00172101  1
  V  V36  1  0.31598474  0.55974443  0.31623442  1
  V  V37  1  0.37099080  0.76392607  0.62441999  1
  V  V38  1  0.12140233  0.87589972  0.75395939  1
  V  V39  1  0.12702144  0.37320238  0.75028327  1
  V  V40  1  0.50133779  0.24904613  0.24914443  1
  V  V41  1  0.62181526  -0.00044438  0.12439912  1
  V  V42  1  0.62248043  0.74644905  0.87985126  1
  V  V43  1  0.25182643  0.77059779  0.50356416  1
  V  V44  1  0.00896102  0.12482558  0.62366425  1
  V  V45  1  0.12625095  0.49790428  0.62470074  1
  V  V46  1  0.00626628  0.00215052  0.50095737  1
  V  V47  1  0.00207914  0.49689473  0.49720425  1
  V  V48  1  0.11623081  0.26389188  0.37044324  1
  V  V49  1  0.51563632  0.50028924  -0.00585711  1
  V  V50  1  0.87849006  0.12130840  0.24959964  1
  V  V51  1  0.62296510  0.75306753  0.37413453  1
  V  V52  1  0.74636168  0.37979557  0.12321625  1
  V  V53  1  0.74892370  0.37531035  0.62730861  1
  V  V54  1  0.36965035  0.62740443  0.75451464  1
  V  V55  1  0.75370149  0.12374350  0.87651358  1
  V  V56  1  0.49294414  0.38097171  0.37022713  1
  V  V57  1  0.88971304  0.26471958  0.14319806  1
  V  V58  1  0.74697215  0.50901467  0.24455227  1
  V  V59  1  0.75501364  0.25031226  0.00313521  1
  V  V60  1  0.13418022  -0.00499975  0.62296568  1
  V  V61  1  0.62350102  0.12499770  0.49976907  1
  V  V62  1  0.62501831  0.12457273  0.00126364  1
  V  V63  1  0.75240867  -0.00455824  0.75002395  1
  V  V64  1  0.87485100  -0.00221537  0.37643629  1
  V  V65  1  0.49785930  0.75002540  0.75007564  1
  V  V66  1  0.49550591  0.74400865  0.24556322  1
  V  V67  1  0.37233237  0.13380225  0.75414872  1
  V  V68  1  0.49469369  0.13383287  0.62542136  1
  V  V69  1  0.61932917  0.25612866  0.87224529  1
  V  V70  1  0.12786218  0.24566016  0.87628091  1
  V  V71  1  0.25258515  0.75597466  -0.00981793  1
  V  V72  1  0.87696957  0.37457827  -0.00548455  1
  V  V73  1  0.87187281  0.87545449  0.50613986  1
  V  V74  1  0.02885842  0.60330463  0.15631681  1
  V  V75  1  0.12870026  0.75018159  0.36730577  1
  V  V76  1  0.87822139  0.12349081  0.75088094  1
  V  V77  1  0.75115845  0.25047622  0.49743303  1
  V  V78  1  0.74959644  0.12548830  0.37343394  1
  V  V79  1  0.75156849  0.87483550  0.12543562  1
  V  V80  1  0.74855633  0.75518710  0.50396868  1
  V  V81  1  0.87897391  0.73575598  0.13277824  1
  V  V82  1  0.37844213  0.38074969  -0.00294381  1
  V  V83  1  0.24028584  0.39056728  0.13503102  1
  V  V84  1  0.87103728  0.74872061  0.62914434  1
  Zn  Zn85  1  0.49740169  0.12456097  0.12618526  1
  Zn  Zn86  1  -0.00573645  0.36942536  0.33800041  1
  Zn  Zn87  1  0.75640114  0.50840614  0.74333344  1
  Zn  Zn88  1  0.12522308  0.74850056  0.87108640  1
  Zn  Zn89  1  0.74595411  -0.00292319  0.25126425  1
  Zn  Zn90  1  0.26000692  0.11581414  0.88522518  1
  Zn  Zn91  1  0.37046304  -0.00407802  0.37851497  1
  Zn  Zn92  1  0.36523589  0.88722050  0.00457569  1
  Zn  Zn93  1  0.88424973  -0.00809771  0.87214759  1
  Zn  Zn94  1  0.24666713  0.24271089  0.50296030  1
  Zn  Zn95  1  0.61772025  0.38374640  0.75481289  1
  Zn  Zn96  1  0.87957792  0.50779000  0.86594111  1
  Zn  Zn97  1  -0.00021241  0.75400896  0.25095151  1
  Zn  Zn98  1  0.38287596  0.49982485  0.87313856  1
  Zn  Zn99  1  0.49130412  0.26133104  0.75001655  1
  Zn  Zn100  1  0.62674949  0.25240332  0.37395798  1
  Zn  Zn101  1  0.00665554  -0.00694070  -0.00515969  1
  Zn  Zn102  1  0.62131875  0.87572253  0.24840793  1
  Zn  Zn103  1  0.49632671  0.62711536  0.62505290  1
  Zn  Zn104  1  0.00232961  0.24860985  0.74987877  1
  Zn  Zn105  1  0.37365095  0.25433849  0.12801095  1
  Zn  Zn106  1  0.48828978  0.00747522  -0.00340240  1
  Zn  Zn107  1  0.18773880  0.18708325  0.19164574  1
  Zn  Zn108  1  0.19031765  0.18389892  0.68890549  1
  Zn  Zn109  1  0.19448860  0.57662798  0.18403626  1
  Zn  Zn110  1  0.18715606  0.68835325  0.68394143  1
  Zn  Zn111  1  0.69077191  0.19058583  0.18802755  1
  Zn  Zn112  1  0.68847391  0.18550874  0.68804060  1
  Zn  Zn113  1  0.68520454  0.68863397  0.18796579  1
  Zn  Zn114  1  0.68529701  0.68979572  0.68663243  1
  Zn  Zn115  1  0.31129879  0.31326973  0.31236611  1
  Zn  Zn116  1  0.31104511  0.31338343  0.81771500  1
  Zn  Zn117  1  0.30955580  0.79742106  0.31219592  1
  Zn  Zn118  1  0.31150643  0.81446850  0.81228344  1
  Zn  Zn119  1  0.82366068  0.31931925  0.30641260  1
  Zn  Zn120  1  0.80967723  0.31120781  0.81001351  1
  Zn  Zn121  1  0.81289650  0.81455739  0.31281680  1
  Zn  Zn122  1  0.81274862  0.81136842  0.81338980  1
  Zn  Zn123  1  0.18900815  0.43461757  0.43199745  1
  Zn  Zn124  1  0.18810711  0.43660205  0.94235365  1
  Zn  Zn125  1  0.18611051  0.93993843  0.43394165  1
  Zn  Zn126  1  0.18451944  0.93538385  0.93469125  1
  Zn  Zn127  1  0.68472808  0.43806127  0.43542456  1
  Zn  Zn128  1  0.68969663  0.43985909  0.93569144  1
  Zn  Zn129  1  0.68492363  0.93660849  0.43835670  1
  Zn  Zn130  1  0.68975699  0.93529673  0.93843920  1
  Zn  Zn131  1  0.31219503  0.06084016  0.06970992  1
  Zn  Zn132  1  0.31382979  0.06278213  0.56597215  1
  Zn  Zn133  1  0.32231679  0.56689683  0.05993304  1
  Zn  Zn134  1  0.31473653  0.56123070  0.57132018  1
  Zn  Zn135  1  0.81487545  0.06094302  0.06472902  1
  Zn  Zn136  1  0.81415914  0.06218051  0.56326158  1
  Zn  Zn137  1  0.80916291  0.55973740  0.05462513  1
  Zn  Zn138  1  0.81260316  0.56540459  0.56018984  1
  Zn  Zn139  1  0.43118446  0.44122278  0.18178405  1
  Zn  Zn140  1  0.43748002  0.43763651  0.68681759  1
  Zn  Zn141  1  0.43484031  0.93253838  0.18628191  1
  Zn  Zn142  1  0.44112194  0.94102792  0.68965672  1
  Zn  Zn143  1  0.93001926  0.44454701  0.18494204  1
  Zn  Zn144  1  0.93748657  0.43725067  0.68998621  1
  Zn  Zn145  1  0.93847746  0.93816949  0.18389509  1
  Zn  Zn146  1  0.94036368  0.93535517  0.68659646  1
  Zn  Zn147  1  0.06525959  0.06141707  0.31073043  1
  Zn  Zn148  1  0.06402086  0.05944770  0.81439665  1
  Zn  Zn149  1  0.06069315  0.56871842  0.32018521  1
  Zn  Zn150  1  0.06296992  0.56371515  0.81293882  1
  Zn  Zn151  1  0.56151334  0.06005998  0.31297926  1
  Zn  Zn152  1  0.56233003  0.06821010  0.81175498  1
  Zn  Zn153  1  0.55811967  0.56454514  0.31001260  1
  Zn  Zn154  1  0.56483629  0.56635638  0.81104475  1
  Zn  Zn155  1  0.43685473  0.18642350  0.43249265  1
  Zn  Zn156  1  0.43722298  0.18776386  0.93885735  1
  Zn  Zn157  1  0.43143323  0.68907613  0.43941728  1
  Zn  Zn158  1  0.43744288  0.68548413  0.93836460  1
  Zn  Zn159  1  0.94146360  0.18618493  0.43666710  1
  Zn  Zn160  1  0.94096334  0.18506877  0.94091614  1
  Zn  Zn161  1  0.94137757  0.68675290  0.44146825  1
  Zn  Zn162  1  0.93780008  0.68848445  0.94264743  1
  Zn  Zn163  1  0.06602493  0.31436698  0.06561381  1
  Zn  Zn164  1  0.06837099  0.30983598  0.55616883  1
  Zn  Zn165  1  0.06579485  0.79898291  0.06589850  1
  Zn  Zn166  1  0.06321323  0.81402336  0.56395016  1
  Zn  Zn167  1  0.56201040  0.31447877  0.06283501  1
  Zn  Zn168  1  0.56266825  0.31439418  0.56065913  1
  Zn  Zn169  1  0.56071692  0.81292493  0.06196833  1
  Zn  Zn170  1  0.55971583  0.81433570  0.56503545  1
  O  O171  1  0.12114073  0.11791511  0.12180348  1
  O  O172  1  0.11483114  0.11626165  0.62961495  1
  O  O173  1  0.12124401  0.63550274  0.10736497  1
  O  O174  1  0.11716212  0.61788854  0.61771573  1
  O  O175  1  0.62756800  0.11889116  0.11748045  1
  O  O176  1  0.61911299  0.11766522  0.62038043  1
  O  O177  1  0.61084372  0.63114198  0.12169861  1
  O  O178  1  0.62346882  0.61915885  0.61680203  1
  O  O179  1  0.38624100  0.37224892  0.38171125  1
  O  O180  1  0.37177902  0.37640146  0.89145317  1
  O  O181  1  0.38505554  0.87178384  0.37374203  1
  O  O182  1  0.39079571  0.87229723  0.87541649  1
  O  O183  1  0.87582480  0.38640933  0.38562288  1
  O  O184  1  0.88094389  0.36823770  0.88374239  1
  O  O185  1  0.88040328  0.87905693  0.38592816  1
  O  O186  1  0.86833832  0.87199706  0.89444518  1
  O  O187  1  0.25032586  0.00828996  0.36696775  1
  O  O188  1  0.24519749  0.00100263  0.85878292  1
  O  O189  1  0.24330538  0.50471151  0.36427166  1
  O  O190  1  0.25056198  0.49400569  0.86186334  1
  O  O191  1  0.75606814  0.00665937  0.37626570  1
  O  O192  1  0.75455972  0.00586155  0.86780816  1
  O  O193  1  0.75507777  0.50741438  0.37037377  1
  O  O194  1  0.74550943  0.51906626  0.87419499  1
  O  O195  1  0.25368882  0.49562387  0.12206835  1
  O  O196  1  0.24347511  0.48841029  0.63326084  1
  O  O197  1  0.24160330  1.00044504  0.14120155  1
  O  O198  1  0.24075089  1.00711911  0.63663037  1
  O  O199  1  0.75555396  0.49561158  0.13452204  1
  O  O200  1  0.74347446  0.49277634  0.62062006  1
  O  O201  1  0.74079631  0.99162574  0.12448739  1
  O  O202  1  0.73770053  1.00532942  0.63168503  1
  O  O203  1  -0.06038136  0.34712033  0.23828643  1
  O  O204  1  0.00955344  0.37056365  0.75700169  1
  O  O205  1  -0.00793323  0.87546909  0.26597383  1
  O  O206  1  0.00799904  0.86391083  0.74468288  1
  O  O207  1  0.50500714  0.37230987  0.25341537  1
  O  O208  1  0.50564503  0.37253920  0.74486696  1
  O  O209  1  0.50083383  0.86310408  0.25816779  1
  O  O210  1  0.50722306  0.87196286  0.76097539  1
  O  O211  1  0.49355783  0.13245977  0.25189005  1
  O  O212  1  0.48908417  0.12754639  0.74365865  1
  O  O213  1  0.50372722  0.63589386  0.23794177  1
  O  O214  1  0.49367126  0.63420494  0.74778251  1
  O  O215  1  0.99120315  0.11920226  0.24319226  1
  O  O216  1  0.99558849  0.12602563  0.74121306  1
  O  O217  1  0.98902727  0.63513730  0.24839838  1
  O  O218  1  1.00565100  0.63101735  0.73624544  1
  O  O219  1  0.36811623  0.25590705  0.00351195  1
  O  O220  1  0.37394144  0.26079228  0.49759852  1
  O  O221  1  0.36383363  0.75131069  0.00077975  1
  O  O222  1  0.35980521  0.74891193  0.50833327  1
  O  O223  1  0.87581095  0.25829196  0.00987720  1
  O  O224  1  0.87140478  0.25495884  0.50452643  1
  O  O225  1  0.86903674  0.75667750  0.01126656  1
  O  O226  1  0.87049800  0.75702782  0.50793561  1
  O  O227  1  0.13114225  0.25325502  0.48019363  1
  O  O228  1  0.13176123  0.24309210  0.99618371  1
  O  O229  1  0.13685143  0.74477543  0.50244799  1
  O  O230  1  0.13656978  0.74230890  0.99456271  1
  O  O231  1  0.63259359  0.24342876  0.49672533  1
  O  O232  1  0.63099709  0.24393885  0.99317582  1
  O  O233  1  0.62845295  0.74766347  0.49509334  1
  O  O234  1  0.63500245  0.75756002  0.99135419  1
  O  O235  1  0.49935164  0.24962547  0.13833439  1
  O  O236  1  0.50741303  0.23656921  0.62596650  1
  O  O237  1  0.49822489  0.74303390  0.12990033  1
  O  O238  1  0.49182025  0.74980290  0.63213604  1
  O  O239  1  1.00132812  0.23571339  0.12114084  1
  O  O240  1  0.99838135  0.24059292  0.62255125  1
  O  O241  1  0.98978853  0.73639459  0.12797542  1
  O  O242  1  0.99280595  0.74191329  0.62883994  1
  O  O243  1  0.01052321  0.25450906  0.37821424  1
  O  O244  1  0.01354355  0.25414507  0.87759864  1
  O  O245  1  0.00684562  0.75972950  0.38040086  1
  O  O246  1  -0.00266781  0.74220890  0.85872551  1
  O  O247  1  0.50257578  0.25853815  0.36420528  1
  O  O248  1  0.51664733  0.24588428  0.87497322  1
  O  O249  1  0.50396729  0.75296484  0.36959654  1
  O  O250  1  0.50707365  0.75791621  0.87136081  1
  O  O251  1  0.25913105  0.12361216  0.48369967  1
  O  O252  1  0.24139614  0.13270266  1.00356317  1
  O  O253  1  0.23966834  0.62336604  0.50857301  1
  O  O254  1  0.24008317  0.63136628  1.00110723  1
  O  O255  1  0.74740337  0.12813819  0.49040406  1
  O  O256  1  0.74604406  0.13072927  0.99818735  1
  O  O257  1  0.74191734  0.63364551  0.49294291  1
  O  O258  1  0.75029325  0.63714206  0.99019582  1
  O  O259  1  0.25609477  0.37030427  0.00928709  1
  O  O260  1  0.25892880  0.37563871  0.50599631  1
  O  O261  1  0.24748193  0.86025023  -0.00262807  1
  O  O262  1  0.24902223  0.86911912  0.50291998  1
  O  O263  1  0.75783052  0.37114398  0.00128567  1
  O  O264  1  0.75513516  0.37144114  0.50748135  1
  O  O265  1  0.75670351  0.86538441  0.01006225  1
  O  O266  1  0.75889467  0.86775876  0.49607507  1
  O  O267  1  0.09356819  0.53363442  0.21748710  1
  O  O268  1  0.13096180  0.49450388  0.74562505  1
  O  O269  1  0.13782064  0.99942132  0.24489533  1
  O  O270  1  0.13400516  0.99447274  0.74304947  1
  O  O271  1  0.63417831  0.49345401  0.25434956  1
  O  O272  1  0.63084211  0.50363661  0.73514572  1
  O  O273  1  0.62596897  0.99680566  0.24017631  1
  O  O274  1  0.63173913  0.99696275  0.74478031  1
  O  O275  1  0.36530978  0.00444951  0.25071579  1
  O  O276  1  0.36288311  0.00615465  0.74624079  1
  O  O277  1  0.37886442  0.50021559  0.26113906  1
  O  O278  1  0.36691234  0.50809031  0.75015056  1
  O  O279  1  0.87036605  0.00640120  0.25448747  1
  O  O280  1  0.86775526  0.00205935  0.74871603  1
  O  O281  1  0.86355915  0.50258774  0.26399149  1
  O  O282  1  0.86847091  0.49425493  0.75508198  1
  O  O283  1  0.11458326  0.36951609  0.36665589  1
  O  O284  1  0.12251194  0.36643379  0.87230414  1
  O  O285  1  0.11469743  0.86529569  0.38425789  1
  O  O286  1  0.12593813  0.87034432  0.85946523  1
  O  O287  1  0.61668261  0.37387844  0.36395445  1
  O  O288  1  0.63463663  0.35954895  0.87336502  1
  O  O289  1  0.61830027  0.86377951  0.37429426  1
  O  O290  1  0.62120464  0.86782639  0.86640030  1
  O  O291  1  0.37526354  0.12981223  0.14056506  1
  O  O292  1  0.38354534  0.12133614  0.63860140  1
  O  O293  1  0.38980622  0.64320287  0.11576395  1
  O  O294  1  0.37661323  0.63466915  0.63654125  1
  O  O295  1  0.88492503  0.12896375  0.13228723  1
  O  O296  1  0.88546614  0.12794394  0.63005691  1
  O  O297  1  0.86724231  0.63733700  0.12132077  1
  O  O298  1  0.88366877  0.63531113  0.61883520  1
  O  O299  1  0.24828195  0.25468507  0.11642353  1
  O  O300  1  0.24183685  0.26255261  0.62202486  1
  O  O301  1  0.26370556  0.74671878  0.11207128  1
  O  O302  1  0.25555992  0.75092991  0.61271739  1
  O  O303  1  0.75992844  0.26055458  0.12165791  1
  O  O304  1  0.75483035  0.25539921  0.61820734  1
  O  O305  1  0.75567590  0.75470914  0.11994389  1
  O  O306  1  0.75904069  0.74624631  0.61780464  1
  O  O307  1  0.24431132  0.23926020  0.37589308  1
  O  O308  1  0.24152203  0.24902101  0.88929200  1
  O  O309  1  0.24188598  0.75338343  0.39262463  1
  O  O310  1  0.25017963  0.74878012  0.88601414  1
  O  O311  1  0.75234681  0.24236431  0.37984795  1
  O  O312  1  0.74483547  0.24205808  0.88260525  1
  O  O313  1  0.74221407  0.74797203  0.37989372  1
  O  O314  1  0.74457750  0.74417883  0.88151631  1
  O  O315  1  0.01450694  0.12334452  0.00847668  1
  O  O316  1  -0.00592605  0.11027726  0.50785336  1
  O  O317  1  0.00963935  0.61849994  0.00188710  1
  O  O318  1  0.00599714  0.61378714  0.50996062  1
  O  O319  1  0.51159710  0.12596210  0.00440775  1
  O  O320  1  0.50342192  0.11888145  0.50549601  1
  O  O321  1  0.50167862  0.61430355  0.00702636  1
  O  O322  1  0.50516135  0.61881872  0.50025780  1
  O  O323  1  0.49387303  0.38061417  0.49191892  1
  O  O324  1  0.49361178  0.39070962  1.00951179  1
  O  O325  1  0.50654842  0.88401089  0.49092002  1
  O  O326  1  0.50330195  0.87812228  0.98476500  1
  O  O327  1  0.99513087  0.38919897  0.50713332  1
  O  O328  1  0.99545733  0.38309317  0.99748281  1
  O  O329  1  0.99304164  0.88459037  0.49483079  1
  O  O330  1  0.98726206  0.86808391  1.00635365  1
  O  O331  1  0.50876668  0.49153181  0.38474148  1
  O  O332  1  0.50523354  0.50490896  0.88911269  1
  O  O333  1  0.49859299  0.98989222  0.38318305  1
  O  O334  1  0.50835046  0.98712341  0.87449617  1
  O  O335  1  0.99174231  0.49491765  0.38007723  1
  O  O336  1  1.00082995  0.49342424  0.88413346  1
  O  O337  1  0.99701285  0.99502557  0.38295463  1
  O  O338  1  0.99679150  1.00273463  0.88185563  1
  O  O339  1  0.00844919  0.00922037  0.12186358  1
  O  O340  1  0.00838936  0.00550326  0.61906000  1
  O  O341  1  -0.01654213  0.51132736  0.11077960  1
  O  O342  1  0.00512451  0.50576268  0.61924399  1
  O  O343  1  0.51193053  0.00028998  0.12343172  1
  O  O344  1  0.51005986  0.00764017  0.62015311  1
  O  O345  1  0.49601807  0.51553410  0.11765049  1
  O  O346  1  0.50852330  0.50290311  0.61464258  1
  O  O347  1  0.25454368  0.37289573  0.23287013  1
  O  O348  1  0.24662526  0.37949765  0.74369143  1
  O  O349  1  0.25506024  0.88742050  0.25934788  1
  O  O350  1  0.24531201  0.88672508  0.74906176  1
  O  O351  1  0.74356875  0.38577561  0.24597408  1
  O  O352  1  0.74359571  0.37314990  0.73508638  1
  O  O353  1  0.74797380  0.87498446  0.23704342  1
  O  O354  1  0.74333040  0.88704440  0.75498068  1
  O  O355  1  0.25605676  0.11811085  0.26119334  1
  O  O356  1  0.26108193  0.11689650  0.75255837  1
  O  O357  1  0.26549462  0.62527763  0.25420099  1
  O  O358  1  0.25501435  0.61485560  0.74343693  1
  O  O359  1  0.75098462  0.11904104  0.26221477  1
  O  O360  1  0.75639669  0.11406214  0.75424403  1
  O  O361  1  0.74359300  0.61724806  0.25745064  1
  O  O362  1  0.74911144  0.63088072  0.76324212  1
  O  O363  1  0.36789254  0.12107651  0.36525279  1
  O  O364  1  0.37679338  0.12599012  0.86051874  1
  O  O365  1  0.37256116  0.61585992  0.37985618  1
  O  O366  1  0.37895226  0.62420779  0.85943706  1
  O  O367  1  0.87020265  0.11712531  0.37063624  1
  O  O368  1  0.86974034  0.12604029  0.86902688  1
  O  O369  1  0.86680651  0.61748802  0.38521895  1
  O  O370  1  0.85997617  0.62960739  0.87826180  1
  O  O371  1  0.14087419  0.37825360  0.12206439  1
  O  O372  1  0.12972581  0.37994426  0.63081855  1
  O  O373  1  0.11559904  0.88423713  0.12405158  1
  O  O374  1  0.12044884  0.88669961  0.63512248  1
  O  O375  1  0.63105827  0.37135383  0.13811222  1
  O  O376  1  0.63348429  0.38439725  0.62058078  1
  O  O377  1  0.63279243  0.88224261  0.12361781  1
  O  O378  1  0.61921802  0.88366148  0.64023292  1
  O  O379  1  0.12712043  0.24081304  0.27156682  1
  O  O380  1  0.12744100  0.25248724  0.76114298  1
  O  O381  1  0.12258244  0.74665304  0.26837756  1
  O  O382  1  0.11716797  0.75718834  0.74675122  1
  O  O383  1  0.61896974  0.25765115  0.25239450  1
  O  O384  1  0.62771709  0.24515952  0.76636852  1
  O  O385  1  0.61654101  0.75259776  0.25846828  1
  O  O386  1  0.62002125  0.75964644  0.75481473  1
  O  O387  1  0.38315632  0.24286981  0.25110826  1
  O  O388  1  0.37189137  0.23845037  0.75149574  1
  O  O389  1  0.38093851  0.75183078  0.23597887  1
  O  O390  1  0.37620095  0.74593253  0.74407491  1
  O  O391  1  0.85688605  0.22485622  0.24864942  1
  O  O392  1  0.87725037  0.24323068  0.74127630  1
  O  O393  1  0.87319120  0.75397904  0.23517665  1
  O  O394  1  0.88085292  0.75850595  0.73699701  1
  O  O395  1  0.38621573  0.49261729  0.50629869  1
  O  O396  1  0.38512121  0.49574239  0.99464395  1
  O  O397  1  0.38800649  1.00112158  0.50095853  1
  O  O398  1  0.37476127  1.00019087  1.00172533  1
  O  O399  1  0.88180119  0.49712408  0.49269629  1
  O  O400  1  0.88130116  0.49350677  0.98788689  1
  O  O401  1  0.88104875  0.99216394  0.49779265  1
  O  O402  1  0.87632210  0.98264748  1.00461706  1
  O  O403  1  0.12954249  0.00559775  0.00994637  1
  O  O404  1  0.11766062  -0.00420473  0.50945503  1
  O  O405  1  0.11866324  0.51228368  -0.00183651  1
  O  O406  1  0.11889595  0.50469329  0.50239871  1
  O  O407  1  0.62640885  0.01034399  0.00541362  1
  O  O408  1  0.61848100  0.00454714  0.50804882  1
  O  O409  1  0.61440220  0.49401184  0.00369883  1
  O  O410  1  0.61885303  0.50560971  0.50685311  1
  O  O411  1  0.36493239  0.37437130  0.11375366  1
  O  O412  1  0.36569878  0.37850257  0.61513661  1
  O  O413  1  0.38578266  0.85486452  0.11696503  1
  O  O414  1  0.38005298  0.86360319  0.63142557  1
  O  O415  1  0.86621115  0.37776243  0.10738804  1
  O  O416  1  0.86854438  0.36859830  0.61862155  1
  O  O417  1  0.86930197  0.86665902  0.11786132  1
  O  O418  1  0.87972970  0.86765483  0.61267550  1
  O  O419  1  0.13723463  0.12378422  0.37727314  1
  O  O420  1  0.13015578  0.13118450  0.88498285  1
  O  O421  1  0.11554839  0.63788746  0.39176783  1
  O  O422  1  0.12252691  0.62836491  0.88854478  1
  O  O423  1  0.63305021  0.12509277  0.38129300  1
  O  O424  1  0.63267185  0.13120415  0.88413641  1
  O  O425  1  0.62807718  0.63707437  0.37973058  1
  O  O426  1  0.63407990  0.64096151  0.87059303  1
