# generated using pymatgen
data_V85Zn86O256
_symmetry_space_group_name_H-M   'P 1'
_cell_length_a   16.95252192
_cell_length_b   16.94900410
_cell_length_c   16.95129207
_cell_angle_alpha   90.03833513
_cell_angle_beta   90.03582334
_cell_angle_gamma   89.93020258
_symmetry_Int_Tables_number   1
_chemical_formula_structural   V85Zn86O256
_chemical_formula_sum   'V85 Zn86 O256'
_cell_volume   4870.58135721
_cell_formula_units_Z   1
loop_
 _symmetry_equiv_pos_site_id
 _symmetry_equiv_pos_as_xyz
  1  'x, y, z'
loop_
 _atom_site_type_symbol
 _atom_site_label
 _atom_site_symmetry_multiplicity
 _atom_site_fract_x
 _atom_site_fract_y
 _atom_site_fract_z
 _atom_site_occupancy
  V  V0  1  0.49787935  0.24716350  0.75750443  1
  V  V1  1  0.50203741  0.87242477  0.37494211  1
  V  V2  1  0.75311093  0.87463669  0.62447378  1
  V  V3  1  0.12365291  0.12965651  -0.00125258  1
  V  V4  1  0.74083884  0.75031602  -0.00699856  1
  V  V5  1  -0.00318030  0.25304427  0.25089609  1
  V  V6  1  0.49514828  0.23853629  0.24456635  1
  V  V7  1  0.87926576  0.74943301  0.62311419  1
  V  V8  1  0.36554679  0.50536093  0.37946000  1
  V  V9  1  0.74687006  0.24564400  -0.00216708  1
  V  V10  1  0.25414736  0.11797783  0.87126331  1
  V  V11  1  0.13174696  0.12657308  0.50222079  1
  V  V12  1  0.75009808  0.00135238  0.25114506  1
  V  V13  1  0.23732499  0.74551664  -0.00535724  1
  V  V14  1  0.74744075  0.49902293  0.73148460  1
  V  V15  1  0.87443983  0.37334744  -0.00034165  1
  V  V16  1  0.25111110  0.25155683  -0.00075888  1
  V  V17  1  -0.00140724  0.12784238  0.12591860  1
  V  V18  1  0.87077324  0.74778212  0.12550611  1
  V  V19  1  0.00494884  0.49285835  0.48135163  1
  V  V20  1  0.38227517  0.62122302  0.75149288  1
  V  V21  1  0.86481066  0.60929390  0.26080116  1
  V  V22  1  0.49528537  0.37556993  0.37624956  1
  V  V23  1  0.37238731  0.87288080  0.50021790  1
  V  V24  1  0.37733978  0.74493862  0.11882371  1
  V  V25  1  0.74625576  0.38986840  0.12865255  1
  V  V26  1  0.13095013  -0.00287562  0.63513484  1
  V  V27  1  0.74684627  0.25217599  0.51600083  1
  V  V28  1  0.01235828  0.74892499  0.75399371  1
  V  V29  1  0.36347450  0.37108093  0.50253773  1
  V  V30  1  0.12388788  0.25119921  0.37855262  1
  V  V31  1  0.00079982  0.37240437  0.85561164  1
  V  V32  1  0.62596418  0.38804619  0.24802650  1
  V  V33  1  0.74074957  0.62670438  0.87292565  1
  V  V34  1  0.62622774  0.37845412  0.73833920  1
  V  V35  1  0.87599625  0.62588683  0.74847765  1
  V  V36  1  -0.00455057  0.13139646  0.63134051  1
  V  V37  1  0.62626973  0.73667408  0.37398616  1
  V  V38  1  0.75076732  0.74420774  0.49378375  1
  V  V39  1  0.62569329  0.12550578  -0.01301168  1
  V  V40  1  0.49813880  0.50193803  0.51426126  1
  V  V41  1  -0.00085343  0.62552150  0.11955732  1
  V  V42  1  0.12572372  0.87821321  0.25035021  1
  V  V43  1  0.62220348  0.61877682  0.51404159  1
  V  V44  1  0.25247360  0.49179699  0.75629903  1
  V  V45  1  0.37549860  0.87200772  -0.00377531  1
  V  V46  1  0.49997750  0.39221437  0.87845748  1
  V  V47  1  0.23696368  0.62400270  0.87564392  1
  V  V48  1  0.74799684  0.87518890  0.12433419  1
  V  V49  1  0.00535542  0.62349658  0.62121033  1
  V  V50  1  0.87416437  0.50072668  0.87056301  1
  V  V51  1  0.87538317  0.00779581  0.87453902  1
  V  V52  1  0.49763264  0.12079018  0.62873380  1
  V  V53  1  0.62530153  -0.00775206  0.62882770  1
  V  V54  1  0.12194926  0.37543826  0.25318421  1
  V  V55  1  0.13558705  0.74682488  0.37291115  1
  V  V56  1  0.25502667  0.87343691  0.63726216  1
  V  V57  1  0.75203331  0.00493184  0.75510572  1
  V  V58  1  0.75055815  0.12712325  0.37536391  1
  V  V59  1  0.25032171  0.37573017  0.12389755  1
  V  V60  1  0.49775048  0.00333578  0.00178285  1
  V  V61  1  0.37584429  0.23879046  0.12882387  1
  V  V62  1  0.00529273  0.87188426  0.87579826  1
  V  V63  1  0.12702545  0.50555882  0.12154154  1
  V  V64  1  0.50083707  0.74463844  0.24752038  1
  V  V65  1  0.00237711  0.87673210  0.37517120  1
  V  V66  1  0.13605080  0.62410855  0.49631067  1
  V  V67  1  0.50889812  0.75057219  0.74895646  1
  V  V68  1  0.24885641  0.87504073  0.12388124  1
  V  V69  1  0.25906090  0.00496735  0.24838598  1
  V  V70  1  0.62390180  0.24965568  0.37494716  1
  V  V71  1  0.87783885  0.87479509  0.49812539  1
  V  V72  1  0.36835967  0.24701915  0.62424199  1
  V  V73  1  0.00294096  0.50048363  -0.00315962  1
  V  V74  1  0.00372027  0.00216598  0.50248618  1
  V  V75  1  -0.00095569  0.00122067  0.00038760  1
  V  V76  1  0.36423972  0.62605061  0.25410804  1
  V  V77  1  -0.00147746  0.74973742  0.24993053  1
  V  V78  1  0.62300061  0.12017616  0.50105735  1
  V  V79  1  0.12239918  0.25488932  0.85978709  1
  V  V80  1  0.50029223  -0.00401984  0.50034190  1
  V  V81  1  0.25595564  0.12791089  0.37409399  1
  V  V82  1  0.62257461  0.01157629  0.12519707  1
  V  V83  1  0.12621306  0.48958108  0.63146431  1
  V  V84  1  0.37995075  0.38541611  -0.00281671  1
  Zn  Zn85  1  0.63455879  0.86612948  0.76348846  1
  Zn  Zn86  1  0.87408667  0.12667812  0.24932832  1
  Zn  Zn87  1  0.87563673  0.87512659  -0.00143486  1
  Zn  Zn88  1  0.38024897  0.00543247  0.36988747  1
  Zn  Zn89  1  0.87313617  0.13741965  0.75368617  1
  Zn  Zn90  1  0.87145657  0.25206949  0.12625211  1
  Zn  Zn91  1  0.87668720  0.27487909  0.63050815  1
  Zn  Zn92  1  0.85118062  0.40449152  0.48525294  1
  Zn  Zn93  1  0.62668769  0.25123489  0.87548179  1
  Zn  Zn94  1  0.37879847  0.74112659  0.62200554  1
  Zn  Zn95  1  0.24398886  0.36604093  0.63249765  1
  Zn  Zn96  1  0.50126452  0.60197011  0.11813137  1
  Zn  Zn97  1  0.12467820  0.00268549  0.12732841  1
  Zn  Zn98  1  0.24492153  0.50438093  0.25577239  1
  Zn  Zn99  1  0.13446899  0.87309850  0.75888646  1
  Zn  Zn100  1  0.37030634  0.11658727  0.74592069  1
  Zn  Zn101  1  0.37472305  -0.00856639  0.86721156  1
  Zn  Zn102  1  0.62545911  0.87222101  0.24938659  1
  Zn  Zn103  1  0.25605898  0.74488982  0.49762236  1
  Zn  Zn104  1  0.87773226  0.00493555  0.37579210  1
  Zn  Zn105  1  0.61345266  0.61324175  0.00398100  1
  Zn  Zn106  1  0.51364113  0.86485963  0.88167549  1
  Zn  Zn107  1  0.18717690  0.18803177  0.18878485  1
  Zn  Zn108  1  0.18645229  0.18370549  0.68861512  1
  Zn  Zn109  1  0.18681993  0.68938021  0.18341661  1
  Zn  Zn110  1  0.19458789  0.68426005  0.68481712  1
  Zn  Zn111  1  0.68545721  0.19674647  0.18487515  1
  Zn  Zn112  1  0.67906681  0.18123911  0.69579127  1
  Zn  Zn113  1  0.68627798  0.67840621  0.18509314  1
  Zn  Zn114  1  0.69101503  0.68677135  0.68452571  1
  Zn  Zn115  1  0.30865406  0.31171644  0.31239430  1
  Zn  Zn116  1  0.31624089  0.30791060  0.81599586  1
  Zn  Zn117  1  0.31538935  0.81594094  0.31056384  1
  Zn  Zn118  1  0.31811966  0.80036900  0.81475322  1
  Zn  Zn119  1  0.81872210  0.42032124  0.32080469  1
  Zn  Zn120  1  0.80989483  0.31272308  0.81003653  1
  Zn  Zn121  1  0.81352114  0.81195135  0.31202178  1
  Zn  Zn122  1  0.81919008  0.81525959  0.81231101  1
  Zn  Zn123  1  0.18411873  0.43545855  0.43932124  1
  Zn  Zn124  1  0.18591561  0.43732720  0.93450245  1
  Zn  Zn125  1  0.19081257  0.94024794  0.43742655  1
  Zn  Zn126  1  0.18524488  0.93859963  0.94076995  1
  Zn  Zn127  1  0.68006789  0.43704571  0.44017521  1
  Zn  Zn128  1  0.69154430  0.43559894  0.92730727  1
  Zn  Zn129  1  0.68765956  0.93371557  0.43654962  1
  Zn  Zn130  1  0.68882207  0.93813053  0.93868972  1
  Zn  Zn131  1  0.31094772  0.06063992  0.05906424  1
  Zn  Zn132  1  0.31268687  0.05729746  0.56149290  1
  Zn  Zn133  1  0.31389444  0.56522573  0.06090759  1
  Zn  Zn134  1  0.31200257  0.55747675  0.56954304  1
  Zn  Zn135  1  0.81290317  0.06455249  0.06166637  1
  Zn  Zn136  1  0.81376771  0.06306891  0.56099173  1
  Zn  Zn137  1  0.81240247  0.56511716  0.05793977  1
  Zn  Zn138  1  0.81423534  0.56366743  0.54839929  1
  Zn  Zn139  1  0.42873544  0.43056180  0.19616890  1
  Zn  Zn140  1  0.43292391  0.43424793  0.69248134  1
  Zn  Zn141  1  0.43872916  0.93375700  0.18391570  1
  Zn  Zn142  1  0.43795462  0.93206301  0.69213499  1
  Zn  Zn143  1  0.93848780  0.43761619  0.18473372  1
  Zn  Zn144  1  0.92984020  0.44063421  0.67363488  1
  Zn  Zn145  1  0.93470235  0.93961574  0.18776897  1
  Zn  Zn146  1  0.94044467  0.93831186  0.68965462  1
  Zn  Zn147  1  0.06627933  0.06466147  0.31365035  1
  Zn  Zn148  1  0.06419217  0.06233466  0.81336975  1
  Zn  Zn149  1  0.06387957  0.56879009  0.30630713  1
  Zn  Zn150  1  0.06400977  0.55971016  0.80953931  1
  Zn  Zn151  1  0.56427042  0.06073055  0.31148703  1
  Zn  Zn152  1  0.55764909  0.05348706  0.81402110  1
  Zn  Zn153  1  0.55219369  0.56208617  0.31508744  1
  Zn  Zn154  1  0.56487077  0.56197560  0.80829577  1
  Zn  Zn155  1  0.43755866  0.18809740  0.44005368  1
  Zn  Zn156  1  0.43899761  0.18977175  0.94510191  1
  Zn  Zn157  1  0.44007666  0.68499396  0.43849427  1
  Zn  Zn158  1  0.43705621  0.67854344  0.92960309  1
  Zn  Zn159  1  0.90451517  0.24304419  0.40774640  1
  Zn  Zn160  1  0.93829476  0.19230055  0.93466591  1
  Zn  Zn161  1  0.94547006  0.68550909  0.43633428  1
  Zn  Zn162  1  0.93404412  0.68825747  0.93687893  1
  Zn  Zn163  1  0.06236805  0.31415782  0.06030817  1
  Zn  Zn164  1  0.06030676  0.31133924  0.55932598  1
  Zn  Zn165  1  0.06093094  0.81424519  0.06334596  1
  Zn  Zn166  1  0.06988742  0.81197788  0.56293250  1
  Zn  Zn167  1  0.56506803  0.44112179  0.06065991  1
  Zn  Zn168  1  0.55396944  0.30831003  0.56245113  1
  Zn  Zn169  1  0.56308823  0.80832654  0.06201328  1
  Zn  Zn170  1  0.56092148  0.80679725  0.56654565  1
  O  O171  1  0.11549538  0.12632486  0.11685546  1
  O  O172  1  0.12127736  0.11699998  0.62017585  1
  O  O173  1  0.11644756  0.61361253  0.12944300  1
  O  O174  1  0.12200767  0.61856829  0.61695007  1
  O  O175  1  0.63006888  0.11350956  0.12137530  1
  O  O176  1  0.61780011  0.10932107  0.62227831  1
  O  O177  1  0.61288840  0.63280133  0.11987597  1
  O  O178  1  0.62468470  0.62562270  0.61218237  1
  O  O179  1  0.37803220  0.37811060  0.38269209  1
  O  O180  1  0.39030377  0.36798523  0.88342782  1
  O  O181  1  0.38777720  0.87457374  0.38127469  1
  O  O182  1  0.37117173  0.87273670  0.88904912  1
  O  O183  1  0.87794176  0.34941690  0.38651620  1
  O  O184  1  0.88095342  0.38167181  0.88168579  1
  O  O185  1  0.88420326  0.87575441  0.38129352  1
  O  O186  1  0.88926223  0.88584778  0.87611381  1
  O  O187  1  0.25347138  0.00776412  0.36591281  1
  O  O188  1  0.25103159  0.01511065  0.88384836  1
  O  O189  1  0.26127191  0.49495481  0.37621994  1
  O  O190  1  0.24527339  0.51058690  0.86933230  1
  O  O191  1  0.74897621  0.00688943  0.36756165  1
  O  O192  1  0.76326844  -0.00680727  0.86661946  1
  O  O193  1  0.77916911  0.47438369  0.41427143  1
  O  O194  1  0.75903303  0.50846006  0.86321430  1
  O  O195  1  0.24142348  0.49527893  0.12485278  1
  O  O196  1  0.24176004  0.49392513  0.63613428  1
  O  O197  1  0.24700396  0.99502380  0.13086218  1
  O  O198  1  0.24218418  0.98757803  0.62048882  1
  O  O199  1  0.75545897  0.48822177  0.12106565  1
  O  O200  1  0.75492369  0.50920862  0.63276117  1
  O  O201  1  0.74594712  0.99419188  0.13194045  1
  O  O202  1  0.74437000  0.99370639  0.62941810  1
  O  O203  1  0.01412298  0.36810804  0.24016351  1
  O  O204  1  -0.00690570  0.38501222  0.75772677  1
  O  O205  1  0.00549746  0.87132368  0.25351601  1
  O  O206  1  0.00347815  0.86538321  0.75726337  1
  O  O207  1  0.50277754  0.36649067  0.26466349  1
  O  O208  1  0.50355590  0.36837189  0.76024320  1
  O  O209  1  0.50061354  0.86395587  0.25799541  1
  O  O210  1  0.50633984  0.86084057  0.75281430  1
  O  O211  1  0.50057551  0.13956648  0.25757034  1
  O  O212  1  0.50361379  0.13117739  0.74442718  1
  O  O213  1  0.48838235  0.63614027  0.25064499  1
  O  O214  1  0.48955585  0.62922857  0.75287856  1
  O  O215  1  1.00284049  0.13111821  0.24102328  1
  O  O216  1  1.00301190  0.12071836  0.73375289  1
  O  O217  1  0.99089489  0.62914154  0.23664101  1
  O  O218  1  0.99708282  0.63077888  0.74259875  1
  O  O219  1  0.37096412  0.25890101  0.01077779  1
  O  O220  1  0.38225078  0.25976100  0.51123477  1
  O  O221  1  0.36620937  0.75485947  0.00617197  1
  O  O222  1  0.37566866  0.75656280  0.50103695  1
  O  O223  1  0.86978974  0.25873051  0.00136572  1
  O  O224  1  0.85045093  0.23607961  0.51223659  1
  O  O225  1  0.87055641  0.75080186  0.01430592  1
  O  O226  1  0.86931253  0.75107350  0.50197275  1
  O  O227  1  0.12162128  0.23885893  0.49174516  1
  O  O228  1  0.12891294  0.24118554  0.99539670  1
  O  O229  1  0.12838547  0.74239056  0.48975732  1
  O  O230  1  0.13883754  0.74995688  1.00990358  1
  O  O231  1  0.62035130  0.23766011  0.49469930  1
  O  O232  1  0.63209598  0.23587843  0.99769009  1
  O  O233  1  0.63003809  0.74014898  0.49529113  1
  O  O234  1  0.63991077  0.74997332  1.00041755  1
  O  O235  1  0.49037201  0.25168742  0.14292200  1
  O  O236  1  0.49040517  0.24226084  0.63697455  1
  O  O237  1  0.48653861  0.75895601  0.13461642  1
  O  O238  1  0.49543356  0.75061047  0.64012260  1
  O  O239  1  1.00119815  0.24317397  0.13040801  1
  O  O240  1  0.99766363  0.23386401  0.61726775  1
  O  O241  1  0.99306827  0.74322740  0.12817965  1
  O  O242  1  1.00085493  0.74023629  0.62855962  1
  O  O243  1  0.01527683  0.23968386  0.36365665  1
  O  O244  1  0.00904001  0.26116278  0.87630387  1
  O  O245  1  0.01111840  0.75744314  0.36852566  1
  O  O246  1  -0.00558935  0.75782905  0.86603575  1
  O  O247  1  0.50545292  0.25499904  0.37147088  1
  O  O248  1  0.49998847  0.24895880  0.86431215  1
  O  O249  1  0.50660049  0.75403721  0.36781827  1
  O  O250  1  0.49048384  0.75047497  0.85479027  1
  O  O251  1  0.23803150  0.11696867  0.49338462  1
  O  O252  1  0.24051689  0.13095578  0.99397303  1
  O  O253  1  0.24004417  0.62347375  0.50348183  1
  O  O254  1  0.25528296  0.63070139  0.98508452  1
  O  O255  1  0.73960227  0.12323949  0.49316451  1
  O  O256  1  0.74197632  0.13385727  1.00463413  1
  O  O257  1  0.73609767  0.63305269  0.49934132  1
  O  O258  1  0.75391835  0.63456454  0.98838691  1
  O  O259  1  0.25465142  0.36964860  0.00475155  1
  O  O260  1  0.26095615  0.37675204  0.50520311  1
  O  O261  1  0.25369911  0.86841040  0.00535210  1
  O  O262  1  0.26417608  0.87513721  0.50174775  1
  O  O263  1  0.76007261  0.37242296  0.00734942  1
  O  O264  1  0.73062913  0.35139332  0.50913740  1
  O  O265  1  0.75584084  0.86896036  0.00881528  1
  O  O266  1  0.75742985  0.86807636  0.50495801  1
  O  O267  1  0.12573079  0.49357121  0.24084759  1
  O  O268  1  0.13623855  0.50331324  0.74063684  1
  O  O269  1  0.13472602  0.99278275  0.24965288  1
  O  O270  1  0.12434142  0.99610589  0.73862022  1
  O  O271  1  0.62066885  0.48654950  0.26408250  1
  O  O272  1  0.63128582  0.48831799  0.74887820  1
  O  O273  1  0.63359574  0.99647110  0.24331740  1
  O  O274  1  0.63295466  0.99433222  0.74337045  1
  O  O275  1  0.36361269  -0.00629861  0.24983530  1
  O  O276  1  0.38472858  0.00548549  0.75582628  1
  O  O277  1  0.36900475  0.50835721  0.26127723  1
  O  O278  1  0.36672971  0.51058022  0.74812376  1
  O  O279  1  0.86287287  0.00480731  0.25397317  1
  O  O280  1  0.86912564  0.00069729  0.75736928  1
  O  O281  1  0.87438498  0.50367278  0.25355815  1
  O  O282  1  0.86821937  0.50687547  0.75107102  1
  O  O283  1  0.13135181  0.36525209  0.36457290  1
  O  O284  1  0.11274685  0.36626558  0.87991817  1
  O  O285  1  0.12135311  0.87097449  0.36871929  1
  O  O286  1  0.11196296  0.88031687  0.87488061  1
  O  O287  1  0.61503247  0.36556214  0.37212945  1
  O  O288  1  0.61065534  0.37282230  0.86581298  1
  O  O289  1  0.61352886  0.86438492  0.37667332  1
  O  O290  1  0.62738290  0.87193822  0.87605204  1
  O  O291  1  0.36612339  0.13963125  0.12148991  1
  O  O292  1  0.38061428  0.12891234  0.62288848  1
  O  O293  1  0.37630051  0.63246530  0.13376028  1
  O  O294  1  0.36390470  0.62543353  0.64446016  1
  O  O295  1  0.88706932  0.12836282  0.12654455  1
  O  O296  1  0.89273814  0.11473338  0.62704678  1
  O  O297  1  0.88015744  0.63021349  0.13275041  1
  O  O298  1  0.88647217  0.63134850  0.62637564  1
  O  O299  1  0.25243337  0.25793647  0.12049396  1
  O  O300  1  0.26305644  0.24777785  0.63179081  1
  O  O301  1  0.26058488  0.75324297  0.11910522  1
  O  O302  1  0.25182325  0.76044838  0.61787804  1
  O  O303  1  0.75128064  0.26125026  0.11420248  1
  O  O304  1  0.73738987  0.23709434  0.61587959  1
  O  O305  1  0.75577087  0.75680436  0.12021607  1
  O  O306  1  0.75674778  0.75478474  0.61329463  1
  O  O307  1  0.23628566  0.24064166  0.36779430  1
  O  O308  1  0.24219210  0.24357869  0.88200298  1
  O  O309  1  0.23893928  0.75733600  0.37476978  1
  O  O310  1  0.24772275  0.73778839  0.88192797  1
  O  O311  1  0.73104252  0.24015082  0.38870164  1
  O  O312  1  0.74659632  0.26123964  0.89268432  1
  O  O313  1  0.74120377  0.75766576  0.38630560  1
  O  O314  1  0.76424746  0.74074874  0.88295154  1
  O  O315  1  0.00614000  0.12408764  0.00609260  1
  O  O316  1  0.01302896  0.10967679  0.51161377  1
  O  O317  1  -0.00741470  0.61729128  0.01128810  1
  O  O318  1  0.01589826  0.62285742  0.50616032  1
  O  O319  1  0.50956822  0.11509398  -0.00047843  1
  O  O320  1  0.50433913  0.11568000  0.50651485  1
  O  O321  1  0.49905240  0.63583470  0.00741724  1
  O  O322  1  0.51157839  0.61696670  0.49872483  1
  O  O323  1  0.49300413  0.38044076  0.49092085  1
  O  O324  1  0.49542618  0.37485910  0.98547317  1
  O  O325  1  0.49304461  0.87525064  0.49440438  1
  O  O326  1  0.49038213  0.87740809  1.00096310  1
  O  O327  1  1.01221475  0.39315227  0.49569906  1
  O  O328  1  0.98796962  0.38236662  0.99905442  1
  O  O329  1  0.99959762  0.88329868  0.49699445  1
  O  O330  1  0.99811176  0.88144586  0.99464784  1
  O  O331  1  0.48558298  0.49130667  0.38267702  1
  O  O332  1  0.49683599  0.49012939  0.86899206  1
  O  O333  1  0.50112180  0.98999491  0.37900498  1
  O  O334  1  0.49749352  0.99227836  0.89095843  1
  O  O335  1  1.01138580  0.50282695  0.38251024  1
  O  O336  1  0.99650114  0.49460930  0.88086026  1
  O  O337  1  1.00101488  0.99619936  0.38367618  1
  O  O338  1  0.99636980  0.99492857  0.88113225  1
  O  O339  1  0.00053403  0.00879427  0.11936942  1
  O  O340  1  0.01121329  0.00124176  0.61922079  1
  O  O341  1  0.00544156  0.50672791  0.11733891  1
  O  O342  1  0.01131654  0.51344621  0.62575295  1
  O  O343  1  0.51060520  -0.00777058  0.11485597  1
  O  O344  1  0.50916480  -0.00162095  0.62041069  1
  O  O345  1  0.49575137  0.48967545  0.13263946  1
  O  O346  1  0.49212798  0.49373306  0.61288776  1
  O  O347  1  0.23923963  0.37696847  0.24049892  1
  O  O348  1  0.25903470  0.38739396  0.75426123  1
  O  O349  1  0.24536386  0.88139677  0.24354100  1
  O  O350  1  0.25324437  0.86729293  0.74116382  1
  O  O351  1  0.74246326  0.37586557  0.23733880  1
  O  O352  1  0.73403470  0.38382294  0.75178222  1
  O  O353  1  0.74816998  0.88346044  0.24453976  1
  O  O354  1  0.75335839  0.88091789  0.73973747  1
  O  O355  1  0.24318806  0.11562178  0.25944598  1
  O  O356  1  0.24967247  0.12644233  0.76795749  1
  O  O357  1  0.26022829  0.62625480  0.24749588  1
  O  O358  1  0.25365962  0.61802366  0.76015614  1
  O  O359  1  0.74701269  0.12046063  0.25713482  1
  O  O360  1  0.75179089  0.10837710  0.74687185  1
  O  O361  1  0.76726265  0.62882791  0.24941296  1
  O  O362  1  0.75616309  0.62084030  0.75381158  1
  O  O363  1  0.36032896  0.12532855  0.38279905  1
  O  O364  1  0.35870674  0.12800748  0.88205217  1
  O  O365  1  0.37776831  0.61689593  0.36834276  1
  O  O366  1  0.36185780  0.62766717  0.85740464  1
  O  O367  1  0.85885786  0.13241453  0.37314784  1
  O  O368  1  0.88509769  0.11257594  0.87118425  1
  O  O369  1  0.88340253  0.63190763  0.35641810  1
  O  O370  1  0.87219932  0.61795257  0.86621006  1
  O  O371  1  0.13388930  0.38320424  0.12742765  1
  O  O372  1  0.12539054  0.38541598  0.62149764  1
  O  O373  1  0.13043544  0.87709650  0.13356161  1
  O  O374  1  0.13651234  0.88142665  0.62710366  1
  O  O375  1  0.63828973  0.37680850  0.13335025  1
  O  O376  1  0.61190817  0.37081848  0.64074760  1
  O  O377  1  0.63743662  0.88109868  0.12485890  1
  O  O378  1  0.63264339  0.88258137  0.62373835  1
  O  O379  1  0.11821437  0.25765942  0.25370698  1
  O  O380  1  0.12801017  0.25072148  0.76043797  1
  O  O381  1  0.11933875  0.75584734  0.25428450  1
  O  O382  1  0.11452321  0.74967751  0.74412065  1
  O  O383  1  0.61365624  0.25725857  0.25746190  1
  O  O384  1  0.61766938  0.25959973  0.75427007  1
  O  O385  1  0.61782642  0.75029768  0.25762353  1
  O  O386  1  0.61382400  0.74642693  0.74423491  1
  O  O387  1  0.38561905  0.25557181  0.24532059  1
  O  O388  1  0.38240646  0.24192742  0.74447814  1
  O  O389  1  0.38004437  0.74445929  0.24390228  1
  O  O390  1  0.38260975  0.73763904  0.74401846  1
  O  O391  1  0.89301740  0.24755713  0.24649086  1
  O  O392  1  0.86541935  0.24881429  0.73952421  1
  O  O393  1  0.88053297  0.74851516  0.23899764  1
  O  O394  1  0.88548036  0.74487242  0.74071091  1
  O  O395  1  0.37888705  0.49379590  0.49690789  1
  O  O396  1  0.36991342  0.48419038  1.00410338  1
  O  O397  1  0.38404019  0.99003209  0.49577419  1
  O  O398  1  0.38241394  0.99075274  1.00089986  1
  O  O399  1  0.90513867  0.51488199  0.50173598  1
  O  O400  1  0.88405805  0.49423526  0.99303603  1
  O  O401  1  0.88559984  0.99424381  0.49724169  1
  O  O402  1  0.88131389  0.99968048  0.99302669  1
  O  O403  1  0.11806949  0.01427110  0.00214861  1
  O  O404  1  0.12079381  0.00343421  0.50806122  1
  O  O405  1  0.11087296  0.49410359  0.00713065  1
  O  O406  1  0.12063626  0.50752435  0.50643921  1
  O  O407  1  0.62096659  0.00709320  0.00777586  1
  O  O408  1  0.62053216  0.00061583  0.50719665  1
  O  O409  1  0.63096309  0.50025711  -0.00678163  1
  O  O410  1  0.61366565  0.51206718  0.49675617  1
  O  O411  1  0.36096161  0.36739457  0.12222004  1
  O  O412  1  0.37363195  0.36435671  0.61934532  1
  O  O413  1  0.36771622  0.86706265  0.11559172  1
  O  O414  1  0.36901543  0.87329550  0.61633891  1
  O  O415  1  0.86596223  0.37431835  0.11770687  1
  O  O416  1  0.87579362  0.38209643  0.59785293  1
  O  O417  1  0.86396093  0.86832721  0.12598197  1
  O  O418  1  0.87405587  0.86899112  0.61749175  1
  O  O419  1  0.13372471  0.12915178  0.38432289  1
  O  O420  1  0.13153535  0.13200877  0.88088787  1
  O  O421  1  0.12322328  0.63567206  0.38065078  1
  O  O422  1  0.13716882  0.62414020  0.87210494  1
  O  O423  1  0.63060822  0.12853589  0.37970392  1
  O  O424  1  0.62453406  0.12200303  0.88414391  1
  O  O425  1  0.61927737  0.63454113  0.38013384  1
  O  O426  1  0.63885303  0.62393266  0.87288850  1
