# generated using pymatgen
data_V85Zn86O256
_symmetry_space_group_name_H-M   'P 1'
_cell_length_a   16.99650580
_cell_length_b   16.97445979
_cell_length_c   16.97928501
_cell_angle_alpha   90.02141875
_cell_angle_beta   90.01776381
_cell_angle_gamma   89.97763941
_symmetry_Int_Tables_number   1
_chemical_formula_structural   V85Zn86O256
_chemical_formula_sum   'V85 Zn86 O256'
_cell_volume   4898.63321524
_cell_formula_units_Z   1
loop_
 _symmetry_equiv_pos_site_id
 _symmetry_equiv_pos_as_xyz
  1  'x, y, z'
loop_
 _atom_site_type_symbol
 _atom_site_label
 _atom_site_symmetry_multiplicity
 _atom_site_fract_x
 _atom_site_fract_y
 _atom_site_fract_z
 _atom_site_occupancy
  V  V0  1  0.12889500  0.12260268  0.50052923  1
  V  V1  1  0.73373026  0.38347977  0.12961909  1
  V  V2  1  0.37114619  0.74666260  0.10880299  1
  V  V3  1  -0.00655805  0.24951724  0.25268465  1
  V  V4  1  0.24772561  0.49736790  0.24823887  1
  V  V5  1  0.50447609  -0.00767488  0.00185065  1
  V  V6  1  0.00422224  0.75422979  0.75409341  1
  V  V7  1  0.37001205  0.37497719  0.50651993  1
  V  V8  1  0.23559434  0.88533661  0.62914351  1
  V  V9  1  0.00573467  0.12742630  0.62684928  1
  V  V10  1  0.49418125  0.13248237  0.63238897  1
  V  V11  1  0.25011544  0.25225238  0.50773641  1
  V  V12  1  0.24972777  0.48627785  0.75789483  1
  V  V13  1  0.12987263  0.24796613  0.36710453  1
  V  V14  1  0.61878510  0.24792791  0.86693847  1
  V  V15  1  0.62498324  0.61394712  0.00088856  1
  V  V16  1  0.49694433  0.00311487  0.49541093  1
  V  V17  1  0.13457159  0.48264755  0.62665325  1
  V  V18  1  0.74928538  0.50251860  0.75105650  1
  V  V19  1  0.62653447  0.62299523  0.50190543  1
  V  V20  1  0.25059025  0.75013232  0.50228735  1
  V  V21  1  0.12333990  0.50260750  0.12107204  1
  V  V22  1  0.00310949  0.49915008  0.50075844  1
  V  V23  1  0.49544566  0.49631355  -0.01195982  1
  V  V24  1  0.50168857  0.61742324  0.12148789  1
  V  V25  1  0.32635112  0.92549317  -0.05118980  1
  V  V26  1  0.61924951  0.49802361  0.63066405  1
  V  V27  1  0.00251544  0.75069567  0.24786234  1
  V  V28  1  0.75056839  0.62366367  0.87330858  1
  V  V29  1  0.03175574  0.14194408  0.11329666  1
  V  V30  1  0.37253528  0.62520577  0.24680522  1
  V  V31  1  0.50546866  0.75168550  0.74542770  1
  V  V32  1  0.13513506  0.75740675  0.87693463  1
  V  V33  1  0.37601431  0.24986867  0.11732126  1
  V  V34  1  0.62240774  0.26557962  0.37222674  1
  V  V35  1  0.24945552  0.62117846  0.37457657  1
  V  V36  1  0.36437245  0.62326585  0.76066559  1
  V  V37  1  -0.01335127  0.87607242  0.87746275  1
  V  V38  1  0.37478097  0.12214050  0.25262960  1
  V  V39  1  0.87616715  0.37849305  0.49866270  1
  V  V40  1  0.87662582  0.75094086  0.12409841  1
  V  V41  1  0.36701515  0.12443435  0.76491790  1
  V  V42  1  0.74815728  0.12944553  0.37554826  1
  V  V43  1  0.37656128  0.48893861  0.37097657  1
  V  V44  1  0.76282107  0.11479621  0.86779032  1
  V  V45  1  0.50272636  0.26185168  0.25192290  1
  V  V46  1  0.87757762  0.00104642  0.37432446  1
  V  V47  1  0.12328231  0.37232544  0.24520944  1
  V  V48  1  0.62299614  0.13088845  0.50068503  1
  V  V49  1  0.00063952  0.49868342  -0.00761819  1
  V  V50  1  0.87563589  0.49787192  0.37242901  1
  V  V51  1  0.37614354  0.75347772  0.62472554  1
  V  V52  1  0.74520570  -0.00534036  0.25395373  1
  V  V53  1  0.26342450  0.87467865  0.13403983  1
  V  V54  1  0.13047802  0.88035179  0.24809997  1
  V  V55  1  0.25493712  0.11645171  0.37049404  1
  V  V56  1  0.62748035  0.74989659  0.87529620  1
  V  V57  1  -0.00444954  0.00215142  0.00265857  1
  V  V58  1  0.62641188  -0.00464038  0.13112303  1
  V  V59  1  0.88299362  0.62861276  0.75390716  1
  V  V60  1  0.00693019  0.00286230  0.50232130  1
  V  V61  1  0.87210892  0.12422024  0.24497551  1
  V  V62  1  0.75340564  0.63265723  0.38172660  1
  V  V63  1  0.87928988  0.87353999  0.50781321  1
  V  V64  1  0.49768001  0.62338084  0.62499928  1
  V  V65  1  0.37644289  0.87634761  0.49515582  1
  V  V66  1  0.12695064  0.74777245  0.37322308  1
  V  V67  1  0.87480148  0.24919125  0.62544839  1
  V  V68  1  0.49891465  0.49154424  0.49551430  1
  V  V69  1  0.12689344  0.62422505  0.50530012  1
  V  V70  1  0.50138925  0.87883630  0.87624950  1
  V  V71  1  0.24970395  0.36964552  0.11825510  1
  V  V72  1  0.00392181  0.26735172  0.75519642  1
  V  V73  1  0.13817109  0.62647491  -0.00929132  1
  V  V74  1  0.74767440  0.74737989  0.00202945  1
  V  V75  1  0.74096592  0.86926204  0.13457288  1
  V  V76  1  0.87824726  0.48858924  0.87332036  1
  V  V77  1  0.87609143  0.62148621  0.24955851  1
  V  V78  1  0.86686995  0.25254693  0.12011010  1
  V  V79  1  0.62843211  0.12290801  -0.00313172  1
  V  V80  1  0.63306624  -0.00134660  0.62902322  1
  V  V81  1  0.37300690  0.37350647  -0.01144849  1
  V  V82  1  0.75053628  0.37738883  0.62739072  1
  V  V83  1  0.50655124  0.12474474  0.12734076  1
  V  V84  1  0.00451045  0.87766135  0.37263004  1
  Zn  Zn85  1  0.24696346  0.00313129  0.75506282  1
  Zn  Zn86  1  0.00314402  0.62848951  0.12093697  1
  Zn  Zn87  1  0.38164668  -0.01178926  0.36465091  1
  Zn  Zn88  1  0.72887797  0.77478189  0.50114756  1
  Zn  Zn89  1  0.87488863  0.10733948  0.74620219  1
  Zn  Zn90  1  0.74942195  0.25333132  0.49827325  1
  Zn  Zn91  1  0.13676241  0.24167148  0.87865122  1
  Zn  Zn92  1  0.00592275  0.62474883  0.62941762  1
  Zn  Zn93  1  0.62929270  0.88734373  0.74946679  1
  Zn  Zn94  1  0.72311538  0.50489970  0.24614939  1
  Zn  Zn95  1  0.74802509  0.25286066  -0.00273018  1
  Zn  Zn96  1  0.00104252  0.37380961  0.37363592  1
  Zn  Zn97  1  0.86856350  0.87550175  -0.00280221  1
  Zn  Zn98  1  0.49420515  0.76288756  0.24394239  1
  Zn  Zn99  1  0.61637581  0.36696258  0.74763075  1
  Zn  Zn100  1  0.58359457  0.81545071  0.34352141  1
  Zn  Zn101  1  0.56371157  0.44108553  0.30853165  1
  Zn  Zn102  1  0.37539383  0.25549410  0.63226302  1
  Zn  Zn103  1  0.49307357  0.36852951  0.86421372  1
  Zn  Zn104  1  0.13292048  -0.00530898  0.11752753  1
  Zn  Zn105  1  0.88102192  0.75601650  0.62566588  1
  Zn  Zn106  1  0.87210882  0.37601747  0.00245317  1
  Zn  Zn107  1  0.19557751  0.17730811  0.08857423  1
  Zn  Zn108  1  0.18597203  0.18988759  0.69384881  1
  Zn  Zn109  1  0.18968675  0.69006680  0.18155468  1
  Zn  Zn110  1  0.18781340  0.69148559  0.69009357  1
  Zn  Zn111  1  0.68717215  0.18956748  0.18952812  1
  Zn  Zn112  1  0.69060224  0.18405911  0.68774142  1
  Zn  Zn113  1  0.68640170  0.68516062  0.18984801  1
  Zn  Zn114  1  0.72914363  0.74808149  0.71219443  1
  Zn  Zn115  1  0.31140471  0.30798553  0.30821039  1
  Zn  Zn116  1  0.31110132  0.30442051  0.80720612  1
  Zn  Zn117  1  0.31538614  0.80628198  0.31152955  1
  Zn  Zn118  1  0.31254399  0.81191775  0.80492392  1
  Zn  Zn119  1  0.80430760  0.31803911  0.30715134  1
  Zn  Zn120  1  0.81007210  0.30352200  0.81265366  1
  Zn  Zn121  1  0.81593686  0.81177590  0.31607230  1
  Zn  Zn122  1  0.80827217  0.92746491  0.79541078  1
  Zn  Zn123  1  0.18772730  0.43424679  0.43626611  1
  Zn  Zn124  1  0.18373268  0.42481050  0.93081641  1
  Zn  Zn125  1  0.19208237  0.93744597  0.43647736  1
  Zn  Zn126  1  0.14820662  0.97084311  0.90044350  1
  Zn  Zn127  1  0.69465469  0.44615545  0.44107807  1
  Zn  Zn128  1  0.68988962  0.43293086  0.93867004  1
  Zn  Zn129  1  0.69073218  0.94590984  0.44404544  1
  Zn  Zn130  1  0.68894154  0.93496530  0.93969913  1
  Zn  Zn131  1  0.32286563  0.05260355  0.07986848  1
  Zn  Zn132  1  0.31255108  0.06170208  0.56318772  1
  Zn  Zn133  1  0.31278942  0.55624135  0.05750947  1
  Zn  Zn134  1  0.31227743  0.56200335  0.56585151  1
  Zn  Zn135  1  0.81249228  0.05929408  0.06102009  1
  Zn  Zn136  1  0.81499321  0.06240728  0.56079781  1
  Zn  Zn137  1  0.81217260  0.56020607  0.06327194  1
  Zn  Zn138  1  0.78754498  0.60686998  0.59326607  1
  Zn  Zn139  1  0.43704901  0.43955592  0.17842476  1
  Zn  Zn140  1  0.43242110  0.43685026  0.69188144  1
  Zn  Zn141  1  0.45112028  0.93088003  0.19859141  1
  Zn  Zn142  1  0.43774062  0.94349114  0.68561270  1
  Zn  Zn143  1  0.93825858  0.43542745  0.18195170  1
  Zn  Zn144  1  0.93774753  0.44449624  0.68284298  1
  Zn  Zn145  1  0.93874116  0.93953485  0.18090507  1
  Zn  Zn146  1  0.95753590  0.93929152  0.68799068  1
  Zn  Zn147  1  0.06374614  0.06610389  0.30560750  1
  Zn  Zn148  1  0.06119823  0.07662067  0.81168356  1
  Zn  Zn149  1  0.06053674  0.56196275  0.31140111  1
  Zn  Zn150  1  0.06863652  0.55973712  0.81327749  1
  Zn  Zn151  1  0.56259290  0.06770934  0.31368448  1
  Zn  Zn152  1  0.55832048  0.06635284  0.81328011  1
  Zn  Zn153  1  0.57034213  0.62926301  0.30563490  1
  Zn  Zn154  1  0.55968136  0.56235565  0.81018644  1
  Zn  Zn155  1  0.43996685  0.19269293  0.43666239  1
  Zn  Zn156  1  0.30811325  0.17515760  0.93822760  1
  Zn  Zn157  1  0.43739250  0.68352840  0.43726627  1
  Zn  Zn158  1  0.44055288  0.68810128  0.93361257  1
  Zn  Zn159  1  0.93633725  0.18819096  0.43760211  1
  Zn  Zn160  1  0.96308994  0.17635463  0.92465259  1
  Zn  Zn161  1  0.94285004  0.68685348  0.43621451  1
  Zn  Zn162  1  0.94042778  0.68402093  0.93777726  1
  Zn  Zn163  1  0.07349178  0.32222887  0.03157088  1
  Zn  Zn164  1  0.06217562  0.30893512  0.55970589  1
  Zn  Zn165  1  0.06746340  0.81549691  0.05714851  1
  Zn  Zn166  1  0.06054026  0.81005590  0.56285771  1
  Zn  Zn167  1  0.56092177  0.30893074  0.05521619  1
  Zn  Zn168  1  0.56050090  0.31394741  0.56214989  1
  Zn  Zn169  1  0.56090349  0.80558351  0.06444745  1
  Zn  Zn170  1  0.57269378  0.82588038  0.53864653  1
  O  O171  1  0.12306907  0.10781139  0.15304917  1
  O  O172  1  0.11660047  0.13516143  0.61208818  1
  O  O173  1  0.12621181  0.61863375  0.11430737  1
  O  O174  1  0.12886966  0.62384268  0.61272446  1
  O  O175  1  0.62404288  0.11912752  0.11893224  1
  O  O176  1  0.61535241  0.12406065  0.61894967  1
  O  O177  1  0.61350096  0.62954025  0.11175215  1
  O  O178  1  0.61661782  0.60512664  0.62157107  1
  O  O179  1  0.36633677  0.38534605  0.37944059  1
  O  O180  1  0.37485721  0.36506293  0.88655897  1
  O  O181  1  0.36416108  0.87399334  0.38960665  1
  O  O182  1  0.38355865  0.86542662  0.88211184  1
  O  O183  1  0.87507972  0.38092092  0.37902234  1
  O  O184  1  0.86190351  0.38719426  0.87766928  1
  O  O185  1  0.88659131  0.88261152  0.38130182  1
  O  O186  1  0.88406666  0.87087945  0.87709836  1
  O  O187  1  0.25715112  0.01346333  0.37687247  1
  O  O188  1  0.26626434  -0.02093224  0.88908251  1
  O  O189  1  0.25302590  0.50364840  0.36736317  1
  O  O190  1  0.23773712  0.49397636  0.85737569  1
  O  O191  1  0.75659803  0.00687792  0.37203694  1
  O  O192  1  0.74771367  0.00900893  0.87378508  1
  O  O193  1  0.76631323  0.50527824  0.36966507  1
  O  O194  1  0.75484936  0.50585032  0.86918909  1
  O  O195  1  0.23962627  0.49370173  0.12939758  1
  O  O196  1  0.23807203  0.50290213  0.63013382  1
  O  O197  1  0.25229728  0.97879606  0.13244576  1
  O  O198  1  0.24670564  0.98764310  0.62042628  1
  O  O199  1  0.75097491  0.48907545  0.12853335  1
  O  O200  1  0.74073821  0.49724270  0.63300315  1
  O  O201  1  0.74564838  0.98719140  0.13339977  1
  O  O202  1  0.73157012  1.01109948  0.61923761  1
  O  O203  1  0.00466501  0.36563265  0.25012287  1
  O  O204  1  -0.00028409  0.36481589  0.73511833  1
  O  O205  1  0.00631306  0.86844439  0.25368823  1
  O  O206  1  0.00234085  0.86195996  0.76152716  1
  O  O207  1  0.49818563  0.36763511  0.24614305  1
  O  O208  1  0.50374469  0.38030226  0.75270091  1
  O  O209  1  0.50865590  0.87274975  0.27225723  1
  O  O210  1  0.50162476  0.86813834  0.75696085  1
  O  O211  1  0.49499747  0.13708716  0.24605056  1
  O  O212  1  0.48993249  0.12002961  0.73593194  1
  O  O213  1  0.47867469  0.61418204  0.23406898  1
  O  O214  1  0.48993123  0.63038905  0.74293721  1
  O  O215  1  0.99029370  0.13089800  0.24044451  1
  O  O216  1  0.99256601  0.13460841  0.73488207  1
  O  O217  1  0.99460911  0.63379660  0.24740750  1
  O  O218  1  0.99799424  0.63123248  0.75469318  1
  O  O219  1  0.37753619  0.25467935  0.01377976  1
  O  O220  1  0.36622218  0.25967467  0.49664312  1
  O  O221  1  0.37821455  0.74449164  0.00972922  1
  O  O222  1  0.37209028  0.75437400  0.50625493  1
  O  O223  1  0.87349662  0.24892338  0.01636500  1
  O  O224  1  0.87576568  0.26244189  0.50595198  1
  O  O225  1  0.86760989  0.74656527  0.01019977  1
  O  O226  1  0.89350158  0.76923512  0.49925049  1
  O  O227  1  0.13006159  0.24227018  0.48632397  1
  O  O228  1  0.09296411  0.21357944  1.05561036  1
  O  O229  1  0.12877235  0.74135405  0.49354866  1
  O  O230  1  0.12101126  0.73489450  0.99080475  1
  O  O231  1  0.62433873  0.24438641  0.49239165  1
  O  O232  1  0.62823189  0.23686458  0.99275252  1
  O  O233  1  0.62297583  0.72358733  0.52398141  1
  O  O234  1  0.62605082  0.73851954  0.99218508  1
  O  O235  1  0.49581598  0.24518321  0.13081808  1
  O  O236  1  0.49934718  0.23579617  0.61952502  1
  O  O237  1  0.48934051  0.73590235  0.12465741  1
  O  O238  1  0.49330117  0.74744285  0.63213831  1
  O  O239  1  0.98084944  0.24191282  0.14262677  1
  O  O240  1  0.99327948  0.24441568  0.62635102  1
  O  O241  1  0.99238722  0.75074786  0.12900055  1
  O  O242  1  1.00287167  0.74558405  0.63768083  1
  O  O243  1  0.00535408  0.24751357  0.36538983  1
  O  O244  1  -0.03022775  0.26465883  0.84977679  1
  O  O245  1  0.00931250  0.75546548  0.36764021  1
  O  O246  1  0.00313853  0.75516013  0.87066458  1
  O  O247  1  0.51000361  0.25119420  0.36518428  1
  O  O248  1  0.52117153  0.24782407  0.87735599  1
  O  O249  1  0.50591614  0.72127081  0.36028946  1
  O  O250  1  0.50873108  0.75784785  0.86892530  1
  O  O251  1  0.24499450  0.13067418  0.49119858  1
  O  O252  1  0.25813314  0.11827125  1.01836379  1
  O  O253  1  0.24516409  0.62982467  0.49551020  1
  O  O254  1  0.23629538  0.61837279  0.99862415  1
  O  O255  1  0.74222016  0.12960158  0.49332035  1
  O  O256  1  0.74004547  0.11958190  0.99245576  1
  O  O257  1  0.73970984  0.60658941  0.49267954  1
  O  O258  1  0.74187437  0.62746888  0.99608324  1
  O  O259  1  0.25995450  0.38457556  0.01270225  1
  O  O260  1  0.25768869  0.36414692  0.49303564  1
  O  O261  1  0.26677542  0.87723385  0.01333017  1
  O  O262  1  0.25514385  0.86921009  0.50980713  1
  O  O263  1  0.75425116  0.37330406  0.01368275  1
  O  O264  1  0.75862734  0.37775770  0.51089931  1
  O  O265  1  0.75003428  0.86391423  0.01133958  1
  O  O266  1  0.77703700  0.88259254  0.50206882  1
  O  O267  1  0.12731568  0.49474112  0.24090287  1
  O  O268  1  0.13683640  0.50302402  0.73576464  1
  O  O269  1  0.12171377  0.98100182  0.25510443  1
  O  O270  1  0.13836071  1.00176615  0.79038029  1
  O  O271  1  0.61386583  0.52750964  0.26155758  1
  O  O272  1  0.63166841  0.49810282  0.74429687  1
  O  O273  1  0.63586680  1.00736012  0.24625696  1
  O  O274  1  0.61759956  1.00440822  0.73324415  1
  O  O275  1  0.38741478  0.01730344  0.25070842  1
  O  O276  1  0.36977590  0.01697455  0.74072419  1
  O  O277  1  0.36722047  0.50064522  0.25395583  1
  O  O278  1  0.35984506  0.51441634  0.74151372  1
  O  O279  1  0.86806609  0.00720251  0.25296894  1
  O  O280  1  0.87950123  -0.00505099  0.74371412  1
  O  O281  1  0.88483914  0.51221863  0.25527697  1
  O  O282  1  0.86990402  0.50394615  0.75759228  1
  O  O283  1  0.12386716  0.36584674  0.36607095  1
  O  O284  1  0.11134792  0.34294560  0.92657122  1
  O  O285  1  0.12405212  0.86757917  0.36955883  1
  O  O286  1  0.10970293  0.85709724  0.88906599  1
  O  O287  1  0.62843883  0.36996551  0.37899787  1
  O  O288  1  0.63205708  0.35645645  0.87479083  1
  O  O289  1  0.63747236  0.84840523  0.43605380  1
  O  O290  1  0.61699519  0.86532758  0.87520081  1
  O  O291  1  0.38673294  0.13216030  0.13720112  1
  O  O292  1  0.38893469  0.12891725  0.61724436  1
  O  O293  1  0.37489502  0.62862743  0.12740177  1
  O  O294  1  0.37896680  0.63740431  0.62747217  1
  O  O295  1  0.85717465  0.13447474  0.13979911  1
  O  O296  1  0.88476249  0.13481779  0.61813657  1
  O  O297  1  0.87506700  0.63425674  0.13349554  1
  O  O298  1  0.88729248  0.61333951  0.64496760  1
  O  O299  1  0.26213421  0.26115235  0.13263110  1
  O  O300  1  0.25023263  0.24423958  0.60991258  1
  O  O301  1  0.25994336  0.75985017  0.12413570  1
  O  O302  1  0.25756108  0.75737402  0.62025928  1
  O  O303  1  0.75268151  0.26124076  0.12693213  1
  O  O304  1  0.75633208  0.25885506  0.62063307  1
  O  O305  1  0.75553752  0.75243928  0.12363618  1
  O  O306  1  0.76876117  0.72744275  0.60686696  1
  O  O307  1  0.24322172  0.24020773  0.37753755  1
  O  O308  1  0.24868265  0.24414999  0.87535916  1
  O  O309  1  0.24537806  0.74070782  0.38196504  1
  O  O310  1  0.23394365  0.76098916  0.87179498  1
  O  O311  1  0.74067518  0.24802829  0.37575141  1
  O  O312  1  0.74576048  0.23322578  0.87956472  1
  O  O313  1  0.76430681  0.73589532  0.38926591  1
  O  O314  1  0.73514916  0.74112544  0.88396896  1
  O  O315  1  -0.02094409  0.11143872  0.02075470  1
  O  O316  1  0.00867572  0.12178769  0.50290222  1
  O  O317  1  0.00808985  0.61341073  0.00245444  1
  O  O318  1  0.01089392  0.61747882  0.50110015  1
  O  O319  1  0.51666428  0.10648818  0.00874714  1
  O  O320  1  0.50678870  0.12401177  0.50634355  1
  O  O321  1  0.50519942  0.61700919  0.00119908  1
  O  O322  1  0.50352898  0.60988523  0.50650911  1
  O  O323  1  0.49059472  0.38507305  0.50145476  1
  O  O324  1  0.49143052  0.38064677  0.99636322  1
  O  O325  1  0.48580389  0.88880482  0.50393092  1
  O  O326  1  0.50844356  0.88353507  0.99482117  1
  O  O327  1  0.99410988  0.37974459  0.49605973  1
  O  O328  1  0.98662714  0.39674966  1.01655916  1
  O  O329  1  1.00330143  0.88682164  0.49223033  1
  O  O330  1  0.99214565  0.87979402  0.99731747  1
  O  O331  1  0.48764629  0.49787027  0.38308837  1
  O  O332  1  0.50240782  0.49667730  0.88486169  1
  O  O333  1  0.49915354  1.01083333  0.39068586  1
  O  O334  1  0.50779543  0.98610306  0.88272513  1
  O  O335  1  0.99138269  0.49822536  0.38079923  1
  O  O336  1  0.99199128  0.50053236  0.88000156  1
  O  O337  1  0.99654082  1.00018916  0.38181649  1
  O  O338  1  0.99846325  0.98950009  0.89266272  1
  O  O339  1  0.00768229  0.00608755  0.11918331  1
  O  O340  1  0.00604988  0.01191041  0.60997791  1
  O  O341  1  0.01352851  0.50460976  0.12280454  1
  O  O342  1  0.01758418  0.50213941  0.61880936  1
  O  O343  1  0.50878088  0.00027085  0.12152873  1
  O  O344  1  0.50590413  0.01385243  0.61327589  1
  O  O345  1  0.49493830  0.51140491  0.10922616  1
  O  O346  1  0.50333027  0.50147384  0.61841480  1
  O  O347  1  0.24300855  0.37861711  0.24021745  1
  O  O348  1  0.26099274  0.38847858  0.74489095  1
  O  O349  1  0.24414580  0.86613802  0.24302163  1
  O  O350  1  0.25685720  0.87919848  0.73140210  1
  O  O351  1  0.74425292  0.38470713  0.23695413  1
  O  O352  1  0.75003402  0.37929065  0.73700476  1
  O  O353  1  0.75211860  0.87951157  0.24715582  1
  O  O354  1  0.73715304  0.85326899  0.75209097  1
  O  O355  1  0.27265675  0.13139957  0.25686606  1
  O  O356  1  0.26196793  0.12151266  0.74510105  1
  O  O357  1  0.25597586  0.61772854  0.25112358  1
  O  O358  1  0.26206570  0.62383916  0.74719070  1
  O  O359  1  0.75500170  0.11918556  0.25852584  1
  O  O360  1  0.75679490  0.12592650  0.76327032  1
  O  O361  1  0.76214408  0.62366432  0.26156417  1
  O  O362  1  0.76204998  0.62732897  0.75804306  1
  O  O363  1  0.37228650  0.12796450  0.36584847  1
  O  O364  1  0.38037759  0.12256536  0.86286841  1
  O  O365  1  0.36646027  0.61162946  0.36536123  1
  O  O366  1  0.37731747  0.62898955  0.85843853  1
  O  O367  1  0.87011730  0.12102148  0.36635310  1
  O  O368  1  0.86388824  0.12395332  0.87561995  1
  O  O369  1  0.87413470  0.61728470  0.37089525  1
  O  O370  1  0.87152500  0.61677959  0.86790004  1
  O  O371  1  0.13245665  0.38155885  0.12447301  1
  O  O372  1  0.12941422  0.38485412  0.61580795  1
  O  O373  1  0.13912109  0.87044984  0.13245412  1
  O  O374  1  0.13760391  0.87145441  0.62172450  1
  O  O375  1  0.63557199  0.37225859  0.11916030  1
  O  O376  1  0.63289336  0.38279925  0.62314425  1
  O  O377  1  0.63592087  0.87276210  0.12519296  1
  O  O378  1  0.62016116  0.89548593  0.62082203  1
  O  O379  1  0.11289694  0.25357645  0.25956403  1
  O  O380  1  0.10826510  0.24886068  0.75501610  1
  O  O381  1  0.12094421  0.75430080  0.25431586  1
  O  O382  1  0.11757583  0.74132432  0.76730721  1
  O  O383  1  0.61568216  0.24723882  0.26103152  1
  O  O384  1  0.63076416  0.24755976  0.76206653  1
  O  O385  1  0.61384141  0.73386331  0.25803992  1
  O  O386  1  0.61283188  0.74397840  0.75760808  1
  O  O387  1  0.38565601  0.24475962  0.24338292  1
  O  O388  1  0.37437607  0.23125504  0.74425444  1
  O  O389  1  0.37364815  0.73644623  0.24086383  1
  O  O390  1  0.38344208  0.74215586  0.74301806  1
  O  O391  1  0.87677503  0.24288061  0.25062094  1
  O  O392  1  0.87627354  0.25148898  0.73075554  1
  O  O393  1  0.88149081  0.73999197  0.24645054  1
  O  O394  1  0.88933820  0.73838386  0.74721935  1
  O  O395  1  0.37778129  0.49430085  0.49216526  1
  O  O396  1  0.38327937  0.48715707  1.00045738  1
  O  O397  1  0.38083277  0.99275451  0.49747596  1
  O  O398  1  0.38813311  0.99173789  1.00380000  1
  O  O399  1  0.88250607  0.48737681  0.49088278  1
  O  O400  1  0.88197574  0.50527232  0.98880018  1
  O  O401  1  0.88776718  0.99457621  0.49502435  1
  O  O402  1  0.88738377  0.98863056  1.01560726  1
  O  O403  1  0.10362361  -0.00407173  0.00359383  1
  O  O404  1  0.12143530  0.01515550  0.48923858  1
  O  O405  1  0.12017860  0.50858121  0.00330667  1
  O  O406  1  0.12592342  0.50526046  0.50781112  1
  O  O407  1  0.62295521  0.00132770  0.01012573  1
  O  O408  1  0.61801500  0.01617170  0.50638741  1
  O  O409  1  0.61915672  0.50945450  -0.00666027  1
  O  O410  1  0.61486226  0.50058089  0.50711791  1
  O  O411  1  0.36814760  0.36738933  0.11892139  1
  O  O412  1  0.37537015  0.37413653  0.61014507  1
  O  O413  1  0.37028727  0.86246650  0.13785187  1
  O  O414  1  0.37233762  0.86513543  0.61670787  1
  O  O415  1  0.86400253  0.36544427  0.12964521  1
  O  O416  1  0.86901910  0.37343354  0.61577852  1
  O  O417  1  0.86460001  0.85994498  0.13163989  1
  O  O418  1  0.89327555  0.87665798  0.60958948  1
  O  O419  1  0.13514314  0.13087906  0.37454706  1
  O  O420  1  0.07142850  0.15024516  0.89435162  1
  O  O421  1  0.13034909  0.62531850  0.38452551  1
  O  O422  1  0.12332849  0.63360980  0.88608618  1
  O  O423  1  0.62981727  0.13503640  0.38449181  1
  O  O424  1  0.63140100  0.12904042  0.88009610  1
  O  O425  1  0.64318946  0.61771519  0.39240645  1
  O  O426  1  0.62708907  0.63084359  0.88048924  1
