# generated using pymatgen
data_V85Zn86O256
_symmetry_space_group_name_H-M   'P 1'
_cell_length_a   16.92832229
_cell_length_b   16.92685741
_cell_length_c   16.92620019
_cell_angle_alpha   90.02296340
_cell_angle_beta   90.04481728
_cell_angle_gamma   89.89924042
_symmetry_Int_Tables_number   1
_chemical_formula_structural   V85Zn86O256
_chemical_formula_sum   'V85 Zn86 O256'
_cell_volume   4850.07984774
_cell_formula_units_Z   1
loop_
 _symmetry_equiv_pos_site_id
 _symmetry_equiv_pos_as_xyz
  1  'x, y, z'
loop_
 _atom_site_type_symbol
 _atom_site_label
 _atom_site_symmetry_multiplicity
 _atom_site_fract_x
 _atom_site_fract_y
 _atom_site_fract_z
 _atom_site_occupancy
  V  V0  1  0.86667695  0.38011671  -0.00106876  1
  V  V1  1  0.25329326  0.62153502  0.37302169  1
  V  V2  1  0.74869802  0.25495887  0.49958826  1
  V  V3  1  0.62156989  0.13138127  0.49441689  1
  V  V4  1  0.37495811  0.87809496  0.49518071  1
  V  V5  1  0.12746476  0.88430620  0.25033003  1
  V  V6  1  0.50781601  0.49392853  0.50431481  1
  V  V7  1  0.37631885  0.74945322  0.12744295  1
  V  V8  1  0.74994036  0.87108889  0.11522649  1
  V  V9  1  0.25546553  0.88547039  0.13301293  1
  V  V10  1  0.36238775  0.25297367  0.12099683  1
  V  V11  1  -0.00267101  0.50701226  0.50075342  1
  V  V12  1  0.37916672  0.49192877  0.37614345  1
  V  V13  1  0.62637266  0.86907461  0.74804540  1
  V  V14  1  0.49610526  0.00127659  0.49407968  1
  V  V15  1  0.88073102  0.74799449  0.62494136  1
  V  V16  1  0.36256236  0.50703335  0.87499020  1
  V  V17  1  0.74614775  0.75084598  0.49179202  1
  V  V18  1  0.26037069  0.00272729  0.75091929  1
  V  V19  1  0.25195751  0.74750673  0.49953753  1
  V  V20  1  0.00161163  0.74854265  0.24734481  1
  V  V21  1  0.74316725  0.25164768  0.00258959  1
  V  V22  1  -0.00090392  0.87463973  0.37421746  1
  V  V23  1  0.25604064  0.37634360  0.63349128  1
  V  V24  1  0.50459933  0.86779568  0.37603966  1
  V  V25  1  0.74448702  0.49892477  0.73783525  1
  V  V26  1  0.00443315  0.62398691  0.12252224  1
  V  V27  1  0.49868912  0.88425894  0.87986777  1
  V  V28  1  0.13102105  0.62326139  -0.00597640  1
  V  V29  1  -0.00221303  0.24947534  0.74876780  1
  V  V30  1  0.38244842  0.62225633  0.25041002  1
  V  V31  1  0.63245278  0.74737565  0.89371519  1
  V  V32  1  0.12310217  0.24210499  0.88737104  1
  V  V33  1  0.87302113  0.12628175  0.24742079  1
  V  V34  1  0.49936051  0.25080901  0.26480583  1
  V  V35  1  0.74214654  0.13060602  0.37022631  1
  V  V36  1  0.12552201  0.25269389  0.37779515  1
  V  V37  1  0.36445158  0.62370159  0.75152503  1
  V  V38  1  0.87960318  0.61845485  0.74853681  1
  V  V39  1  -0.00314172  0.00165422  0.50239807  1
  V  V40  1  0.76114328  0.61539659  0.37185132  1
  V  V41  1  0.00376920  0.12603173  0.11876377  1
  V  V42  1  0.87311136  0.38000953  0.50560495  1
  V  V43  1  0.75254994  0.62078295  0.88330821  1
  V  V44  1  0.25141497  0.25143202  0.50686241  1
  V  V45  1  0.12517822  0.62402587  0.50374922  1
  V  V46  1  0.37725050  0.37158247  0.50197592  1
  V  V47  1  0.61559044  -0.00417826  0.12145260  1
  V  V48  1  0.62803851  0.86706696  0.25470379  1
  V  V49  1  0.87287485  0.00190321  0.37388809  1
  V  V50  1  0.36795986  0.14187251  0.75041928  1
  V  V51  1  -0.00203917  0.50005255  -0.00381793  1
  V  V52  1  0.25129855  0.12448974  0.89104433  1
  V  V53  1  0.49675546  0.12812154  0.12609755  1
  V  V54  1  0.86630165  0.12654662  0.74892626  1
  V  V55  1  0.01428918  0.00193649  -0.00289196  1
  V  V56  1  -0.00492340  0.37790109  0.87435733  1
  V  V57  1  0.49995736  0.38361238  0.87496074  1
  V  V58  1  0.13439036  0.37642761  0.24491869  1
  V  V59  1  0.25209086  0.87491537  0.62680327  1
  V  V60  1  0.12851654  0.37783872  0.75274851  1
  V  V61  1  0.13115089  0.74868472  0.87341382  1
  V  V62  1  0.12680934  0.74782518  0.37390226  1
  V  V63  1  0.49036944  0.13198061  0.62637065  1
  V  V64  1  -0.00192968  0.25279728  0.25029631  1
  V  V65  1  0.51003562  0.62112381  0.11894389  1
  V  V66  1  0.61682305  0.12002861  -0.00145583  1
  V  V67  1  0.87301520  0.00035751  0.87720788  1
  V  V68  1  -0.00395537  0.38255524  0.37514328  1
  V  V69  1  0.12607071  0.87822887  0.75390424  1
  V  V70  1  0.12578315  0.50390918  0.62920917  1
  V  V71  1  0.51294310  0.62158002  0.62920822  1
  V  V72  1  0.37969243  0.74814696  0.62523334  1
  V  V73  1  0.25331607  0.11117474  0.37242416  1
  V  V74  1  0.62492347  0.00414571  0.62637673  1
  V  V75  1  0.87265117  0.87559782  0.50046869  1
  V  V76  1  0.86930050  0.25476063  0.12338641  1
  V  V77  1  0.75752798  0.48622986  0.23842696  1
  V  V78  1  0.62391493  0.62518223  0.48931230  1
  V  V79  1  0.74897475  -0.00075064  0.24643678  1
  V  V80  1  0.12313697  0.12676490  0.50312354  1
  V  V81  1  0.00127006  0.87443069  0.87417454  1
  V  V82  1  0.87447022  0.74873599  0.11656147  1
  V  V83  1  0.61825317  0.25137867  0.87222949  1
  V  V84  1  0.25337166  0.74975866  0.00049544  1
  Zn  Zn85  1  0.88179466  0.61843772  0.25306916  1
  Zn  Zn86  1  0.49159391  0.25845138  0.74762295  1
  Zn  Zn87  1  0.12669508  0.00667475  0.12783957  1
  Zn  Zn88  1  0.50845042  0.50643466  -0.00578548  1
  Zn  Zn89  1  0.63690530  0.48484293  0.11512103  1
  Zn  Zn90  1  0.37083115  0.11081105  0.25159779  1
  Zn  Zn91  1  0.62282989  0.38704880  0.73543108  1
  Zn  Zn92  1  0.00238799  0.74618251  0.74577115  1
  Zn  Zn93  1  0.36385013  0.38125221  0.01109563  1
  Zn  Zn94  1  0.87427249  0.25362498  0.62579288  1
  Zn  Zn95  1  0.50640541  0.74417393  0.25575676  1
  Zn  Zn96  1  0.12387509  0.00007235  0.62680585  1
  Zn  Zn97  1  -0.00176190  0.12539290  0.62692406  1
  Zn  Zn98  1  0.74557233  0.12479983  0.87499836  1
  Zn  Zn99  1  0.62424167  0.36274011  0.25299395  1
  Zn  Zn100  1  0.74869691  0.87444215  0.62375194  1
  Zn  Zn101  1  0.26097206  0.49130750  0.23635771  1
  Zn  Zn102  1  0.38811629  0.88531262  0.00354415  1
  Zn  Zn103  1  0.87495760  0.87262466  -0.00379675  1
  Zn  Zn104  1  0.13535868  0.49375565  0.11838307  1
  Zn  Zn105  1  0.74810092  0.00044922  0.75062673  1
  Zn  Zn106  1  0.50325903  0.74788275  0.75458598  1
  Zn  Zn107  1  0.18535807  0.18896705  0.19003104  1
  Zn  Zn108  1  0.18447622  0.19137832  0.68946302  1
  Zn  Zn109  1  0.19126769  0.68393466  0.18624301  1
  Zn  Zn110  1  0.18736096  0.68894470  0.68557263  1
  Zn  Zn111  1  0.68028578  0.19162877  0.18483435  1
  Zn  Zn112  1  0.67012763  0.21812275  0.67009210  1
  Zn  Zn113  1  0.69087882  0.68590058  0.18958702  1
  Zn  Zn114  1  0.69437898  0.68591064  0.68402028  1
  Zn  Zn115  1  0.31812699  0.30202538  0.31446934  1
  Zn  Zn116  1  0.29882365  0.32499455  0.84609879  1
  Zn  Zn117  1  0.31636884  0.81522889  0.31228761  1
  Zn  Zn118  1  0.31530455  0.81078367  0.81287740  1
  Zn  Zn119  1  0.81528017  0.31393272  0.31849848  1
  Zn  Zn120  1  0.80858104  0.31448764  0.81579420  1
  Zn  Zn121  1  0.81294401  0.80845594  0.31006946  1
  Zn  Zn122  1  0.81024354  0.81148395  0.81028571  1
  Zn  Zn123  1  0.18937105  0.43808984  0.43699597  1
  Zn  Zn124  1  0.18959877  0.43630083  0.93923982  1
  Zn  Zn125  1  0.18296124  0.93499754  0.44159100  1
  Zn  Zn126  1  0.22224721  0.95382773  0.95566772  1
  Zn  Zn127  1  0.68676087  0.43370090  0.43278062  1
  Zn  Zn128  1  0.68454679  0.44203757  0.93315140  1
  Zn  Zn129  1  0.68575897  0.94225580  0.43719869  1
  Zn  Zn130  1  0.68530198  0.93780507  0.93546452  1
  Zn  Zn131  1  0.32127095  0.05777239  0.06542202  1
  Zn  Zn132  1  0.31102327  0.06175395  0.56461743  1
  Zn  Zn133  1  0.31418079  0.56265017  0.06173026  1
  Zn  Zn134  1  0.31362260  0.55889479  0.56672598  1
  Zn  Zn135  1  0.81015698  0.06312585  0.05937482  1
  Zn  Zn136  1  0.80899148  0.06865683  0.56374632  1
  Zn  Zn137  1  0.81675694  0.56453747  0.06271899  1
  Zn  Zn138  1  0.81407716  0.56486498  0.56323093  1
  Zn  Zn139  1  0.44414315  0.43316046  0.18663867  1
  Zn  Zn140  1  0.43721010  0.44101332  0.69177158  1
  Zn  Zn141  1  0.43672544  0.94006739  0.19740289  1
  Zn  Zn142  1  0.44129811  0.93873940  0.68833781  1
  Zn  Zn143  1  0.93893963  0.43912619  0.18386361  1
  Zn  Zn144  1  0.93848251  0.44152693  0.68479567  1
  Zn  Zn145  1  0.93784524  0.93729022  0.18422061  1
  Zn  Zn146  1  0.93581030  0.93642285  0.68840993  1
  Zn  Zn147  1  0.06107868  0.06707251  0.31539863  1
  Zn  Zn148  1  0.06283316  0.06272896  0.81130270  1
  Zn  Zn149  1  0.06590276  0.55989158  0.31285487  1
  Zn  Zn150  1  0.06302821  0.56215680  0.81406275  1
  Zn  Zn151  1  0.55850334  0.05829963  0.30948320  1
  Zn  Zn152  1  0.55857097  0.06464079  0.80940683  1
  Zn  Zn153  1  0.58170455  0.52210621  0.32607619  1
  Zn  Zn154  1  0.56717083  0.56614480  0.81347644  1
  Zn  Zn155  1  0.42956370  0.18611587  0.44140990  1
  Zn  Zn156  1  0.43495937  0.18890629  0.93883739  1
  Zn  Zn157  1  0.43977586  0.68496718  0.43817743  1
  Zn  Zn158  1  0.44014635  0.69311478  0.93613148  1
  Zn  Zn159  1  0.93489404  0.19066433  0.43581461  1
  Zn  Zn160  1  0.93547063  0.18708147  0.93690351  1
  Zn  Zn161  1  0.93819160  0.68811400  0.43915498  1
  Zn  Zn162  1  0.93912404  0.68658650  0.93230424  1
  Zn  Zn163  1  0.05855597  0.31360370  0.06374640  1
  Zn  Zn164  1  0.06178011  0.31736879  0.56576289  1
  Zn  Zn165  1  0.06624048  0.81562322  0.06116828  1
  Zn  Zn166  1  0.06299641  0.81310649  0.56385930  1
  Zn  Zn167  1  0.55548694  0.31712043  0.06361888  1
  Zn  Zn168  1  0.56288025  0.31302041  0.56214170  1
  Zn  Zn169  1  0.56071974  0.80938312  0.06461671  1
  Zn  Zn170  1  0.56472155  0.80996355  0.56243358  1
  O  O171  1  0.10848465  0.12526233  0.13339614  1
  O  O172  1  0.12064336  0.12496984  0.61404200  1
  O  O173  1  0.12061406  0.62602997  0.11097975  1
  O  O174  1  0.13023913  0.61717793  0.61743635  1
  O  O175  1  0.61653622  0.11604071  0.11959557  1
  O  O176  1  0.61523556  0.12133592  0.61608697  1
  O  O177  1  0.60986597  0.63283164  0.12797662  1
  O  O178  1  0.61680046  0.62965942  0.61432731  1
  O  O179  1  0.36781403  0.38143512  0.38752902  1
  O  O180  1  0.38562575  0.40043241  0.85551859  1
  O  O181  1  0.38236435  0.87124870  0.38929150  1
  O  O182  1  0.39676840  0.86434259  0.87333509  1
  O  O183  1  0.88991161  0.37252596  0.38476750  1
  O  O184  1  0.88802917  0.36699962  0.88439714  1
  O  O185  1  0.88017298  0.88104906  0.37919999  1
  O  O186  1  0.88071852  0.88163970  0.87391784  1
  O  O187  1  0.24169349  0.01333537  0.38456713  1
  O  O188  1  0.23240301  0.02096981  0.86166335  1
  O  O189  1  0.26214817  0.50686743  0.37526817  1
  O  O190  1  0.26413548  0.50899151  0.87352663  1
  O  O191  1  0.75492165  0.00932842  0.36757285  1
  O  O192  1  0.75847060  0.00280506  0.87278355  1
  O  O193  1  0.75473787  0.51249283  0.36514829  1
  O  O194  1  0.74757348  0.51763333  0.86540223  1
  O  O195  1  0.24904970  0.49710405  0.12328532  1
  O  O196  1  0.23687697  0.49000494  0.62168519  1
  O  O197  1  0.24353489  0.98795290  0.12640754  1
  O  O198  1  0.24613364  0.99170284  0.63249082  1
  O  O199  1  0.75808291  0.49785961  0.13403698  1
  O  O200  1  0.75270670  0.50402578  0.63824225  1
  O  O201  1  0.74347537  0.99282095  0.12965716  1
  O  O202  1  0.73490884  1.00136834  0.62334505  1
  O  O203  1  0.00560311  0.37229010  0.25759288  1
  O  O204  1  0.00252108  0.37028696  0.75706787  1
  O  O205  1  0.00645645  0.86814170  0.25445105  1
  O  O206  1  0.00917038  0.87315525  0.75504477  1
  O  O207  1  0.48994131  0.35294595  0.25473238  1
  O  O208  1  0.50533892  0.37542698  0.75653435  1
  O  O209  1  0.50956402  0.87284252  0.25955850  1
  O  O210  1  0.50998049  0.87249160  0.75783961  1
  O  O211  1  0.49671082  0.12673080  0.24160584  1
  O  O212  1  0.48479593  0.12449514  0.74321510  1
  O  O213  1  0.48979967  0.62481412  0.24320982  1
  O  O214  1  0.49715689  0.62759519  0.74010175  1
  O  O215  1  0.99133460  0.13258060  0.24558617  1
  O  O216  1  0.99044755  0.13353631  0.75047972  1
  O  O217  1  1.00357417  0.63121196  0.24404253  1
  O  O218  1  0.98441098  0.62722037  0.75799717  1
  O  O219  1  0.37683732  0.24739947  0.01861846  1
  O  O220  1  0.36626130  0.26207708  0.50153198  1
  O  O221  1  0.36825583  0.75486665  0.00700567  1
  O  O222  1  0.37128771  0.75499827  0.50618091  1
  O  O223  1  0.86469471  0.25406212  0.00517652  1
  O  O224  1  0.86855738  0.26016122  0.49850638  1
  O  O225  1  0.88501780  0.75257030  0.01267386  1
  O  O226  1  0.87058443  0.75637803  0.50458596  1
  O  O227  1  0.12781473  0.24482999  0.49802612  1
  O  O228  1  0.11768654  0.25357879  0.98568726  1
  O  O229  1  0.13057571  0.74450899  0.49537503  1
  O  O230  1  0.12916649  0.74234936  0.99256778  1
  O  O231  1  0.63000460  0.23794023  0.49461065  1
  O  O232  1  0.62688361  0.24474792  0.99347450  1
  O  O233  1  0.63498673  0.74033131  0.50133356  1
  O  O234  1  0.63179231  0.75244090  0.99192976  1
  O  O235  1  0.49387488  0.23631793  0.13166247  1
  O  O236  1  0.49597076  0.23496808  0.62600426  1
  O  O237  1  0.49023284  0.74348684  0.12906258  1
  O  O238  1  0.49315506  0.74058020  0.62378772  1
  O  O239  1  0.99056756  0.24364345  0.12915355  1
  O  O240  1  0.99836158  0.25110750  0.63822498  1
  O  O241  1  0.99827230  0.74638186  0.13122711  1
  O  O242  1  0.98633567  0.75373135  0.62423671  1
  O  O243  1  0.00601135  0.25704117  0.36916994  1
  O  O244  1  0.00648365  0.25377025  0.86759111  1
  O  O245  1  0.00559611  0.75396139  0.36750936  1
  O  O246  1  0.01330114  0.75755065  0.87396601  1
  O  O247  1  0.49318833  0.23830244  0.36361719  1
  O  O248  1  0.50194735  0.25996373  0.87397278  1
  O  O249  1  0.49921364  0.76294892  0.37695121  1
  O  O250  1  0.51936526  0.75310412  0.87389102  1
  O  O251  1  0.24192100  0.13183065  0.49819193  1
  O  O252  1  0.24729539  0.12350558  0.98886464  1
  O  O253  1  0.24747380  0.62863880  0.49431774  1
  O  O254  1  0.24350163  0.63915445  1.00332671  1
  O  O255  1  0.74016453  0.12758364  0.48798144  1
  O  O256  1  0.73658333  0.13374504  1.00012025  1
  O  O257  1  0.74634231  0.62815324  0.48963727  1
  O  O258  1  0.76185674  0.62471622  0.98233421  1
  O  O259  1  0.26775206  0.36125977  -0.04506085  1
  O  O260  1  0.25506347  0.36921057  0.50890681  1
  O  O261  1  0.23721009  0.85708473  0.01891082  1
  O  O262  1  0.25731437  0.87012329  0.50481060  1
  O  O263  1  0.76065536  0.36886989  -0.00886209  1
  O  O264  1  0.75902704  0.36720813  0.48896962  1
  O  O265  1  0.75243725  0.87878725  0.01226833  1
  O  O266  1  0.75365127  0.86820885  0.49782656  1
  O  O267  1  0.12853134  0.48507586  0.24994376  1
  O  O268  1  0.11835158  0.49034713  0.74316352  1
  O  O269  1  0.11642916  0.98745046  0.25225341  1
  O  O270  1  0.13019858  0.99234295  0.74596218  1
  O  O271  1  0.65324185  0.51571172  0.23533633  1
  O  O272  1  0.63890245  0.50392578  0.74605831  1
  O  O273  1  0.63006206  0.99025984  0.24068959  1
  O  O274  1  0.62455615  0.99405614  0.74157719  1
  O  O275  1  0.36087237  -0.00022949  0.24580761  1
  O  O276  1  0.36306790  0.00342567  0.74890703  1
  O  O277  1  0.37824091  0.50300542  0.25961540  1
  O  O278  1  0.37637203  0.51778845  0.75536921  1
  O  O279  1  0.86986449  0.00601515  0.25282470  1
  O  O280  1  0.87558788  0.00744343  0.76026669  1
  O  O281  1  0.86515345  0.50154443  0.24655509  1
  O  O282  1  0.87070373  0.51355092  0.74667287  1
  O  O283  1  0.11627944  0.37128859  0.37004474  1
  O  O284  1  0.11307809  0.36641615  0.86870662  1
  O  O285  1  0.11955845  0.86715093  0.37025269  1
  O  O286  1  0.12362928  0.86938996  0.86330233  1
  O  O287  1  0.61176373  0.41222826  0.35504911  1
  O  O288  1  0.61719164  0.36696387  0.86910311  1
  O  O289  1  0.61781742  0.88118551  0.36670644  1
  O  O290  1  0.62261194  0.86424599  0.86850569  1
  O  O291  1  0.38221205  0.12954885  0.12561394  1
  O  O292  1  0.37933462  0.12130770  0.63530574  1
  O  O293  1  0.38110595  0.63181772  0.13293148  1
  O  O294  1  0.38165445  0.62937072  0.63362335  1
  O  O295  1  0.88054547  0.13453709  0.12764091  1
  O  O296  1  0.87972036  0.12563335  0.63460763  1
  O  O297  1  0.88575979  0.63332009  0.12789140  1
  O  O298  1  0.87325399  0.63310643  0.63810885  1
  O  O299  1  0.26322168  0.24460175  0.13045545  1
  O  O300  1  0.24176846  0.25991764  0.61448291  1
  O  O301  1  0.26237010  0.75305859  0.12305236  1
  O  O302  1  0.25899793  0.75577698  0.61893448  1
  O  O303  1  0.75439787  0.24702695  0.11257381  1
  O  O304  1  0.76047442  0.23245371  0.60127683  1
  O  O305  1  0.76257889  0.75814496  0.13213830  1
  O  O306  1  0.76107687  0.74997433  0.61019540  1
  O  O307  1  0.24292538  0.24521080  0.39042071  1
  O  O308  1  0.23032006  0.23288428  0.86515117  1
  O  O309  1  0.24673724  0.74304380  0.38036088  1
  O  O310  1  0.23944684  0.75749319  0.88402049  1
  O  O311  1  0.75370356  0.23739323  0.38098552  1
  O  O312  1  0.74040763  0.24796062  0.88645800  1
  O  O313  1  0.75615408  0.74007447  0.38572453  1
  O  O314  1  0.73814754  0.74404838  0.87056191  1
  O  O315  1  -0.00521879  0.11684973  0.00822019  1
  O  O316  1  0.00487019  0.11909955  0.49955338  1
  O  O317  1  0.00644195  0.61696464  0.00043428  1
  O  O318  1  0.00778083  0.61496429  0.49511157  1
  O  O319  1  0.50886240  0.12646310  0.00809828  1
  O  O320  1  0.50182908  0.11870361  0.50440965  1
  O  O321  1  0.49494748  0.62884421  0.01618548  1
  O  O322  1  0.50862020  0.61912435  0.50540596  1
  O  O323  1  0.49069142  0.38189380  0.50884747  1
  O  O324  1  0.48895120  0.37696928  0.98418142  1
  O  O325  1  0.49551717  0.88095189  0.49629350  1
  O  O326  1  0.50398331  0.87308272  0.98674460  1
  O  O327  1  0.99582653  0.38373687  0.49364906  1
  O  O328  1  0.99240881  0.38082985  0.99382047  1
  O  O329  1  0.99598225  0.88278671  0.49328054  1
  O  O330  1  0.99914038  0.88428147  0.99287880  1
  O  O331  1  0.48429716  0.50999223  0.39015153  1
  O  O332  1  0.49780490  0.49789241  0.87359912  1
  O  O333  1  0.50295440  0.99006955  0.38859107  1
  O  O334  1  0.50712940  0.98308902  0.87319482  1
  O  O335  1  1.00652830  0.49248420  0.38562241  1
  O  O336  1  1.00291067  0.49114944  0.88584346  1
  O  O337  1  0.99381431  0.99728727  0.38514701  1
  O  O338  1  0.99523024  0.99531232  0.88035925  1
  O  O339  1  -0.00067892  0.00813226  0.11516312  1
  O  O340  1  0.00011785  -0.00070897  0.61249695  1
  O  O341  1  0.00775664  0.50438926  0.11255341  1
  O  O342  1  0.01486126  0.49473606  0.61440559  1
  O  O343  1  0.51114485  0.00367084  0.12764736  1
  O  O344  1  0.50847244  0.00707853  0.61655665  1
  O  O345  1  0.49803413  0.51472724  0.12415627  1
  O  O346  1  0.49409944  0.51065791  0.61574293  1
  O  O347  1  0.23631815  0.37098736  0.26097762  1
  O  O348  1  0.23695282  0.36858006  0.74754942  1
  O  O349  1  0.23862502  0.86458537  0.24387586  1
  O  O350  1  0.24616835  0.88231375  0.74850495  1
  O  O351  1  0.75174112  0.38437609  0.25387947  1
  O  O352  1  0.75351838  0.39660091  0.75893023  1
  O  O353  1  0.74532170  0.87995161  0.24422005  1
  O  O354  1  0.74040060  0.87977221  0.74538208  1
  O  O355  1  0.24134922  0.12904005  0.27107798  1
  O  O356  1  0.25397583  0.11911272  0.74739765  1
  O  O357  1  0.26251690  0.62169515  0.25629757  1
  O  O358  1  0.26577325  0.63122713  0.74702698  1
  O  O359  1  0.75190587  0.12191626  0.25304487  1
  O  O360  1  0.76132162  0.12610832  0.75047199  1
  O  O361  1  0.75862785  0.62943060  0.26415174  1
  O  O362  1  0.75947261  0.61810765  0.75373387  1
  O  O363  1  0.35633494  0.12368870  0.37921291  1
  O  O364  1  0.35707843  0.12997095  0.87039638  1
  O  O365  1  0.37142264  0.61971390  0.36860389  1
  O  O366  1  0.38319170  0.62046519  0.86152100  1
  O  O367  1  0.86673172  0.12027858  0.36770223  1
  O  O368  1  0.87240023  0.11788756  0.86818990  1
  O  O369  1  0.86496456  0.62580670  0.37568607  1
  O  O370  1  0.86250761  0.63694660  0.85987348  1
  O  O371  1  0.11992558  0.37186793  0.14129218  1
  O  O372  1  0.13300683  0.38087459  0.63429798  1
  O  O373  1  0.13144983  0.87603056  0.13697521  1
  O  O374  1  0.13276814  0.87234321  0.63675426  1
  O  O375  1  0.61249659  0.37509813  0.13911622  1
  O  O376  1  0.63827014  0.32845884  0.64122442  1
  O  O377  1  0.63079211  0.87931879  0.13017878  1
  O  O378  1  0.62373836  0.88437967  0.63077047  1
  O  O379  1  0.11798840  0.25990519  0.25693946  1
  O  O380  1  0.11402271  0.25822900  0.75660058  1
  O  O381  1  0.11649030  0.75399367  0.25353759  1
  O  O382  1  0.12531763  0.75524801  0.75697645  1
  O  O383  1  0.60672533  0.24390381  0.25314555  1
  O  O384  1  0.61689298  0.23227107  0.77027569  1
  O  O385  1  0.62576877  0.76325089  0.24795756  1
  O  O386  1  0.62623169  0.76098298  0.74437283  1
  O  O387  1  0.38155835  0.23622160  0.24288599  1
  O  O388  1  0.36958794  0.24291700  0.75763441  1
  O  O389  1  0.37867148  0.74156693  0.24446229  1
  O  O390  1  0.38009364  0.74120298  0.74394892  1
  O  O391  1  0.87661353  0.24777403  0.24153132  1
  O  O392  1  0.87950177  0.24490624  0.75107139  1
  O  O393  1  0.89063308  0.75056722  0.24239732  1
  O  O394  1  0.87483280  0.74342259  0.74013369  1
  O  O395  1  0.38022978  0.48966128  0.49690506  1
  O  O396  1  0.38042456  0.50382657  0.98364481  1
  O  O397  1  0.38404499  0.99019663  0.50799065  1
  O  O398  1  0.33294822  0.98124449  0.98647307  1
  O  O399  1  0.88602049  0.49568779  0.50443266  1
  O  O400  1  0.88423555  0.49006736  1.00336816  1
  O  O401  1  0.87874844  0.99734813  0.49562093  1
  O  O402  1  0.88179092  1.00008002  0.98792995  1
  O  O403  1  0.11663428  -0.00423974  0.00200443  1
  O  O404  1  0.11421567  0.00765478  0.50261925  1
  O  O405  1  0.12046496  0.50663257  -0.00362719  1
  O  O406  1  0.12011316  0.50519985  0.50611053  1
  O  O407  1  0.63073527  0.00816995  0.00964722  1
  O  O408  1  0.61712513  0.01023528  0.50633426  1
  O  O409  1  0.62237829  0.49982483  0.00416109  1
  O  O410  1  0.61428234  0.50596856  0.50055371  1
  O  O411  1  0.37783368  0.35894549  0.12641496  1
  O  O412  1  0.36146185  0.38236136  0.62252370  1
  O  O413  1  0.37112840  0.86620817  0.12465696  1
  O  O414  1  0.37405628  0.86816460  0.61741077  1
  O  O415  1  0.88210372  0.36162020  0.11435677  1
  O  O416  1  0.88001613  0.37332327  0.61037291  1
  O  O417  1  0.86704087  0.86828524  0.12379439  1
  O  O418  1  0.87084788  0.86978146  0.61763803  1
  O  O419  1  0.12839099  0.13140096  0.38767122  1
  O  O420  1  0.12596164  0.13665851  0.87436475  1
  O  O421  1  0.13372864  0.62927150  0.38063983  1
  O  O422  1  0.12288400  0.63304936  0.88503837  1
  O  O423  1  0.63242612  0.11416821  0.38147878  1
  O  O424  1  0.62225546  0.12709405  0.88503433  1
  O  O425  1  0.63642519  0.61780950  0.38518208  1
  O  O426  1  0.63827572  0.63980439  0.87069275  1
