# generated using pymatgen
data_V85Zn86O256
_symmetry_space_group_name_H-M   'P 1'
_cell_length_a   16.91905517
_cell_length_b   16.92486994
_cell_length_c   16.91407204
_cell_angle_alpha   90.04694938
_cell_angle_beta   90.04010276
_cell_angle_gamma   89.98320395
_symmetry_Int_Tables_number   1
_chemical_formula_structural   V85Zn86O256
_chemical_formula_sum   'V85 Zn86 O256'
_cell_volume   4843.38900595
_cell_formula_units_Z   1
loop_
 _symmetry_equiv_pos_site_id
 _symmetry_equiv_pos_as_xyz
  1  'x, y, z'
loop_
 _atom_site_type_symbol
 _atom_site_label
 _atom_site_symmetry_multiplicity
 _atom_site_fract_x
 _atom_site_fract_y
 _atom_site_fract_z
 _atom_site_occupancy
  V  V0  1  0.86744669  -0.00477452  0.87195217  1
  V  V1  1  0.61958752  0.37171331  0.74783135  1
  V  V2  1  -0.00015724  0.11720298  0.62112875  1
  V  V3  1  0.12787768  0.74031237  0.37274432  1
  V  V4  1  0.62445892  0.50037906  0.62389399  1
  V  V5  1  0.12797235  0.37638557  0.74440449  1
  V  V6  1  0.49309227  0.13125983  0.63393642  1
  V  V7  1  0.87986863  0.49939291  0.38634017  1
  V  V8  1  0.37405909  0.49690028  0.88006937  1
  V  V9  1  0.11693942  0.00575557  0.12502462  1
  V  V10  1  0.76124352  0.75267139  0.50596833  1
  V  V11  1  -0.00293356  0.87578435  0.87615108  1
  V  V12  1  0.37651218  0.00638755  0.87086736  1
  V  V13  1  -0.00591498  0.50400928  -0.00819961  1
  V  V14  1  0.62688083  0.87583353  0.75021540  1
  V  V15  1  0.62194835  0.74406708  0.87019715  1
  V  V16  1  0.50141396  0.00031503  0.00258724  1
  V  V17  1  0.75533564  0.62150353  0.87762716  1
  V  V18  1  0.61983092  0.24829400  0.87002375  1
  V  V19  1  0.74949520  0.11563069  0.35685103  1
  V  V20  1  0.25839500  0.62676485  0.86843283  1
  V  V21  1  0.75021956  0.49771931  0.24697768  1
  V  V22  1  0.62059693  0.61877687  0.00284492  1
  V  V23  1  -0.00331862  0.62616830  0.61379326  1
  V  V24  1  -0.00584117  0.24082129  0.24654190  1
  V  V25  1  0.75472865  0.37598256  0.61679561  1
  V  V26  1  0.87728010  0.25288179  0.61694585  1
  V  V27  1  0.75008576  0.12227365  0.87074226  1
  V  V28  1  0.25186557  0.87786605  0.12451054  1
  V  V29  1  0.37177901  0.25472858  0.10521790  1
  V  V30  1  0.25072442  0.25244808  0.51233505  1
  V  V31  1  0.37912619  0.74650389  0.63760000  1
  V  V32  1  0.12197602  0.11728883  0.49961977  1
  V  V33  1  0.87106059  0.12136245  0.74853399  1
  V  V34  1  0.12270170  0.49806397  0.61692269  1
  V  V35  1  0.62498392  0.75185059  0.37801379  1
  V  V36  1  0.25044856  0.12786099  0.37690036  1
  V  V37  1  0.74272639  0.24241161  0.49713194  1
  V  V38  1  0.25048904  0.12902837  0.87899437  1
  V  V39  1  0.37755037  0.37207136  0.50564223  1
  V  V40  1  0.87561783  0.63177390  0.24565285  1
  V  V41  1  0.50297093  0.25394028  0.26872888  1
  V  V42  1  0.25507488  0.50214498  0.74217921  1
  V  V43  1  0.25246947  0.75091587  -0.00003418  1
  V  V44  1  0.36446455  0.49762378  0.37784399  1
  V  V45  1  0.49528599  0.37066514  0.88135352  1
  V  V46  1  0.75048145  0.25034303  -0.00069926  1
  V  V47  1  -0.00074350  0.25150824  0.74965380  1
  V  V48  1  0.62895015  0.00229346  0.62620028  1
  V  V49  1  0.63940924  0.88077610  0.25107908  1
  V  V50  1  0.88427201  0.00110210  0.37162940  1
  V  V51  1  0.50050316  0.87953349  0.37406198  1
  V  V52  1  0.12336276  0.87433834  0.25199781  1
  V  V53  1  0.63746780  -0.00079832  0.13050244  1
  V  V54  1  -0.00610629  0.37560587  0.38557949  1
  V  V55  1  0.12616079  0.75141411  0.87404410  1
  V  V56  1  0.37856497  0.87694432  0.00119146  1
  V  V57  1  0.12252832  0.25078513  0.37516354  1
  V  V58  1  0.37529636  0.87323608  0.50018215  1
  V  V59  1  0.49816158  0.12732894  0.12469902  1
  V  V60  1  0.87676053  0.63038709  0.74897147  1
  V  V61  1  0.25098058  0.00306883  0.74843111  1
  V  V62  1  0.86988661  0.87087986  0.01659763  1
  V  V63  1  0.37418848  0.13107171  0.25113735  1
  V  V64  1  0.62354224  0.12313177  -0.00122699  1
  V  V65  1  0.75690330  0.87416270  0.63013794  1
  V  V66  1  0.12531431  0.62697409  -0.00111948  1
  V  V67  1  0.25144136  0.00346112  0.24841034  1
  V  V68  1  0.11813092  0.12974305  0.00265383  1
  V  V69  1  -0.00393535  0.63493876  0.12293095  1
  V  V70  1  0.49969317  0.86928449  0.87135197  1
  V  V71  1  0.87535098  0.37818038  -0.00411835  1
  V  V72  1  0.38374724  0.74905449  0.12617859  1
  V  V73  1  0.87728767  0.23800467  0.12970881  1
  V  V74  1  0.12296689  0.50081698  0.12385859  1
  V  V75  1  0.12247243  0.37543849  0.24893226  1
  V  V76  1  0.75780347  0.49723504  0.75315735  1
  V  V77  1  0.50159800  0.49781439  0.49175976  1
  V  V78  1  0.12489351  0.87613937  0.74874245  1
  V  V79  1  0.49946877  0.62520467  0.63792044  1
  V  V80  1  0.75140511  0.62692021  0.37649986  1
  V  V81  1  0.12493719  0.25388606  0.87987860  1
  V  V82  1  0.37045679  0.62449319  0.25799830  1
  V  V83  1  0.25337429  0.73936777  0.49577646  1
  V  V84  1  0.24961264  0.37260921  0.10996756  1
  Zn  Zn85  1  -0.00546641  0.75642898  0.25003808  1
  Zn  Zn86  1  0.37439110  0.25548378  0.64105082  1
  Zn  Zn87  1  0.24697984  0.50155336  0.25173585  1
  Zn  Zn88  1  0.88656899  0.88267963  0.50706096  1
  Zn  Zn89  1  0.74858852  0.37564788  0.12378046  1
  Zn  Zn90  1  0.12672982  0.61707003  0.49232752  1
  Zn  Zn91  1  -0.00444830  0.75042534  0.74608574  1
  Zn  Zn92  1  0.25147861  0.87409301  0.62422636  1
  Zn  Zn93  1  0.75623084  0.74714434  0.01199725  1
  Zn  Zn94  1  -0.00455189  0.00332734  0.00384153  1
  Zn  Zn95  1  0.49193859  0.49319537  0.00573065  1
  Zn  Zn96  1  0.00763232  0.87987393  0.39268480  1
  Zn  Zn97  1  0.37659419  0.00215345  0.37720267  1
  Zn  Zn98  1  0.61587371  0.37584018  0.25834811  1
  Zn  Zn99  1  0.50008010  0.74845102  0.25297184  1
  Zn  Zn100  1  0.62364326  0.62733613  0.50225007  1
  Zn  Zn101  1  0.50033730  0.00155443  0.50359709  1
  Zn  Zn102  1  0.49649169  0.61375928  0.12793576  1
  Zn  Zn103  1  -0.00619766  0.38295550  0.86938863  1
  Zn  Zn104  1  0.61995818  0.49358206  0.12741982  1
  Zn  Zn105  1  0.12167871  -0.00867603  0.61665167  1
  Zn  Zn106  1  0.62045410  0.12512605  0.49496933  1
  Zn  Zn107  1  0.18733776  0.19233061  0.18558978  1
  Zn  Zn108  1  0.18689895  0.18461265  0.69131000  1
  Zn  Zn109  1  0.19112535  0.68796619  0.18681055  1
  Zn  Zn110  1  0.18691599  0.68680905  0.68336579  1
  Zn  Zn111  1  0.68507928  0.19044802  0.18472093  1
  Zn  Zn112  1  0.68751752  0.18680934  0.68462893  1
  Zn  Zn113  1  0.68806434  0.68515738  0.18860620  1
  Zn  Zn114  1  0.68654797  0.68830325  0.68909266  1
  Zn  Zn115  1  0.31225465  0.31572510  0.31546040  1
  Zn  Zn116  1  0.30618479  0.31798017  0.81716710  1
  Zn  Zn117  1  0.31147353  0.81220380  0.31332279  1
  Zn  Zn118  1  0.31283113  0.81742716  0.81309923  1
  Zn  Zn119  1  0.78296493  0.32761264  0.33216106  1
  Zn  Zn120  1  0.81112616  0.31125975  0.81040218  1
  Zn  Zn121  1  0.81741529  0.81696804  0.31757596  1
  Zn  Zn122  1  0.80775505  0.80794012  0.81542583  1
  Zn  Zn123  1  0.18931650  0.43095373  0.43831934  1
  Zn  Zn124  1  0.18331714  0.44101648  0.93316071  1
  Zn  Zn125  1  0.19306795  0.93421979  0.43515738  1
  Zn  Zn126  1  0.18691730  0.94087134  0.93889152  1
  Zn  Zn127  1  0.68430226  0.43677643  0.43487453  1
  Zn  Zn128  1  0.68713011  0.43662836  0.93560959  1
  Zn  Zn129  1  0.69335612  0.94203977  0.44174049  1
  Zn  Zn130  1  0.68868403  0.93393817  0.93953783  1
  Zn  Zn131  1  0.31033807  0.06771997  0.06006870  1
  Zn  Zn132  1  0.31284848  0.06183449  0.56467693  1
  Zn  Zn133  1  0.31053631  0.56267218  0.06460759  1
  Zn  Zn134  1  0.31591867  0.56247196  0.56497924  1
  Zn  Zn135  1  0.81404957  0.06160427  0.05915868  1
  Zn  Zn136  1  0.81257088  0.05739423  0.56142593  1
  Zn  Zn137  1  0.81239636  0.56283263  0.06306235  1
  Zn  Zn138  1  0.81237211  0.56525431  0.56349801  1
  Zn  Zn139  1  0.43458063  0.43217889  0.19085197  1
  Zn  Zn140  1  0.43738403  0.43820908  0.68871419  1
  Zn  Zn141  1  0.44183047  0.93933896  0.18983610  1
  Zn  Zn142  1  0.43975117  0.93839370  0.68777947  1
  Zn  Zn143  1  0.93324962  0.43722040  0.18632723  1
  Zn  Zn144  1  0.93923902  0.44050308  0.68343335  1
  Zn  Zn145  1  0.93614213  0.94483650  0.19543566  1
  Zn  Zn146  1  0.93859715  0.93797702  0.68930336  1
  Zn  Zn147  1  0.06163047  0.06254863  0.31212911  1
  Zn  Zn148  1  0.06015779  0.06210302  0.81313989  1
  Zn  Zn149  1  0.05769891  0.56138154  0.31001860  1
  Zn  Zn150  1  0.06573796  0.56461959  0.80858419  1
  Zn  Zn151  1  0.56463996  0.06543799  0.31493293  1
  Zn  Zn152  1  0.56595520  0.05597716  0.81011482  1
  Zn  Zn153  1  0.56037201  0.56448426  0.31183089  1
  Zn  Zn154  1  0.56461235  0.55525811  0.81406522  1
  Zn  Zn155  1  0.43680907  0.18464361  0.44527418  1
  Zn  Zn156  1  0.43556838  0.18702811  0.81152998  1
  Zn  Zn157  1  0.44010054  0.68403113  0.44083630  1
  Zn  Zn158  1  0.44002964  0.68559768  0.93775034  1
  Zn  Zn159  1  0.93322893  0.18441197  0.43403828  1
  Zn  Zn160  1  0.93826630  0.18892331  0.93690462  1
  Zn  Zn161  1  0.94109370  0.69260165  0.43356629  1
  Zn  Zn162  1  0.93450944  0.69197381  0.93571109  1
  Zn  Zn163  1  0.05745285  0.31449159  0.06199208  1
  Zn  Zn164  1  0.06443294  0.30850491  0.56327489  1
  Zn  Zn165  1  0.06159177  0.81731995  0.06162155  1
  Zn  Zn166  1  0.06443834  0.80547738  0.56139933  1
  Zn  Zn167  1  0.56356440  0.31322264  0.06853613  1
  Zn  Zn168  1  0.56031976  0.31236519  0.56198716  1
  Zn  Zn169  1  0.59660608  0.79267668  0.08106160  1
  Zn  Zn170  1  0.56250421  0.81228766  0.56299532  1
  O  O171  1  0.13385348  0.11841218  0.11495238  1
  O  O172  1  0.11647106  0.12433057  0.61728662  1
  O  O173  1  0.12048771  0.62078823  0.11829219  1
  O  O174  1  0.11532507  0.61587052  0.62259390  1
  O  O175  1  0.61844790  0.11850781  0.11871242  1
  O  O176  1  0.61710075  0.11610741  0.62836996  1
  O  O177  1  0.61697532  0.62022546  0.11563819  1
  O  O178  1  0.61924920  0.61858448  0.62394859  1
  O  O179  1  0.37240401  0.38484787  0.38830862  1
  O  O180  1  0.38384291  0.38250762  0.87388417  1
  O  O181  1  0.38262187  0.87603546  0.38186678  1
  O  O182  1  0.38179438  0.88331904  0.88126168  1
  O  O183  1  0.87850285  0.39140118  0.37102853  1
  O  O184  1  0.87650301  0.36621984  0.88824098  1
  O  O185  1  0.88142131  0.88620121  0.37957080  1
  O  O186  1  0.88055769  0.88017643  0.87396228  1
  O  O187  1  0.25268664  0.00954342  0.36615274  1
  O  O188  1  0.25777401  0.00558272  0.87111008  1
  O  O189  1  0.26007103  0.49867153  0.37535125  1
  O  O190  1  0.25368588  0.50811354  0.86726403  1
  O  O191  1  0.75500560  0.01122919  0.37283510  1
  O  O192  1  0.75978994  0.00521201  0.87836888  1
  O  O193  1  0.76020127  0.51362180  0.37056649  1
  O  O194  1  0.74559406  0.50768290  0.86447402  1
  O  O195  1  0.24179824  0.49102581  0.12664231  1
  O  O196  1  0.24263040  0.50698865  0.63553570  1
  O  O197  1  0.24426985  0.99673313  0.12967743  1
  O  O198  1  0.24676108  0.99801999  0.63529060  1
  O  O199  1  0.74515876  0.50270678  0.13377181  1
  O  O200  1  0.74557528  0.49280003  0.62845034  1
  O  O201  1  0.73647540  1.00361137  0.11947318  1
  O  O202  1  0.73759958  0.99067375  0.62509025  1
  O  O203  1  0.00835354  0.37024567  0.25376366  1
  O  O204  1  0.00707337  0.37087536  0.75086895  1
  O  O205  1  0.01564760  0.87492715  0.24744987  1
  O  O206  1  0.00705673  0.87178355  0.75636100  1
  O  O207  1  0.49616258  0.35844515  0.25661574  1
  O  O208  1  0.51441214  0.38092536  0.75786012  1
  O  O209  1  0.50082436  0.87296201  0.26496514  1
  O  O210  1  0.50742974  0.88018391  0.76409203  1
  O  O211  1  0.49081547  0.13084009  0.24546523  1
  O  O212  1  0.50188475  0.12138741  0.74064021  1
  O  O213  1  0.48721080  0.62881637  0.24842244  1
  O  O214  1  0.50386657  0.61668613  0.73770137  1
  O  O215  1  1.00502541  0.14154655  0.25160080  1
  O  O216  1  0.99193717  0.13138848  0.74390845  1
  O  O217  1  0.99274911  0.62796589  0.23959390  1
  O  O218  1  0.99124347  0.62540236  0.74525726  1
  O  O219  1  0.37297541  0.24677381  0.01039457  1
  O  O220  1  0.36750816  0.25644279  0.50385660  1
  O  O221  1  0.37240485  0.75586973  0.00684967  1
  O  O222  1  0.37083221  0.75745040  0.50366565  1
  O  O223  1  0.86869763  0.25376702  0.00562533  1
  O  O224  1  0.86742914  0.24504431  0.51317355  1
  O  O225  1  0.87455327  0.76530493  0.00123029  1
  O  O226  1  0.86371963  0.75353881  0.49557222  1
  O  O227  1  0.13340447  0.24167037  0.49481080  1
  O  O228  1  0.11780616  0.24436299  0.99169822  1
  O  O229  1  0.13668986  0.74450443  0.49101098  1
  O  O230  1  0.13176112  0.74805460  0.99396323  1
  O  O231  1  0.63988037  0.24977329  0.50383941  1
  O  O232  1  0.63254658  0.24448772  0.99345427  1
  O  O233  1  0.63303333  0.75269145  0.48865862  1
  O  O234  1  0.61594791  0.73298518  0.98285989  1
  O  O235  1  0.48528243  0.24468909  0.12627069  1
  O  O236  1  0.50044021  0.23530943  0.62626509  1
  O  O237  1  0.49027678  0.75271461  0.12591037  1
  O  O238  1  0.48860211  0.74153634  0.62078826  1
  O  O239  1  0.98690756  0.25392871  0.13078896  1
  O  O240  1  0.99361737  0.24200865  0.63089439  1
  O  O241  1  1.00828663  0.73825253  0.12656545  1
  O  O242  1  1.00807187  0.73006686  0.63056211  1
  O  O243  1  -0.00079021  0.25713544  0.36639468  1
  O  O244  1  0.00895968  0.25010690  0.86562692  1
  O  O245  1  0.01278186  0.75638393  0.37052998  1
  O  O246  1  0.00506443  0.76124379  0.87197804  1
  O  O247  1  0.50067338  0.24222487  0.36739340  1
  O  O248  1  0.51286441  0.25347626  0.87138543  1
  O  O249  1  0.50936984  0.75729036  0.37802785  1
  O  O250  1  0.50398852  0.75957088  0.87561704  1
  O  O251  1  0.24633238  0.13142280  0.49427845  1
  O  O252  1  0.23817264  0.12000162  0.98532298  1
  O  O253  1  0.25118079  0.63587413  0.50230953  1
  O  O254  1  0.24478646  0.63250892  0.99286935  1
  O  O255  1  0.74450278  0.13732780  0.51013926  1
  O  O256  1  0.74561236  0.13401979  0.99208295  1
  O  O257  1  0.74740718  0.63296358  0.49344591  1
  O  O258  1  0.74391484  0.62562493  0.99214170  1
  O  O259  1  0.23963641  0.37700003  0.01059882  1
  O  O260  1  0.25840895  0.36139044  0.49841583  1
  O  O261  1  0.25770976  0.87114901  0.00362292  1
  O  O262  1  0.25912867  0.86465783  0.50240705  1
  O  O263  1  0.75429143  0.36361678  -0.00173463  1
  O  O264  1  0.74943779  0.36431355  0.51229663  1
  O  O265  1  0.76706241  0.87337490  -0.00349168  1
  O  O266  1  0.75002802  0.86718902  0.51162506  1
  O  O267  1  0.12403059  0.49312180  0.24291036  1
  O  O268  1  0.13099920  0.49398269  0.74144712  1
  O  O269  1  0.13202865  0.99615896  0.24388582  1
  O  O270  1  0.12975911  0.98899320  0.75181864  1
  O  O271  1  0.63639345  0.49991651  0.25353741  1
  O  O272  1  0.63677502  0.49123594  0.74369807  1
  O  O273  1  0.62238596  0.98987355  0.24592404  1
  O  O274  1  0.62679409  0.98427916  0.74560941  1
  O  O275  1  0.36997175  0.01476652  0.24774242  1
  O  O276  1  0.36547992  -0.00688523  0.76033112  1
  O  O277  1  0.37313414  0.50438517  0.26144186  1
  O  O278  1  0.36241141  0.49430527  0.75947283  1
  O  O279  1  0.87186671  -0.00151420  0.26914051  1
  O  O280  1  0.87899425  0.00948915  0.75983953  1
  O  O281  1  0.87158278  0.51498185  0.25620597  1
  O  O282  1  0.86349376  0.50756302  0.74574633  1
  O  O283  1  0.11619593  0.37013623  0.36812259  1
  O  O284  1  0.11958672  0.36853568  0.86739237  1
  O  O285  1  0.12714243  0.86830785  0.36592141  1
  O  O286  1  0.11710111  0.87225773  0.87148640  1
  O  O287  1  0.67257606  0.36163871  0.35610544  1
  O  O288  1  0.62116801  0.36628670  0.86726946  1
  O  O289  1  0.62062556  0.87396541  0.36893449  1
  O  O290  1  0.61952123  0.86697178  0.87103401  1
  O  O291  1  0.37513421  0.13633158  0.13122279  1
  O  O292  1  0.39010605  0.12470463  0.62430656  1
  O  O293  1  0.37655134  0.63416386  0.13013896  1
  O  O294  1  0.38308350  0.63823878  0.62372281  1
  O  O295  1  0.87573942  0.13870625  0.11735090  1
  O  O296  1  0.88030881  0.12902370  0.63114485  1
  O  O297  1  0.88377560  0.62487338  0.13147869  1
  O  O298  1  0.88864247  0.61890975  0.63149353  1
  O  O299  1  0.26231041  0.25775982  0.12749197  1
  O  O300  1  0.25107933  0.24197796  0.61532695  1
  O  O301  1  0.26196253  0.75754202  0.11946017  1
  O  O302  1  0.26310767  0.75021219  0.61812564  1
  O  O303  1  0.75932256  0.25003663  0.11606493  1
  O  O304  1  0.75755385  0.25608419  0.61848980  1
  O  O305  1  0.70605056  0.76202460  0.11212177  1
  O  O306  1  0.74260207  0.75908020  0.61631073  1
  O  O307  1  0.24316417  0.24319198  0.38071196  1
  O  O308  1  0.23404864  0.24227007  0.87207891  1
  O  O309  1  0.24240903  0.75287236  0.38357559  1
  O  O310  1  0.24851828  0.74482026  0.87906801  1
  O  O311  1  0.76615350  0.23101056  0.39380839  1
  O  O312  1  0.74166212  0.24390853  0.88095728  1
  O  O313  1  0.74605913  0.74233564  0.38072445  1
  O  O314  1  0.73942929  0.73930067  0.88067178  1
  O  O315  1  0.01321125  0.12101201  -0.00646758  1
  O  O316  1  0.01015589  0.13359115  0.50843535  1
  O  O317  1  0.00225555  0.62299812  0.00394169  1
  O  O318  1  0.00163316  0.62711492  0.51033878  1
  O  O319  1  0.50749731  0.11026254  0.00414503  1
  O  O320  1  0.50345182  0.12156452  0.51403169  1
  O  O321  1  0.50649067  0.61645937  0.00052719  1
  O  O322  1  0.50322547  0.61442756  0.51009260  1
  O  O323  1  0.49374624  0.38447456  0.50248731  1
  O  O324  1  0.50841440  0.37363882  0.98449184  1
  O  O325  1  0.49399076  0.87510544  0.49033784  1
  O  O326  1  0.49698786  0.88676693  0.98997055  1
  O  O327  1  1.00282777  0.36657054  0.48481224  1
  O  O328  1  0.99281489  0.38658734  0.99635995  1
  O  O329  1  1.00087667  0.87667086  0.50703149  1
  O  O330  1  0.98964358  0.87777047  0.99244092  1
  O  O331  1  0.49384531  0.50424127  0.38779471  1
  O  O332  1  0.49025246  0.48984130  0.87503116  1
  O  O333  1  0.49737019  0.99378679  0.37959843  1
  O  O334  1  0.49299420  0.99590926  0.88127256  1
  O  O335  1  0.98755018  0.49347171  0.37247032  1
  O  O336  1  1.00551605  0.50391195  0.88766435  1
  O  O337  1  0.99080887  1.00021218  0.37439544  1
  O  O338  1  0.99142795  0.98849043  0.87561245  1
  O  O339  1  0.01363302  -0.00035813  0.12640492  1
  O  O340  1  0.00282463  0.01360070  0.63001738  1
  O  O341  1  0.00475760  0.51014547  0.11486583  1
  O  O342  1  0.00987598  0.51267043  0.62825945  1
  O  O343  1  0.50329088  0.00765962  0.11838535  1
  O  O344  1  0.51001467  0.00738383  0.62685399  1
  O  O345  1  0.49957154  0.49510215  0.12280865  1
  O  O346  1  0.50547809  0.50601067  0.61862229  1
  O  O347  1  0.23438105  0.37442057  0.24621074  1
  O  O348  1  0.23513716  0.38714334  0.75494636  1
  O  O349  1  0.24319599  0.88238944  0.24473044  1
  O  O350  1  0.24233962  0.88628156  0.75200461  1
  O  O351  1  0.77407932  0.39562054  0.23927212  1
  O  O352  1  0.74463407  0.38095140  0.74223962  1
  O  O353  1  0.73743777  0.87343059  0.25399603  1
  O  O354  1  0.73945445  0.86667553  0.74313625  1
  O  O355  1  0.25596519  0.12529730  0.25604172  1
  O  O356  1  0.23983147  0.11095436  0.76331933  1
  O  O357  1  0.26500802  0.62100409  0.24403551  1
  O  O358  1  0.24295050  0.61636014  0.75844524  1
  O  O359  1  0.74918398  0.13035110  0.25915473  1
  O  O360  1  0.76363829  0.13049977  0.75398679  1
  O  O361  1  0.75563532  0.62057444  0.25694077  1
  O  O362  1  0.75579087  0.61732582  0.75461397  1
  O  O363  1  0.36797434  0.12462752  0.36889661  1
  O  O364  1  0.36695677  0.11412650  0.87612937  1
  O  O365  1  0.37867582  0.61493500  0.36927628  1
  O  O366  1  0.36352086  0.62081664  0.87544388  1
  O  O367  1  0.86332427  0.11278229  0.37924205  1
  O  O368  1  0.87189023  0.11759044  0.86841234  1
  O  O369  1  0.87153939  0.61863714  0.37015662  1
  O  O370  1  0.86287738  0.62763400  0.86900381  1
  O  O371  1  0.12818430  0.37894062  0.13085736  1
  O  O372  1  0.11846753  0.38273994  0.63306155  1
  O  O373  1  0.13283396  0.88373982  0.12931125  1
  O  O374  1  0.12953272  0.87345431  0.63593512  1
  O  O375  1  0.63112570  0.37437099  0.13679350  1
  O  O376  1  0.63205089  0.37859228  0.63157027  1
  O  O377  1  0.61091292  0.88755510  0.14574751  1
  O  O378  1  0.62752665  0.87963052  0.63391915  1
  O  O379  1  0.11690178  0.25710466  0.25471272  1
  O  O380  1  0.11953509  0.25823718  0.75401139  1
  O  O381  1  0.12953137  0.75850388  0.25553710  1
  O  O382  1  0.12861880  0.76133848  0.75722656  1
  O  O383  1  0.60329514  0.24483154  0.24385191  1
  O  O384  1  0.63470983  0.25954176  0.75846215  1
  O  O385  1  0.62236485  0.76197683  0.26361140  1
  O  O386  1  0.62504590  0.75689115  0.76203033  1
  O  O387  1  0.38234288  0.24150724  0.25125548  1
  O  O388  1  0.36577310  0.24986790  0.75303590  1
  O  O389  1  0.37533499  0.74411647  0.24345659  1
  O  O390  1  0.37238422  0.75521670  0.73606564  1
  O  O391  1  0.87906717  0.25534657  0.23364627  1
  O  O392  1  0.88063465  0.24316516  0.74217025  1
  O  O393  1  0.87517180  0.73760621  0.25663747  1
  O  O394  1  0.87320441  0.73480237  0.75203578  1
  O  O395  1  0.38063136  0.49422584  0.49618246  1
  O  O396  1  0.37086249  0.50380171  0.98487045  1
  O  O397  1  0.37440228  0.98479679  0.50129394  1
  O  O398  1  0.38163717  0.99741597  0.99422875  1
  O  O399  1  0.87164492  0.50421942  0.48506245  1
  O  O400  1  0.88207828  0.49235451  1.00195222  1
  O  O401  1  0.86541895  0.99673805  0.48372947  1
  O  O402  1  0.87710899  0.99027499  0.99126300  1
  O  O403  1  0.12247076  0.00738329  0.00873545  1
  O  O404  1  0.13480810  0.01358616  0.49900686  1
  O  O405  1  0.11748745  0.50875789  0.00418689  1
  O  O406  1  0.13255535  0.49869260  0.51224096  1
  O  O407  1  0.61875125  0.00046802  0.00663301  1
  O  O408  1  0.62253215  0.00091313  0.51249549  1
  O  O409  1  0.62380810  0.50962918  -0.00233932  1
  O  O410  1  0.61916417  0.49950421  0.50459583  1
  O  O411  1  0.36442186  0.36301489  0.12640420  1
  O  O412  1  0.37911595  0.37389079  0.61259091  1
  O  O413  1  0.37223222  0.87076047  0.12134184  1
  O  O414  1  0.37812436  0.86373219  0.61833161  1
  O  O415  1  0.87405564  0.36693304  0.10926588  1
  O  O416  1  0.86747064  0.36549716  0.63116877  1
  O  O417  1  0.88040680  0.88126347  0.11483671  1
  O  O418  1  0.86083736  0.88010404  0.62900757  1
  O  O419  1  0.12935687  0.13133078  0.38126282  1
  O  O420  1  0.12925212  0.13169667  0.88068194  1
  O  O421  1  0.12156016  0.63513499  0.37238319  1
  O  O422  1  0.13408190  0.63233894  0.87948998  1
  O  O423  1  0.64327884  0.12142045  0.37812935  1
  O  O424  1  0.62924809  0.12928211  0.87767196  1
  O  O425  1  0.63400366  0.63482730  0.37565460  1
  O  O426  1  0.63275895  0.62759521  0.87619590  1
