# generated using pymatgen
data_V85Zn86O256
_symmetry_space_group_name_H-M   'P 1'
_cell_length_a   16.92989039
_cell_length_b   16.92860693
_cell_length_c   16.92860052
_cell_angle_alpha   89.98238996
_cell_angle_beta   90.01612124
_cell_angle_gamma   89.99488900
_symmetry_Int_Tables_number   1
_chemical_formula_structural   V85Zn86O256
_chemical_formula_sum   'V85 Zn86 O256'
_cell_volume   4851.72732315
_cell_formula_units_Z   1
loop_
 _symmetry_equiv_pos_site_id
 _symmetry_equiv_pos_as_xyz
  1  'x, y, z'
loop_
 _atom_site_type_symbol
 _atom_site_label
 _atom_site_symmetry_multiplicity
 _atom_site_fract_x
 _atom_site_fract_y
 _atom_site_fract_z
 _atom_site_occupancy
  V  V0  1  -0.00453576  0.62046826  0.12859378  1
  V  V1  1  0.62389620  0.49999452  0.61205206  1
  V  V2  1  0.26436223  0.25060540  0.49347768  1
  V  V3  1  0.11767505  0.87520548  0.25470649  1
  V  V4  1  0.88106965  0.50156052  0.37894736  1
  V  V5  1  0.49927425  0.12778074  0.12789818  1
  V  V6  1  0.61995375  0.25042101  0.86582532  1
  V  V7  1  0.24793244  0.13141964  0.86911615  1
  V  V8  1  0.50722190  0.74736134  0.74699272  1
  V  V9  1  0.12542266  0.74933833  0.87578088  1
  V  V10  1  0.74865247  0.74979849  -0.00347092  1
  V  V11  1  0.00128322  0.60793179  0.62249857  1
  V  V12  1  0.88075645  -0.00337732  0.37598919  1
  V  V13  1  0.62949309  0.48733741  0.13108054  1
  V  V14  1  0.62904369  0.25210463  0.36173329  1
  V  V15  1  0.38357724  0.13907958  0.74613371  1
  V  V16  1  0.50145700  0.49978076  0.00000955  1
  V  V17  1  0.87334682  0.37634043  0.00185286  1
  V  V18  1  0.11847358  0.75091018  0.37810588  1
  V  V19  1  0.24920706  0.75086220  0.50490623  1
  V  V20  1  -0.00067638  0.37029678  0.38538743  1
  V  V21  1  0.75403093  0.25424543  0.50837984  1
  V  V22  1  -0.00633789  0.74676188  0.25121174  1
  V  V23  1  0.24923985  0.87522787  0.12477121  1
  V  V24  1  0.74767467  0.87628786  0.12507336  1
  V  V25  1  0.74757311  0.25504309  0.00428176  1
  V  V26  1  0.60836225  -0.00720090  0.62277572  1
  V  V27  1  0.87492578  0.74839880  0.62557887  1
  V  V28  1  0.75477932  0.48109186  0.24716712  1
  V  V29  1  0.00426811  0.00301529  0.50263637  1
  V  V30  1  0.49176417  0.62373172  0.61799423  1
  V  V31  1  -0.00061458  0.74658694  0.74951386  1
  V  V32  1  0.12560990  0.87679299  0.74649800  1
  V  V33  1  0.24300174  0.50315453  0.74561985  1
  V  V34  1  0.37528218  0.13046413  0.25408070  1
  V  V35  1  0.12269427  0.36978886  0.25372772  1
  V  V36  1  0.12532670  0.00114998  0.12472538  1
  V  V37  1  0.87907657  0.13718742  0.74335711  1
  V  V38  1  0.75009656  0.74603172  0.49948939  1
  V  V39  1  0.62513587  0.75772416  0.37349914  1
  V  V40  1  0.62491566  0.62796939  0.00046940  1
  V  V41  1  0.74778116  0.87627282  0.63293376  1
  V  V42  1  0.12569816  0.62064272  0.00431110  1
  V  V43  1  0.24587668  0.50072853  0.24908241  1
  V  V44  1  0.24838924  0.25104813  -0.00190856  1
  V  V45  1  0.87520726  0.87437481  -0.00034540  1
  V  V46  1  0.24864249  0.00176488  0.25542609  1
  V  V47  1  0.12552036  0.12929303  -0.00495173  1
  V  V48  1  0.11962829  0.60947670  0.50304209  1
  V  V49  1  0.87373293  0.00091737  0.86975023  1
  V  V50  1  0.74513472  0.62550448  0.87445227  1
  V  V51  1  0.37838459  0.25373867  0.12852907  1
  V  V52  1  0.26678056  0.37238559  0.61902018  1
  V  V53  1  0.88145030  0.87346364  0.49861349  1
  V  V54  1  0.62316473  0.12689409  -0.00058056  1
  V  V55  1  0.25127451  0.00298619  0.74625867  1
  V  V56  1  0.37366648  0.74991207  0.12594054  1
  V  V57  1  0.37488686  0.62361617  0.25315090  1
  V  V58  1  0.75453440  0.62621710  0.35881260  1
  V  V59  1  0.74396971  0.49679973  0.74965879  1
  V  V60  1  0.38835677  -0.00740923  0.37871501  1
  V  V61  1  0.74862549  0.12585793  0.87375385  1
  V  V62  1  0.24857183  0.62259845  0.37766310  1
  V  V63  1  0.37552772  0.37694854  0.00020203  1
  V  V64  1  0.87579924  0.25253095  0.12682396  1
  V  V65  1  0.24945728  0.75111299  -0.00036856  1
  V  V66  1  0.49901469  0.37451760  0.86671891  1
  V  V67  1  0.37725411  -0.00304997  0.87165140  1
  V  V68  1  0.50052925  0.36535304  0.37248699  1
  V  V69  1  0.00011220  0.87461248  0.87365059  1
  V  V70  1  0.49953115  0.00045000  -0.00142877  1
  V  V71  1  0.50019809  0.75848095  0.25029484  1
  V  V72  1  0.24214261  0.38083991  0.12385280  1
  V  V73  1  0.87391133  0.62062851  0.75085351  1
  V  V74  1  0.87767851  0.12487181  0.25077428  1
  V  V75  1  0.51799212  0.86816239  0.87151746  1
  V  V76  1  0.12491333  0.36231028  0.74240001  1
  V  V77  1  0.74887446  0.00016786  0.25290096  1
  V  V78  1  0.50129795  0.62389794  0.12522496  1
  V  V79  1  0.49894698  0.15004665  0.61864858  1
  V  V80  1  0.00474920  0.49721979  0.00236702  1
  V  V81  1  0.38657616  0.50246046  0.38962229  1
  V  V82  1  0.25895906  0.87388524  0.62466349  1
  V  V83  1  0.01055028  0.36067058  0.87420168  1
  V  V84  1  0.00102066  0.00047890  -0.00095022  1
  Zn  Zn85  1  -0.06932717  0.43344620  0.55633508  1
  Zn  Zn86  1  0.75978706  0.37340976  0.62309378  1
  Zn  Zn87  1  0.37217409  0.63068559  0.75219980  1
  Zn  Zn88  1  0.12483524  0.00660237  0.62245652  1
  Zn  Zn89  1  0.61912952  0.88172075  0.25483167  1
  Zn  Zn90  1  0.24491564  0.13369939  0.37486398  1
  Zn  Zn91  1  0.38733600  0.88180705  0.50568169  1
  Zn  Zn92  1  0.12136518  0.14371854  0.49528391  1
  Zn  Zn93  1  0.61992068  0.62315109  0.49302178  1
  Zn  Zn94  1  0.62003046  0.36933532  0.74053843  1
  Zn  Zn95  1  0.00395569  0.13881247  0.62592526  1
  Zn  Zn96  1  0.87199365  0.74557330  0.12935329  1
  Zn  Zn97  1  0.74871822  0.12446162  0.38226153  1
  Zn  Zn98  1  0.25109980  0.62321886  0.87505701  1
  Zn  Zn99  1  0.37390277  0.50296850  0.87285510  1
  Zn  Zn100  1  0.37657496  0.87425951  -0.00211959  1
  Zn  Zn101  1  0.62272419  0.00119800  0.12682337  1
  Zn  Zn102  1  0.00194092  0.12585026  0.12521790  1
  Zn  Zn103  1  0.00561466  0.24746383  0.25502812  1
  Zn  Zn104  1  0.87652265  0.49673316  0.87513929  1
  Zn  Zn105  1  0.62104656  0.12417134  0.49725474  1
  Zn  Zn106  1  0.74374973  -0.00155381  0.74827859  1
  Zn  Zn107  1  0.18975527  0.18906774  0.18569513  1
  Zn  Zn108  1  0.18863145  0.19125385  0.67621629  1
  Zn  Zn109  1  0.18246371  0.68618445  0.18725206  1
  Zn  Zn110  1  0.18348699  0.68647751  0.68422771  1
  Zn  Zn111  1  0.69115123  0.18682447  0.18579417  1
  Zn  Zn112  1  0.68699076  0.18106880  0.68446179  1
  Zn  Zn113  1  0.68476866  0.68816665  0.18467518  1
  Zn  Zn114  1  0.68002557  0.68723668  0.68741794  1
  Zn  Zn115  1  0.31836484  0.31977472  0.31408266  1
  Zn  Zn116  1  0.31036431  0.31700597  0.81152624  1
  Zn  Zn117  1  0.30799499  0.81190031  0.31515835  1
  Zn  Zn118  1  0.31660105  0.80957332  0.81028220  1
  Zn  Zn119  1  0.81707789  0.31078913  0.32043096  1
  Zn  Zn120  1  0.80767824  0.31748226  0.81864449  1
  Zn  Zn121  1  0.81228607  0.81542293  0.31397926  1
  Zn  Zn122  1  0.80999478  0.80942058  0.81399947  1
  Zn  Zn123  1  0.18967992  0.43097759  0.43611703  1
  Zn  Zn124  1  0.18684367  0.43967439  0.93357034  1
  Zn  Zn125  1  0.18931073  0.93780888  0.43547007  1
  Zn  Zn126  1  0.18973144  0.94032295  0.93432364  1
  Zn  Zn127  1  0.68731452  0.43243308  0.43248974  1
  Zn  Zn128  1  0.68537852  0.43805783  0.93710796  1
  Zn  Zn129  1  0.68938695  0.93774567  0.44504049  1
  Zn  Zn130  1  0.68851404  0.94187536  0.94009159  1
  Zn  Zn131  1  0.31271947  0.06310126  0.06179088  1
  Zn  Zn132  1  0.31756848  0.06510499  0.56226560  1
  Zn  Zn133  1  0.31286821  0.56242271  0.06255217  1
  Zn  Zn134  1  0.30725617  0.56305453  0.56659215  1
  Zn  Zn135  1  0.81234088  0.06414661  0.06270013  1
  Zn  Zn136  1  0.80890291  0.06362564  0.56196249  1
  Zn  Zn137  1  0.81405208  0.55922776  0.06630684  1
  Zn  Zn138  1  0.80801148  0.56351861  0.56212888  1
  Zn  Zn139  1  0.43900413  0.43817161  0.19273479  1
  Zn  Zn140  1  0.43633570  0.44745055  0.68864143  1
  Zn  Zn141  1  0.43391708  0.94076006  0.18742857  1
  Zn  Zn142  1  0.43803754  0.93324536  0.69501127  1
  Zn  Zn143  1  0.93705788  0.43809715  0.18954376  1
  Zn  Zn144  1  0.93780474  0.31266571  0.68836719  1
  Zn  Zn145  1  0.93720230  0.93640323  0.18630506  1
  Zn  Zn146  1  0.93700163  0.94014794  0.68465539  1
  Zn  Zn147  1  0.06198954  0.06551216  0.31950315  1
  Zn  Zn148  1  0.06209145  0.06521945  0.81050763  1
  Zn  Zn149  1  0.06411372  0.55932005  0.31240739  1
  Zn  Zn150  1  0.06335724  0.55629820  0.81535488  1
  Zn  Zn151  1  0.56270585  0.06836279  0.31161605  1
  Zn  Zn152  1  0.56239917  0.06090300  0.80547415  1
  Zn  Zn153  1  0.56686894  0.56534883  0.31016690  1
  Zn  Zn154  1  0.56218676  0.56385863  0.81129745  1
  Zn  Zn155  1  0.43425699  0.19250014  0.43783332  1
  Zn  Zn156  1  0.43562610  0.18927579  0.93621361  1
  Zn  Zn157  1  0.45634593  0.72805592  0.45685514  1
  Zn  Zn158  1  0.43544768  0.68869795  0.93385777  1
  Zn  Zn159  1  0.93500461  0.18792586  0.43960497  1
  Zn  Zn160  1  0.93534809  0.18611419  0.93757789  1
  Zn  Zn161  1  0.93702981  0.68234257  0.43681543  1
  Zn  Zn162  1  0.93548276  0.68551214  0.93906307  1
  Zn  Zn163  1  0.06162789  0.31076404  0.06492067  1
  Zn  Zn164  1  0.07539168  0.31079990  0.56136166  1
  Zn  Zn165  1  0.06178651  0.81064969  0.06577235  1
  Zn  Zn166  1  0.06245521  0.80987470  0.56489040  1
  Zn  Zn167  1  0.56028297  0.31223921  0.06076609  1
  Zn  Zn168  1  0.56663984  0.31961623  0.54596752  1
  Zn  Zn169  1  0.56291672  0.81308997  0.06144722  1
  Zn  Zn170  1  0.56441431  0.81291511  0.56568178  1
  O  O171  1  0.12561483  0.11778595  0.11697531  1
  O  O172  1  0.12338113  0.12281175  0.61507221  1
  O  O173  1  0.11355958  0.63069390  0.11130348  1
  O  O174  1  0.11239578  0.62728856  0.61587281  1
  O  O175  1  0.61482936  0.12688509  0.11929773  1
  O  O176  1  0.60644107  0.11772930  0.62598722  1
  O  O177  1  0.62014330  0.61727612  0.11812636  1
  O  O178  1  0.61705382  0.61594702  0.62035093  1
  O  O179  1  0.38694197  0.39258922  0.37126818  1
  O  O180  1  0.38202865  0.37589707  0.88261932  1
  O  O181  1  0.37064327  0.89060602  0.37014656  1
  O  O182  1  0.37789154  0.88825496  0.87561969  1
  O  O183  1  0.89062112  0.38403567  0.37118804  1
  O  O184  1  0.88731829  0.37438646  0.88550684  1
  O  O185  1  0.86963525  0.88335093  0.38694754  1
  O  O186  1  0.87818453  0.88190001  0.87914255  1
  O  O187  1  0.25576544  0.00003564  0.36207839  1
  O  O188  1  0.25922447  0.01080669  0.86886380  1
  O  O189  1  0.25825622  0.50287122  0.36751303  1
  O  O190  1  0.25130232  0.50121247  0.86235470  1
  O  O191  1  0.75838145  0.00042884  0.36841951  1
  O  O192  1  0.75696258  0.00592801  0.87262062  1
  O  O193  1  0.75387564  0.50535331  0.36272283  1
  O  O194  1  0.75141889  0.50727875  0.86868712  1
  O  O195  1  0.25601523  0.49018370  0.13361460  1
  O  O196  1  0.25005805  0.49022718  0.63697426  1
  O  O197  1  0.24679396  0.99608426  0.13504696  1
  O  O198  1  0.24818229  0.99336640  0.62941313  1
  O  O199  1  0.74590226  0.50188950  0.13899942  1
  O  O200  1  0.73846143  0.50247184  0.63237589  1
  O  O201  1  0.74964726  0.99282801  0.13150857  1
  O  O202  1  0.74718446  0.98865709  0.62639628  1
  O  O203  1  0.00908950  0.37381656  0.25459623  1
  O  O204  1  0.01393317  0.37259683  0.76422254  1
  O  O205  1  0.01174289  0.86701443  0.24283433  1
  O  O206  1  0.00640894  0.87075017  0.75457945  1
  O  O207  1  0.50475676  0.39244151  0.27223141  1
  O  O208  1  0.50104243  0.38282156  0.76318192  1
  O  O209  1  0.50040028  0.86308237  0.24172195  1
  O  O210  1  0.50105960  0.86432182  0.76269319  1
  O  O211  1  0.49026127  0.12087615  0.23517182  1
  O  O212  1  0.48935058  0.12523689  0.74055538  1
  O  O213  1  0.49469820  0.63138811  0.24047676  1
  O  O214  1  0.49860470  0.63255387  0.74421878  1
  O  O215  1  0.98931221  0.12553683  0.24876614  1
  O  O216  1  0.98329148  0.12351667  0.75182323  1
  O  O217  1  1.00994554  0.63273465  0.23929685  1
  O  O218  1  0.99214547  0.62503041  0.74643296  1
  O  O219  1  0.36833384  0.25694227  0.00717122  1
  O  O220  1  0.36603087  0.25854166  0.50189460  1
  O  O221  1  0.36504824  0.75149129  0.00621814  1
  O  O222  1  0.34973679  0.74912027  0.49085434  1
  O  O223  1  0.86805008  0.25446577  0.00615543  1
  O  O224  1  0.85326095  0.24779342  0.49165196  1
  O  O225  1  0.86711560  0.75748825  0.00162456  1
  O  O226  1  0.87101115  0.75587518  0.50363232  1
  O  O227  1  0.15213377  0.25722544  0.50023839  1
  O  O228  1  0.13153149  0.23662131  1.00667791  1
  O  O229  1  0.12860086  0.74751760  0.49181216  1
  O  O230  1  0.13098288  0.74547794  0.99595560  1
  O  O231  1  0.63355906  0.24566662  0.48660806  1
  O  O232  1  0.63195097  0.24572673  0.99549061  1
  O  O233  1  0.63583002  0.74693530  0.49126910  1
  O  O234  1  0.63245700  0.73629091  1.00627720  1
  O  O235  1  0.48649976  0.24427607  0.11945787  1
  O  O236  1  0.50810368  0.24793769  0.62303691  1
  O  O237  1  0.49447693  0.74444868  0.12972293  1
  O  O238  1  0.50748326  0.73721793  0.63855199  1
  O  O239  1  0.98774014  0.24640960  0.12754836  1
  O  O240  1  1.00288765  0.25233580  0.62199275  1
  O  O241  1  0.99802154  0.74178921  0.13340668  1
  O  O242  1  0.99221654  0.74536992  0.63462751  1
  O  O243  1  -0.00613836  0.26559591  0.37332509  1
  O  O244  1  0.00216109  0.26242205  0.88384547  1
  O  O245  1  0.01074679  0.74315532  0.36765328  1
  O  O246  1  0.00449787  0.75516561  0.87055233  1
  O  O247  1  0.50737572  0.25759731  0.37223595  1
  O  O248  1  0.50951534  0.25983886  0.88289518  1
  O  O249  1  0.51414992  0.73597565  0.35788624  1
  O  O250  1  0.50175894  0.76393243  0.87479795  1
  O  O251  1  0.25814220  0.14124308  0.50029645  1
  O  O252  1  0.24460930  0.12812398  0.99087955  1
  O  O253  1  0.23783424  0.63163444  0.49980305  1
  O  O254  1  0.24120033  0.63168325  1.00195786  1
  O  O255  1  0.74445500  0.13469657  0.50048288  1
  O  O256  1  0.74460005  0.13191024  0.99343808  1
  O  O257  1  0.75262294  0.63815376  0.49144214  1
  O  O258  1  0.74618820  0.63012486  0.99618097  1
  O  O259  1  0.25402088  0.37319159  0.00643381  1
  O  O260  1  0.25314422  0.37502100  0.51347807  1
  O  O261  1  0.24931650  0.86964075  0.00624515  1
  O  O262  1  0.24783588  0.86959678  0.51032329  1
  O  O263  1  0.76029818  0.36688948  -0.00673740  1
  O  O264  1  0.74425939  0.36088615  0.50179145  1
  O  O265  1  0.75258284  0.86834011  0.00488870  1
  O  O266  1  0.75958115  0.86385146  0.50941283  1
  O  O267  1  0.13889195  0.49049287  0.25208915  1
  O  O268  1  0.13771084  0.48955328  0.75659084  1
  O  O269  1  0.12935808  0.99316333  0.24632398  1
  O  O270  1  0.13253260  0.99281013  0.75042571  1
  O  O271  1  0.64220810  0.50646521  0.24280954  1
  O  O272  1  0.63465673  0.50287985  0.74266002  1
  O  O273  1  0.63444536  0.99989645  0.24830888  1
  O  O274  1  0.62735899  1.00386355  0.73029228  1
  O  O275  1  0.36656015  0.00908664  0.25467264  1
  O  O276  1  0.37037772  0.00769185  0.75635654  1
  O  O277  1  0.36443362  0.50876015  0.25246345  1
  O  O278  1  0.35864375  0.50405282  0.75303404  1
  O  O279  1  0.87114046  0.00341930  0.25659241  1
  O  O280  1  0.87313605  0.00371543  0.76151250  1
  O  O281  1  0.86140193  0.49756201  0.25651044  1
  O  O282  1  0.85974210  0.51556421  0.75399681  1
  O  O283  1  0.11068101  0.38162088  0.36626002  1
  O  O284  1  0.11561199  0.37430463  0.87008500  1
  O  O285  1  0.12901198  0.86549627  0.36444588  1
  O  O286  1  0.12188688  0.87165087  0.86458767  1
  O  O287  1  0.61919386  0.36004048  0.37116153  1
  O  O288  1  0.61634322  0.36655435  0.87569751  1
  O  O289  1  0.63569646  0.86217214  0.37317977  1
  O  O290  1  0.61592831  0.87891909  0.87613650  1
  O  O291  1  0.37899883  0.13317507  0.13012316  1
  O  O292  1  0.38775945  0.12412091  0.63663769  1
  O  O293  1  0.37978824  0.63157055  0.13166425  1
  O  O294  1  0.38859333  0.62119441  0.62786437  1
  O  O295  1  0.87722458  0.13168026  0.13198525  1
  O  O296  1  0.87347213  0.12120135  0.64248175  1
  O  O297  1  0.89031279  0.62811012  0.11892700  1
  O  O298  1  0.87921322  0.62965744  0.63255092  1
  O  O299  1  0.26086418  0.25798351  0.11850774  1
  O  O300  1  0.25623563  0.26646544  0.61943168  1
  O  O301  1  0.25267388  0.75474372  0.12025593  1
  O  O302  1  0.24119968  0.76064571  0.61727263  1
  O  O303  1  0.75977758  0.24542942  0.11262197  1
  O  O304  1  0.74151155  0.25282631  0.61386886  1
  O  O305  1  0.75214366  0.75662693  0.11571812  1
  O  O306  1  0.75345447  0.75212029  0.61794208  1
  O  O307  1  0.26068283  0.25413483  0.38682804  1
  O  O308  1  0.25741426  0.23767071  0.88154653  1
  O  O309  1  0.23583144  0.74236462  0.37742700  1
  O  O310  1  0.24279002  0.75067975  0.88262891  1
  O  O311  1  0.74005024  0.24793796  0.37780937  1
  O  O312  1  0.74180885  0.24548153  0.88626545  1
  O  O313  1  0.74793161  0.74405943  0.37921909  1
  O  O314  1  0.75107847  0.74322695  0.88856947  1
  O  O315  1  0.00893043  0.11861876  -0.00162316  1
  O  O316  1  -0.00162806  0.11581732  0.50145226  1
  O  O317  1  0.00568924  0.61692330  0.00390945  1
  O  O318  1  0.00744165  0.62995134  0.51086254  1
  O  O319  1  0.50145482  0.12128932  0.00825464  1
  O  O320  1  0.49640606  0.13106801  0.51626800  1
  O  O321  1  0.50773852  0.62146545  0.00402031  1
  O  O322  1  0.50048678  0.63596401  0.51502678  1
  O  O323  1  0.50827158  0.38684617  0.47326891  1
  O  O324  1  0.49416783  0.38146078  0.99321606  1
  O  O325  1  0.48741786  0.83451904  0.49070573  1
  O  O326  1  0.49979071  0.88027000  0.98862054  1
  O  O327  1  1.00761304  0.37907707  0.48837650  1
  O  O328  1  0.99865988  0.37978302  0.99387476  1
  O  O329  1  0.98622881  0.87892503  0.50833774  1
  O  O330  1  0.99643493  0.87959659  0.99391993  1
  O  O331  1  0.48744921  0.51328101  0.37527441  1
  O  O332  1  0.50159017  0.49307481  0.88386812  1
  O  O333  1  0.48701572  1.00016110  0.36669527  1
  O  O334  1  0.49546908  0.99103631  0.87564137  1
  O  O335  1  0.98920698  0.49223900  0.36747348  1
  O  O336  1  0.99756570  0.49135709  0.88746262  1
  O  O337  1  0.98636060  0.99928714  0.38160787  1
  O  O338  1  0.99319204  0.99406599  0.87909572  1
  O  O339  1  0.00626626  0.00099529  0.11660466  1
  O  O340  1  0.00108050  0.00495822  0.61605529  1
  O  O341  1  -0.00290960  0.50510497  0.11301770  1
  O  O342  1  -0.00466494  0.50967140  0.62294440  1
  O  O343  1  0.49849663  0.00842266  0.11709379  1
  O  O344  1  0.50737036  -0.00767225  0.62382881  1
  O  O345  1  0.50723275  0.50537792  0.12033091  1
  O  O346  1  0.50995623  0.51513622  0.62953145  1
  O  O347  1  0.24617339  0.38176348  0.24369374  1
  O  O348  1  0.24298236  0.38181407  0.74480883  1
  O  O349  1  0.24004823  0.88090384  0.24387671  1
  O  O350  1  0.24373629  0.87899029  0.74492548  1
  O  O351  1  0.75276447  0.38283287  0.25155998  1
  O  O352  1  0.74248424  0.38489893  0.75130389  1
  O  O353  1  0.75120383  0.88541071  0.24166413  1
  O  O354  1  0.75399882  0.87216340  0.73694320  1
  O  O355  1  0.25777560  0.11774509  0.24876792  1
  O  O356  1  0.25974116  0.12336013  0.75281998  1
  O  O357  1  0.25161775  0.61866500  0.25361339  1
  O  O358  1  0.24608305  0.61496874  0.74841947  1
  O  O359  1  0.76082582  0.11244514  0.24729221  1
  O  O360  1  0.76033908  0.12301275  0.75707711  1
  O  O361  1  0.75309217  0.62854560  0.25712513  1
  O  O362  1  0.75279693  0.62407568  0.75838198  1
  O  O363  1  0.37343586  0.11704248  0.36564814  1
  O  O364  1  0.37342611  0.11704312  0.86453317  1
  O  O365  1  0.36508373  0.61676125  0.36659401  1
  O  O366  1  0.36929860  0.62132317  0.87356832  1
  O  O367  1  0.87129339  0.11701346  0.36579042  1
  O  O368  1  0.86956471  0.11802658  0.86941763  1
  O  O369  1  0.86743964  0.61579021  0.37444806  1
  O  O370  1  0.86362339  0.62401649  0.86986413  1
  O  O371  1  0.13742983  0.37281529  0.12915499  1
  O  O372  1  0.13348992  0.37727614  0.64076408  1
  O  O373  1  0.13046364  0.88113689  0.13114910  1
  O  O374  1  0.12940953  0.87654240  0.63770600  1
  O  O375  1  0.62204724  0.38821833  0.11952572  1
  O  O376  1  0.62158265  0.39042880  0.62455580  1
  O  O377  1  0.63734587  0.87745845  0.12518343  1
  O  O378  1  0.63216722  0.88454276  0.62176945  1
  O  O379  1  0.12628620  0.26426145  0.24471821  1
  O  O380  1  0.13657771  0.26380007  0.75276929  1
  O  O381  1  0.11709290  0.75687491  0.25600914  1
  O  O382  1  0.11870392  0.75637932  0.75590938  1
  O  O383  1  0.63001040  0.24427794  0.26180991  1
  O  O384  1  0.63033485  0.24937976  0.76282185  1
  O  O385  1  0.61802518  0.75448627  0.25352010  1
  O  O386  1  0.60880330  0.74448051  0.75807675  1
  O  O387  1  0.36938841  0.24029231  0.24243824  1
  O  O388  1  0.37503132  0.23680324  0.75664631  1
  O  O389  1  0.38018359  0.74372842  0.24789510  1
  O  O390  1  0.39474251  0.74745118  0.75788834  1
  O  O391  1  0.87297501  0.24137596  0.24261854  1
  O  O392  1  0.87162483  0.24054303  0.75780096  1
  O  O393  1  0.89009087  0.75759481  0.25080977  1
  O  O394  1  0.87856153  0.73867244  0.74823764  1
  O  O395  1  0.37091482  0.50814381  0.48701720  1
  O  O396  1  0.38247664  0.49287889  1.00045699  1
  O  O397  1  0.37155170  0.99798081  0.48331402  1
  O  O398  1  0.38137596  1.00116952  0.98966688  1
  O  O399  1  0.86823461  0.50168298  0.48525853  1
  O  O400  1  0.88134476  0.49093398  0.99887246  1
  O  O401  1  0.88038091  0.99354100  0.49484325  1
  O  O402  1  0.87863548  0.99613728  0.98905675  1
  O  O403  1  0.12285113  0.00918024  0.00343333  1
  O  O404  1  0.10841703  -0.01104006  0.49865218  1
  O  O405  1  0.11841056  0.50888761  -0.00204832  1
  O  O406  1  0.12850395  0.51103841  0.49413680  1
  O  O407  1  0.61783344  0.00948217  0.00256406  1
  O  O408  1  0.62905312  0.00487724  0.51669508  1
  O  O409  1  0.62339030  0.51003006  0.00817483  1
  O  O410  1  0.63465904  0.50537831  0.50849572  1
  O  O411  1  0.37032889  0.36939856  0.12247731  1
  O  O412  1  0.36475112  0.37948853  0.63057866  1
  O  O413  1  0.36701594  0.86875080  0.12274050  1
  O  O414  1  0.36289681  0.87842125  0.62573403  1
  O  O415  1  0.88110071  0.36664353  0.11196499  1
  O  O416  1  0.87165620  0.38567722  0.63625976  1
  O  O417  1  0.86373531  0.87456079  0.11761441  1
  O  O418  1  0.86792565  0.86766082  0.62033091  1
  O  O419  1  0.13259406  0.11916363  0.38339256  1
  O  O420  1  0.13633832  0.11973968  0.88170448  1
  O  O421  1  0.12882207  0.63037090  0.38218680  1
  O  O422  1  0.12435183  0.63175978  0.88682430  1
  O  O423  1  0.62529504  0.13645711  0.37634421  1
  O  O424  1  0.62676566  0.13082068  0.87894602  1
  O  O425  1  0.63775070  0.63474708  0.37461140  1
  O  O426  1  0.63725397  0.61930132  0.88494264  1
