# generated using pymatgen
data_V85Zn86O256
_symmetry_space_group_name_H-M   'P 1'
_cell_length_a   16.96579266
_cell_length_b   16.94263505
_cell_length_c   16.95143126
_cell_angle_alpha   90.02427998
_cell_angle_beta   90.01733017
_cell_angle_gamma   89.92829154
_symmetry_Int_Tables_number   1
_chemical_formula_structural   V85Zn86O256
_chemical_formula_sum   'V85 Zn86 O256'
_cell_volume   4872.60363610
_cell_formula_units_Z   1
loop_
 _symmetry_equiv_pos_site_id
 _symmetry_equiv_pos_as_xyz
  1  'x, y, z'
loop_
 _atom_site_type_symbol
 _atom_site_label
 _atom_site_symmetry_multiplicity
 _atom_site_fract_x
 _atom_site_fract_y
 _atom_site_fract_z
 _atom_site_occupancy
  V  V0  1  0.25086994  0.36468381  0.11976096  1
  V  V1  1  0.37492112  0.12225527  0.24490293  1
  V  V2  1  0.37641807  0.12230366  0.74857412  1
  V  V3  1  0.25092848  0.49900463  0.74786009  1
  V  V4  1  0.36867725  0.74749213  0.62999804  1
  V  V5  1  0.12688421  0.25096812  0.87935464  1
  V  V6  1  0.00106437  0.87170970  0.87322933  1
  V  V7  1  0.25018841  0.24349701  0.49300147  1
  V  V8  1  -0.00396786  0.12763623  0.13362905  1
  V  V9  1  0.61979374  0.12831270  0.48273104  1
  V  V10  1  -0.00032545  0.49962337  0.00163201  1
  V  V11  1  0.37920327  0.62408518  0.25066689  1
  V  V12  1  0.00012820  0.37479640  0.87677885  1
  V  V13  1  0.24728564  0.00258022  0.75001884  1
  V  V14  1  -0.00108163  0.62581297  0.12602908  1
  V  V15  1  0.50278463  0.12207851  0.62338464  1
  V  V16  1  0.75168767  0.24695653  -0.00444100  1
  V  V17  1  0.87343869  0.87713245  0.00556271  1
  V  V18  1  0.12807815  0.13019317  0.00315779  1
  V  V19  1  0.50472114  0.76454597  0.25545958  1
  V  V20  1  0.87344273  0.75235257  0.12960013  1
  V  V21  1  0.12159130  0.00681665  0.62159879  1
  V  V22  1  0.50702736  0.11922903  0.12390119  1
  V  V23  1  0.49831492  0.62204874  0.12684957  1
  V  V24  1  0.62368045  0.62338467  0.00308099  1
  V  V25  1  0.49950446  0.24758355  0.25379301  1
  V  V26  1  0.62965154  0.12040131  -0.00093829  1
  V  V27  1  0.12453702  0.63223297  -0.00191311  1
  V  V28  1  0.87528862  0.37279269  0.00427597  1
  V  V29  1  0.74570050  -0.00232630  0.25853685  1
  V  V30  1  0.62156145  0.25825084  0.87489687  1
  V  V31  1  0.62673941  0.36895452  0.25503222  1
  V  V32  1  0.00240197  0.62243926  0.62260735  1
  V  V33  1  0.12825614  0.49834517  0.12875618  1
  V  V34  1  0.68820495  0.93344833  0.79309662  1
  V  V35  1  0.24464222  0.62562066  0.87531413  1
  V  V36  1  0.76168750  0.12924357  0.37179413  1
  V  V37  1  0.12855716  -0.01053554  0.12795021  1
  V  V38  1  -0.00042393  0.49212230  0.48211393  1
  V  V39  1  0.24789948  -0.01618458  0.24651066  1
  V  V40  1  0.87844657  0.75319450  0.62452982  1
  V  V41  1  0.74571838  0.49594733  0.73297156  1
  V  V42  1  0.24854346  0.37254598  0.62119330  1
  V  V43  1  0.37522488  0.37311856  0.49844811  1
  V  V44  1  0.37604497  0.63356470  0.75069191  1
  V  V45  1  0.50095777  0.87908411  0.86242130  1
  V  V46  1  0.50120028  0.25609356  0.75270566  1
  V  V47  1  0.87766905  0.24688405  0.14166969  1
  V  V48  1  0.87675571  0.62384454  0.74966466  1
  V  V49  1  0.24695300  0.87818459  0.62444869  1
  V  V50  1  0.12489401  0.37451525  0.74999407  1
  V  V51  1  0.72371616  0.87961034  0.13215436  1
  V  V52  1  0.25807398  0.12005817  0.37434767  1
  V  V53  1  0.37715441  0.87245264  0.49660168  1
  V  V54  1  0.09184325  0.14358509  0.46320314  1
  V  V55  1  0.00895947  0.88474077  0.37170410  1
  V  V56  1  0.86551137  0.37702719  0.49017750  1
  V  V57  1  0.86947576  0.49929573  0.87671453  1
  V  V58  1  0.74799554  0.74599765  0.00704310  1
  V  V59  1  0.00635261  0.75818242  0.25114086  1
  V  V60  1  0.25293000  0.13142074  0.88001214  1
  V  V61  1  0.38051192  0.49525435  0.87294936  1
  V  V62  1  0.12553236  0.62742515  0.49795301  1
  V  V63  1  0.50560766  0.37114730  0.37917560  1
  V  V64  1  -0.00135012  0.12670334  0.63327637  1
  V  V65  1  0.11915234  0.35581755  0.26047110  1
  V  V66  1  0.37910156  0.49939388  0.37778240  1
  V  V67  1  0.51124751  0.51346529  0.51340445  1
  V  V68  1  0.87341042  0.87988400  0.49047683  1
  V  V69  1  -0.01359927  0.00325695  0.50052629  1
  V  V70  1  0.75009535  0.74191212  0.49772936  1
  V  V71  1  0.50066940  0.48877278  -0.00271365  1
  V  V72  1  0.50238708  -0.01139072  0.49015041  1
  V  V73  1  0.75092806  0.37193469  0.12825473  1
  V  V74  1  0.63111842  0.00198831  0.62362384  1
  V  V75  1  -0.00245132  0.00392558  -0.00134899  1
  V  V76  1  0.62075720  0.75428775  0.37955740  1
  V  V77  1  0.62601993  0.75188499  0.88142826  1
  V  V78  1  0.24994366  0.62535844  0.37371578  1
  V  V79  1  0.87428667  0.62092970  0.26080441  1
  V  V80  1  0.62601638  0.49638315  0.12929757  1
  V  V81  1  0.75008027  0.87987713  0.62257560  1
  V  V82  1  0.53346733  0.74094314  0.72911108  1
  V  V83  1  -0.00377584  0.24866757  0.75292761  1
  V  V84  1  0.85449466  0.12479929  0.75893377  1
  Zn  Zn85  1  0.37085717  0.36762559  -0.00929149  1
  Zn  Zn86  1  0.12474111  0.49888534  0.62201024  1
  Zn  Zn87  1  0.37439566  0.24587439  0.62284553  1
  Zn  Zn88  1  0.86865640  0.26318636  0.62522386  1
  Zn  Zn89  1  0.85877348  0.00419448  0.87651924  1
  Zn  Zn90  1  0.62277757  0.38458430  0.73610604  1
  Zn  Zn91  1  0.73330146  0.26269026  0.50070233  1
  Zn  Zn92  1  0.00742463  0.74387798  0.75759866  1
  Zn  Zn93  1  0.38134863  -0.01176082  0.36790948  1
  Zn  Zn94  1  0.74819170  0.62427664  0.87566802  1
  Zn  Zn95  1  0.75836403  0.49408278  0.25804150  1
  Zn  Zn96  1  0.12386784  0.87314295  0.75301297  1
  Zn  Zn97  1  0.74425403  0.61975444  0.38038419  1
  Zn  Zn98  1  0.49937686  -0.00392081  0.00258328  1
  Zn  Zn99  1  0.25023823  0.49521674  0.25015282  1
  Zn  Zn100  1  0.36711154  0.87492481  0.00132046  1
  Zn  Zn101  1  0.37342203  0.24638387  0.11552723  1
  Zn  Zn102  1  0.37827664  0.00105204  0.87661565  1
  Zn  Zn103  1  0.12985809  0.75816647  0.37021016  1
  Zn  Zn104  1  0.24815461  0.75315535  0.49788117  1
  Zn  Zn105  1  0.36708947  0.75475984  0.12223262  1
  Zn  Zn106  1  0.24833809  0.75728659  0.00199243  1
  Zn  Zn107  1  0.18739759  0.18200443  0.18865683  1
  Zn  Zn108  1  0.18590406  0.19027912  0.68661307  1
  Zn  Zn109  1  0.19082561  0.69146443  0.18375344  1
  Zn  Zn110  1  0.18533032  0.69067957  0.69088209  1
  Zn  Zn111  1  0.68853738  0.18666811  0.18987737  1
  Zn  Zn112  1  0.68121670  0.22015430  0.67129674  1
  Zn  Zn113  1  0.68462559  0.68859501  0.19281040  1
  Zn  Zn114  1  0.69750242  0.68995141  0.68771953  1
  Zn  Zn115  1  0.30931581  0.31111461  0.30782076  1
  Zn  Zn116  1  0.31454526  0.30993313  0.81089399  1
  Zn  Zn117  1  0.31698236  0.80748779  0.31197713  1
  Zn  Zn118  1  0.29614393  0.82379380  0.83540010  1
  Zn  Zn119  1  0.81349939  0.31337715  0.32143320  1
  Zn  Zn120  1  0.81011743  0.31344450  0.81401612  1
  Zn  Zn121  1  0.81085449  0.81296255  0.31228961  1
  Zn  Zn122  1  0.82072029  0.80621796  0.82044677  1
  Zn  Zn123  1  0.18567270  0.43934499  0.43513500  1
  Zn  Zn124  1  0.18850556  0.44213907  0.93954024  1
  Zn  Zn125  1  0.18563141  0.94987639  0.44021829  1
  Zn  Zn126  1  0.18540246  0.94339877  0.93876249  1
  Zn  Zn127  1  0.68553715  0.44586095  0.43692830  1
  Zn  Zn128  1  0.68650454  0.43368127  0.93621414  1
  Zn  Zn129  1  0.68565196  0.93481231  0.43449170  1
  Zn  Zn130  1  0.68087985  0.93198593  0.95874573  1
  Zn  Zn131  1  0.31487877  0.05765709  0.06152284  1
  Zn  Zn132  1  0.31701792  0.05867880  0.56137268  1
  Zn  Zn133  1  0.31239651  0.56036419  0.06121361  1
  Zn  Zn134  1  0.31441000  0.56239776  0.56195441  1
  Zn  Zn135  1  0.81060127  0.06016072  0.07337244  1
  Zn  Zn136  1  0.79652107  0.09369216  0.57734061  1
  Zn  Zn137  1  0.81191721  0.56095734  0.07047144  1
  Zn  Zn138  1  0.82064003  0.55817458  0.55883324  1
  Zn  Zn139  1  0.43629197  0.43571661  0.18884162  1
  Zn  Zn140  1  0.43321343  0.43704286  0.68577091  1
  Zn  Zn141  1  0.43607833  0.93800155  0.18269442  1
  Zn  Zn142  1  0.44233904  0.93086846  0.68743545  1
  Zn  Zn143  1  0.94225156  0.43543956  0.19236542  1
  Zn  Zn144  1  0.93497756  0.43797418  0.68171966  1
  Zn  Zn145  1  0.93255600  0.94520401  0.19036333  1
  Zn  Zn146  1  0.92789451  0.94569293  0.69064166  1
  Zn  Zn147  1  0.06006229  0.06809348  0.31268694  1
  Zn  Zn148  1  0.06247441  0.06037382  0.81635340  1
  Zn  Zn149  1  0.06430472  0.56634162  0.30820348  1
  Zn  Zn150  1  0.06191328  0.55872827  0.81154209  1
  Zn  Zn151  1  0.56547051  0.04977816  0.30365353  1
  Zn  Zn152  1  0.56675734  0.07423795  0.81506290  1
  Zn  Zn153  1  0.56807618  0.56081341  0.31980523  1
  Zn  Zn154  1  0.56341439  0.56490439  0.81255155  1
  Zn  Zn155  1  0.43697987  0.18500703  0.43520617  1
  Zn  Zn156  1  0.43916484  0.19017043  0.93864750  1
  Zn  Zn157  1  0.43883250  0.68904553  0.44037655  1
  Zn  Zn158  1  0.43859382  0.68940929  0.93414168  1
  Zn  Zn159  1  0.92779260  0.19357993  0.43349909  1
  Zn  Zn160  1  0.93472479  0.18575494  0.93917908  1
  Zn  Zn161  1  0.94148403  0.69371991  0.43699431  1
  Zn  Zn162  1  0.93555161  0.68824729  0.94008651  1
  Zn  Zn163  1  0.06300441  0.31108281  0.06866322  1
  Zn  Zn164  1  0.05970774  0.31079328  0.56226624  1
  Zn  Zn165  1  0.05995555  0.81211870  0.06102595  1
  Zn  Zn166  1  0.06304296  0.81260302  0.56253453  1
  Zn  Zn167  1  0.56167373  0.30611464  0.06777518  1
  Zn  Zn168  1  0.56157716  0.31385437  0.56560037  1
  Zn  Zn169  1  0.53118328  0.81868422  0.06774342  1
  Zn  Zn170  1  0.56788750  0.80197578  0.56890355  1
  O  O171  1  0.11725161  0.12008886  0.11741425  1
  O  O172  1  0.10915649  0.12220436  0.63346651  1
  O  O173  1  0.11873451  0.61708513  0.11842539  1
  O  O174  1  0.11921278  0.62393768  0.61554405  1
  O  O175  1  0.61813731  0.13800562  0.11150877  1
  O  O176  1  0.61753148  0.11768982  0.61212428  1
  O  O177  1  0.61910448  0.61565238  0.12428979  1
  O  O178  1  0.59390866  0.70782709  0.64489437  1
  O  O179  1  0.38270302  0.38170012  0.37659536  1
  O  O180  1  0.36999083  0.39040578  0.87060057  1
  O  O181  1  0.37297769  0.86951762  0.39259913  1
  O  O182  1  0.39613696  0.87881022  0.86001579  1
  O  O183  1  0.88147127  0.37548300  0.38914953  1
  O  O184  1  0.88000373  0.38168112  0.88245282  1
  O  O185  1  0.88154217  0.87327791  0.38701941  1
  O  O186  1  0.87936935  0.87944010  0.89033465  1
  O  O187  1  0.25988536  0.00268964  0.36646731  1
  O  O188  1  0.24806178  0.01447390  0.86124148  1
  O  O189  1  0.25929764  0.50991595  0.37438045  1
  O  O190  1  0.25716308  0.50519794  0.86732646  1
  O  O191  1  0.74835903  0.00251273  0.36415981  1
  O  O192  1  0.74008898  -0.01611221  0.87005490  1
  O  O193  1  0.74577450  0.50798731  0.36870706  1
  O  O194  1  0.76160877  0.50221351  0.87596482  1
  O  O195  1  0.24210988  0.49271836  0.12748231  1
  O  O196  1  0.24860837  0.48976027  0.62814562  1
  O  O197  1  0.24116291  1.00310440  0.13368507  1
  O  O198  1  0.24367269  0.99925925  0.63253822  1
  O  O199  1  0.74503418  0.48936253  0.13331051  1
  O  O200  1  0.75180917  0.50541180  0.63474346  1
  O  O201  1  0.74075313  0.98034864  0.11780333  1
  O  O202  1  0.73926902  0.99830648  0.61955049  1
  O  O203  1  0.02034740  0.37431315  0.24410485  1
  O  O204  1  0.00236395  0.36627536  0.75437538  1
  O  O205  1  -0.00810955  0.87256410  0.26024361  1
  O  O206  1  -0.01056054  0.88003632  0.76686252  1
  O  O207  1  0.50378972  0.36670430  0.25711100  1
  O  O208  1  0.50132454  0.35966942  0.73964844  1
  O  O209  1  0.49516096  0.86201271  0.25368070  1
  O  O210  1  0.51293577  0.86096344  0.75447135  1
  O  O211  1  0.49603968  0.12878908  0.24616417  1
  O  O212  1  0.49242021  0.12725875  0.74134752  1
  O  O213  1  0.48991296  0.61982181  0.24690089  1
  O  O214  1  0.49209219  0.64141281  0.75573285  1
  O  O215  1  0.99662873  0.11571000  0.23169746  1
  O  O216  1  0.99844566  0.13738704  0.75341108  1
  O  O217  1  0.99062499  0.63418421  0.24576620  1
  O  O218  1  0.99377325  0.62275610  0.74224190  1
  O  O219  1  0.37819431  0.25616349  0.00255998  1
  O  O220  1  0.36793218  0.25523694  0.50057389  1
  O  O221  1  0.37265781  0.75186442  -0.00091239  1
  O  O222  1  0.37101793  0.75497645  0.51067402  1
  O  O223  1  0.86696830  0.25627634  0.00390247  1
  O  O224  1  0.88410484  0.26992635  0.50078364  1
  O  O225  1  0.86856635  0.75618613  0.00906441  1
  O  O226  1  0.87075441  0.76066562  0.50480726  1
  O  O227  1  0.13081124  0.23379814  0.50372000  1
  O  O228  1  0.12047446  0.23806851  0.99562132  1
  O  O229  1  0.12550240  0.73823486  0.49614201  1
  O  O230  1  0.12239542  0.73528906  1.00104629  1
  O  O231  1  0.61775365  0.23079657  0.49531907  1
  O  O232  1  0.63153517  0.24758345  0.99417192  1
  O  O233  1  0.63491476  0.75186733  0.48852257  1
  O  O234  1  0.62640488  0.74520674  0.99537292  1
  O  O235  1  0.49649310  0.24157019  0.13868531  1
  O  O236  1  0.49585563  0.23316511  0.62896374  1
  O  O237  1  0.50616548  0.73084639  0.14185768  1
  O  O238  1  0.47051546  0.77454371  0.63902956  1
  O  O239  1  0.99020426  0.23929062  0.12009383  1
  O  O240  1  0.99767405  0.24360622  0.63627373  1
  O  O241  1  0.99410619  0.74670589  0.13170838  1
  O  O242  1  0.99374399  0.73854567  0.62167825  1
  O  O243  1  0.02774249  0.17672063  0.38497267  1
  O  O244  1  0.00435321  0.25626564  0.87088435  1
  O  O245  1  0.00340488  0.76309062  0.36744604  1
  O  O246  1  -0.00870890  0.76685580  0.87638928  1
  O  O247  1  0.49312867  0.25681914  0.36303823  1
  O  O248  1  0.50791865  0.24701541  0.86455055  1
  O  O249  1  0.50770147  0.74683020  0.36596234  1
  O  O250  1  0.51274568  0.75808270  0.86482561  1
  O  O251  1  0.25968897  0.12999281  0.49044228  1
  O  O252  1  0.24166050  0.11872581  0.99027898  1
  O  O253  1  0.24172262  0.62471651  0.49250642  1
  O  O254  1  0.23946248  0.61860262  0.99141801  1
  O  O255  1  0.73005977  0.10951575  0.47999628  1
  O  O256  1  0.73817819  0.13222413  1.00867729  1
  O  O257  1  0.75975868  0.63895904  0.50336382  1
  O  O258  1  0.74211663  0.62949055  1.00567422  1
  O  O259  1  0.24938975  0.38034615  0.01557257  1
  O  O260  1  0.25191595  0.36692206  0.50353472  1
  O  O261  1  0.26138253  0.86339016  -0.05001234  1
  O  O262  1  0.25531772  0.87904195  0.50816787  1
  O  O263  1  0.75460234  0.36749036  0.00821249  1
  O  O264  1  0.76038760  0.37586952  0.49371522  1
  O  O265  1  0.75503747  0.86579254  0.01514419  1
  O  O266  1  0.75759895  0.87024125  0.50518443  1
  O  O267  1  0.12707022  0.50180932  0.23665773  1
  O  O268  1  0.13082513  0.49068604  0.74607978  1
  O  O269  1  0.13573706  1.00467833  0.24018388  1
  O  O270  1  0.13109870  0.99791118  0.74293719  1
  O  O271  1  0.61967025  0.48444117  0.24442592  1
  O  O272  1  0.63978469  0.50203561  0.75174705  1
  O  O273  1  0.64386590  0.99962158  0.24004067  1
  O  O274  1  0.62827109  1.00484741  0.74141870  1
  O  O275  1  0.36884075  0.00439678  0.24781723  1
  O  O276  1  0.36813474  0.00967472  0.74789076  1
  O  O277  1  0.37556189  0.50451142  0.26346078  1
  O  O278  1  0.37271221  0.51060392  0.75386498  1
  O  O279  1  0.84448126  0.00602159  0.22718745  1
  O  O280  1  0.86974837  0.01840937  0.75790870  1
  O  O281  1  0.87883857  0.51724196  0.24433592  1
  O  O282  1  0.86922183  0.50763884  0.75560747  1
  O  O283  1  0.13258586  0.37560270  0.35894734  1
  O  O284  1  0.12036249  0.37196305  0.87166057  1
  O  O285  1  0.11281020  0.87723085  0.38413718  1
  O  O286  1  0.10305777  0.88449696  0.87520371  1
  O  O287  1  0.61220816  0.37582573  0.37062433  1
  O  O288  1  0.62927521  0.36221011  0.86482011  1
  O  O289  1  0.63080303  0.85542476  0.37247863  1
  O  O290  1  0.62864564  0.87219003  0.86667481  1
  O  O291  1  0.38161822  0.12492099  0.13335444  1
  O  O292  1  0.38391629  0.12255539  0.63146346  1
  O  O293  1  0.38302840  0.62108937  0.13412175  1
  O  O294  1  0.36632592  0.63618900  0.63459438  1
  O  O295  1  0.88504145  0.13551469  0.11541161  1
  O  O296  1  0.88890915  0.12175112  0.64524305  1
  O  O297  1  0.88224893  0.63388890  0.13027356  1
  O  O298  1  0.88347304  0.62898099  0.63165481  1
  O  O299  1  0.24912098  0.26169507  0.12664931  1
  O  O300  1  0.25061199  0.25349482  0.61244446  1
  O  O301  1  0.25345619  0.75134756  0.11712759  1
  O  O302  1  0.25383261  0.76179949  0.62276743  1
  O  O303  1  0.75744807  0.25398997  0.11811361  1
  O  O304  1  0.76777573  0.21044628  0.59798812  1
  O  O305  1  0.75269341  0.76080363  0.12643137  1
  O  O306  1  0.75977526  0.76031055  0.61732431  1
  O  O307  1  0.25675026  0.24013990  0.38551462  1
  O  O308  1  0.24375880  0.23831879  0.86855751  1
  O  O309  1  0.24923532  0.73832861  0.37610955  1
  O  O310  1  0.24587401  0.72692905  0.87114509  1
  O  O311  1  0.75232580  0.23374284  0.38250138  1
  O  O312  1  0.74417508  0.25442587  0.88982664  1
  O  O313  1  0.74415722  0.74710241  0.38245876  1
  O  O314  1  0.74723901  0.74719325  0.89011069  1
  O  O315  1  0.00704037  0.11853766  0.00302109  1
  O  O316  1  -0.00894495  0.12093104  0.51757472  1
  O  O317  1  0.00471769  0.61899643  0.00443812  1
  O  O318  1  0.00499959  0.61867075  0.50377016  1
  O  O319  1  0.51126195  0.12600990  0.00775549  1
  O  O320  1  0.50521228  0.11421426  0.50340190  1
  O  O321  1  0.50522515  0.61784744  0.00970972  1
  O  O322  1  0.49673621  0.61263873  0.50103795  1
  O  O323  1  0.49363283  0.37353975  0.49385651  1
  O  O324  1  0.50075616  0.38692614  1.00778479  1
  O  O325  1  0.49266631  0.88024010  0.51253560  1
  O  O326  1  0.51498281  0.87908046  0.97089992  1
  O  O327  1  1.00866689  0.39043714  0.49772166  1
  O  O328  1  0.99571803  0.38035643  0.99725883  1
  O  O329  1  0.99322857  0.88428768  0.49568206  1
  O  O330  1  0.99177732  0.88192321  0.99308917  1
  O  O331  1  0.49460029  0.49143481  0.38476919  1
  O  O332  1  0.49320227  0.50600567  0.88444752  1
  O  O333  1  0.50056422  0.99686417  0.38588856  1
  O  O334  1  0.50416827  0.98878872  0.86369341  1
  O  O335  1  1.00369147  0.50568011  0.38461365  1
  O  O336  1  0.98806221  0.49397499  0.87908572  1
  O  O337  1  1.00042388  0.99656575  0.38610860  1
  O  O338  1  0.99431804  0.99552977  0.88803193  1
  O  O339  1  0.00401682  0.00613567  0.11375626  1
  O  O340  1  0.00333262  0.00536089  0.62142637  1
  O  O341  1  0.00657033  0.50549969  0.11977443  1
  O  O342  1  0.00272363  0.51290728  0.61865981  1
  O  O343  1  0.50143412  0.01602219  0.12624943  1
  O  O344  1  0.51006649  0.00524981  0.62040200  1
  O  O345  1  0.50348701  0.50644295  0.12000732  1
  O  O346  1  0.49433691  0.49607016  0.61177156  1
  O  O347  1  0.24020762  0.37597146  0.23931816  1
  O  O348  1  0.24607509  0.37686405  0.74030560  1
  O  O349  1  0.25661345  0.88452908  0.25342824  1
  O  O350  1  0.24835327  0.88765429  0.74582855  1
  O  O351  1  0.74152225  0.37138925  0.24852341  1
  O  O352  1  0.75558523  0.39442962  0.75169634  1
  O  O353  1  0.74992929  0.88066010  0.23872519  1
  O  O354  1  0.75862959  0.87201420  0.74272330  1
  O  O355  1  0.26090734  0.11884600  0.25463943  1
  O  O356  1  0.25730502  0.12212061  0.75254899  1
  O  O357  1  0.26284379  0.62312048  0.25665439  1
  O  O358  1  0.25317891  0.61500768  0.75392514  1
  O  O359  1  0.74156456  0.11810742  0.26624668  1
  O  O360  1  0.75859000  0.13821760  0.74700370  1
  O  O361  1  0.76821882  0.62831099  0.24613404  1
  O  O362  1  0.75957853  0.61557834  0.75145679  1
  O  O363  1  0.37265062  0.11867384  0.36278918  1
  O  O364  1  0.36858250  0.12308485  0.86677333  1
  O  O365  1  0.37088827  0.61900721  0.37114795  1
  O  O366  1  0.36808396  0.61490057  0.86820397  1
  O  O367  1  0.85905444  0.11842548  0.37949035  1
  O  O368  1  0.87120054  0.12607070  0.86461795  1
  O  O369  1  0.87565342  0.63297718  0.36208942  1
  O  O370  1  0.87548453  0.61729341  0.86763787  1
  O  O371  1  0.13486382  0.38001577  0.12973181  1
  O  O372  1  0.13515593  0.37298325  0.62876036  1
  O  O373  1  0.12033862  0.89072939  0.11554228  1
  O  O374  1  0.13491404  0.88593905  0.61907489  1
  O  O375  1  0.63108783  0.37643596  0.13360040  1
  O  O376  1  0.64293630  0.32853396  0.63883671  1
  O  O377  1  0.62682767  0.86742756  0.12114090  1
  O  O378  1  0.64182793  0.88323822  0.62349948  1
  O  O379  1  0.12719743  0.25595179  0.25068488  1
  O  O380  1  0.11686431  0.25596147  0.75808175  1
  O  O381  1  0.10966514  0.74404531  0.25035651  1
  O  O382  1  0.11735199  0.76062747  0.74323863  1
  O  O383  1  0.61618523  0.26107423  0.24775177  1
  O  O384  1  0.61304665  0.23193564  0.76413012  1
  O  O385  1  0.61068367  0.74957445  0.25753596  1
  O  O386  1  0.63805653  0.74573357  0.77486091  1
  O  O387  1  0.38095794  0.23960876  0.24600245  1
  O  O388  1  0.38221051  0.23797779  0.74794099  1
  O  O389  1  0.38879457  0.74038114  0.24949201  1
  O  O390  1  0.36044862  0.73792259  0.74922641  1
  O  O391  1  0.87052774  0.25241182  0.24071537  1
  O  O392  1  0.88042028  0.24529357  0.74946329  1
  O  O393  1  0.88432157  0.74511767  0.24628848  1
  O  O394  1  0.87914403  0.73679613  0.74605150  1
  O  O395  1  0.37936358  0.49357004  0.49039730  1
  O  O396  1  0.38381796  0.49659876  0.99074536  1
  O  O397  1  0.38642409  0.98983167  0.49950665  1
  O  O398  1  0.38145512  0.99383668  0.99375027  1
  O  O399  1  0.89099134  0.49160783  0.49842542  1
  O  O400  1  0.87900077  0.49526654  0.99520453  1
  O  O401  1  0.88320680  0.99574796  0.50955962  1
  O  O402  1  0.87908163  0.99424115  1.00028559  1
  O  O403  1  0.11766197  0.01103868  0.00416408  1
  O  O404  1  0.11074502  0.02394450  0.50295138  1
  O  O405  1  0.11806343  0.50457762  0.01141303  1
  O  O406  1  0.11677437  0.51080935  0.49968596  1
  O  O407  1  0.61963535  0.01736279  -0.00014798  1
  O  O408  1  0.61727040  0.00246524  0.50511519  1
  O  O409  1  0.61929383  0.50246467  0.00609162  1
  O  O410  1  0.61015438  0.49805027  0.50415900  1
  O  O411  1  0.35872382  0.37589979  0.12819654  1
  O  O412  1  0.36162605  0.37045022  0.61945209  1
  O  O413  1  0.42004930  0.85977888  0.10488290  1
  O  O414  1  0.35971545  0.87603594  0.61990734  1
  O  O415  1  0.87117961  0.36879388  0.12248024  1
  O  O416  1  0.88210008  0.37669308  0.60460801  1
  O  O417  1  0.87822684  0.86970905  0.11502038  1
  O  O418  1  0.86745581  0.87468539  0.61783165  1
  O  O419  1  0.15216411  0.10811691  0.37483936  1
  O  O420  1  0.13190749  0.13000257  0.88252255  1
  O  O421  1  0.13471139  0.62657574  0.37958729  1
  O  O422  1  0.13096082  0.61061932  0.88680136  1
  O  O423  1  0.61919460  0.11941178  0.38188415  1
  O  O424  1  0.62400608  0.13696820  0.89320413  1
  O  O425  1  0.62947871  0.64363803  0.36633039  1
  O  O426  1  0.62678556  0.63242300  0.88671135  1
