# generated using pymatgen
data_V85Zn86O256
_symmetry_space_group_name_H-M   'P 1'
_cell_length_a   16.91388187
_cell_length_b   16.91356395
_cell_length_c   16.91870709
_cell_angle_alpha   89.98753440
_cell_angle_beta   90.09952470
_cell_angle_gamma   89.95588323
_symmetry_Int_Tables_number   1
_chemical_formula_structural   V85Zn86O256
_chemical_formula_sum   'V85 Zn86 O256'
_cell_volume   4839.99374199
_cell_formula_units_Z   1
loop_
 _symmetry_equiv_pos_site_id
 _symmetry_equiv_pos_as_xyz
  1  'x, y, z'
loop_
 _atom_site_type_symbol
 _atom_site_label
 _atom_site_symmetry_multiplicity
 _atom_site_fract_x
 _atom_site_fract_y
 _atom_site_fract_z
 _atom_site_occupancy
  V  V0  1  0.75516233  0.10982254  0.87190058  1
  V  V1  1  0.75043529  0.25172123  -0.00301342  1
  V  V2  1  0.37261139  0.74088657  0.12937596  1
  V  V3  1  0.74765914  0.74906853  0.49073002  1
  V  V4  1  0.63121673  0.12869385  0.50352411  1
  V  V5  1  -0.00596886  0.37974288  0.87152214  1
  V  V6  1  0.63169916  0.50175122  0.62553088  1
  V  V7  1  0.37238224  0.13038645  0.74482546  1
  V  V8  1  0.11638426  0.74697151  0.86781541  1
  V  V9  1  0.49717943  0.13220150  0.62503989  1
  V  V10  1  0.50385808  0.24702148  0.24626005  1
  V  V11  1  0.37696835  0.87430470  0.50136001  1
  V  V12  1  0.75064537  0.50411738  0.26496815  1
  V  V13  1  0.87397316  0.38816251  -0.00482863  1
  V  V14  1  0.37246113  0.37689949  0.00152816  1
  V  V15  1  0.24124963  0.74413433  -0.00077390  1
  V  V16  1  0.12375647  0.26277289  0.37337989  1
  V  V17  1  0.13167063  0.50068167  0.62308718  1
  V  V18  1  0.50455590  0.00055578  0.50238974  1
  V  V19  1  0.74369149  0.87766412  0.12494971  1
  V  V20  1  0.37900951  0.24508145  0.12349564  1
  V  V21  1  0.37488818  0.75102296  0.62607257  1
  V  V22  1  0.24429767  0.49028321  0.25203830  1
  V  V23  1  0.88164755  0.00046824  0.37595380  1
  V  V24  1  0.87761277  0.87764992  0.50158941  1
  V  V25  1  0.36965418  0.61843547  0.74959755  1
  V  V26  1  0.00408740  0.87511870  0.37880657  1
  V  V27  1  0.50633481  0.74836663  0.75490415  1
  V  V28  1  0.00465745  0.26488585  0.25141469  1
  V  V29  1  0.62077275  0.62977379  -0.00599070  1
  V  V30  1  0.87057680  0.74922861  0.12631336  1
  V  V31  1  0.12182046  0.49524767  0.12140318  1
  V  V32  1  0.74850034  0.38266752  0.12447467  1
  V  V33  1  -0.00617304  0.25186827  0.73184090  1
  V  V34  1  0.24668170  0.74854867  0.49567821  1
  V  V35  1  0.87049321  0.62314545  0.26303244  1
  V  V36  1  0.62492257  0.24846395  0.87316257  1
  V  V37  1  0.76238289  0.50264304  0.75475097  1
  V  V38  1  0.62125266  0.12261121  0.01143302  1
  V  V39  1  0.62855195  0.25157690  0.37701616  1
  V  V40  1  0.25320400  0.62698062  0.36678226  1
  V  V41  1  0.11693480  0.87975948  0.74386479  1
  V  V42  1  0.49969888  0.00332632  0.01381894  1
  V  V43  1  0.00085251  0.62626150  0.62993421  1
  V  V44  1  0.12589400  0.11346221  0.50199021  1
  V  V45  1  0.24713348  0.24872355  0.00093498  1
  V  V46  1  -0.00982315  0.49785254  0.48708851  1
  V  V47  1  0.87580827  0.36225235  0.49035743  1
  V  V48  1  0.62970172  0.62805082  0.48959943  1
  V  V49  1  0.24563335  0.12258121  0.87275460  1
  V  V50  1  0.76042169  0.36338461  0.62338221  1
  V  V51  1  0.24935470  0.12767848  0.37361780  1
  V  V52  1  0.87228220  0.87856130  -0.00530402  1
  V  V53  1  0.87728761  0.74959599  0.63506825  1
  V  V54  1  -0.00441024  -0.00105055  -0.00302297  1
  V  V55  1  0.87621146  0.25315370  0.12324716  1
  V  V56  1  0.12225384  0.12270898  -0.00353812  1
  V  V57  1  0.00355581  0.62596490  0.12034599  1
  V  V58  1  0.12070600  0.24852068  0.87263164  1
  V  V59  1  0.13025611  0.37938938  0.74948845  1
  V  V60  1  0.50182922  0.87183727  0.87681405  1
  V  V61  1  0.12540608  0.87019522  0.25315817  1
  V  V62  1  0.12326241  0.62627475  0.49111511  1
  V  V63  1  0.00300321  0.74717277  0.25633648  1
  V  V64  1  0.49916239  0.37638501  0.87337596  1
  V  V65  1  0.50384232  0.62473803  0.62469455  1
  V  V66  1  0.87759822  0.12619069  0.24998024  1
  V  V67  1  0.37247940  0.00019724  0.87267062  1
  V  V68  1  0.24553040  0.61828059  0.87370114  1
  V  V69  1  0.62586304  0.87101765  0.25239486  1
  V  V70  1  0.75405082  0.12993363  0.37974301  1
  V  V71  1  0.00115025  0.12571531  0.12582866  1
  V  V72  1  0.75009130  0.88143352  0.63022242  1
  V  V73  1  0.38040272  0.12369313  0.24641432  1
  V  V74  1  0.50830544  0.86966561  0.37809870  1
  V  V75  1  0.62841123  0.88089562  0.75528491  1
  V  V76  1  0.24952749  -0.00145985  0.24811172  1
  V  V77  1  -0.00124567  0.10765237  0.61739174  1
  V  V78  1  0.49893858  0.74249040  0.25259538  1
  V  V79  1  0.37864941  0.50147857  0.37016033  1
  V  V80  1  0.25623569  0.36930964  0.62804182  1
  V  V81  1  0.74515915  0.00217204  0.24631523  1
  V  V82  1  0.37905581  0.00057203  0.37500565  1
  V  V83  1  0.37069799  0.87225499  0.00055926  1
  V  V84  1  0.37856956  0.36946960  0.50200225  1
  Zn  Zn85  1  0.24305320  0.87895539  0.62313027  1
  Zn  Zn86  1  0.00092538  0.51127986  -0.01047986  1
  Zn  Zn87  1  0.24713153  0.87129609  0.12549835  1
  Zn  Zn88  1  0.88500019  0.62635013  0.76267292  1
  Zn  Zn89  1  0.86517315  0.11781702  0.74155318  1
  Zn  Zn90  1  0.75275185  0.63096125  0.87626133  1
  Zn  Zn91  1  0.63079298  0.00501947  0.63347959  1
  Zn  Zn92  1  0.24232182  0.00042311  0.73971563  1
  Zn  Zn93  1  0.61997875  0.50142011  0.12537381  1
  Zn  Zn94  1  0.73896473  0.75335276  -0.00572811  1
  Zn  Zn95  1  0.49585166  0.25361725  0.74583303  1
  Zn  Zn96  1  0.50290534  0.49962622  0.49844521  1
  Zn  Zn97  1  0.36854681  0.49626848  0.87081738  1
  Zn  Zn98  1  0.12490288  -0.00192008  0.12532854  1
  Zn  Zn99  1  0.50223678  0.37446389  0.37661012  1
  Zn  Zn100  1  0.24337586  0.36975450  0.12998687  1
  Zn  Zn101  1  0.49758673  0.61890336  0.12771032  1
  Zn  Zn102  1  0.62475394  0.37612816  0.24940531  1
  Zn  Zn103  1  0.49848925  0.49955582  0.00454449  1
  Zn  Zn104  1  -0.00637205  0.87302766  0.86935835  1
  Zn  Zn105  1  0.62685979  0.37519108  0.74800328  1
  Zn  Zn106  1  0.25258724  0.24836931  0.50478245  1
  Zn  Zn107  1  0.18631186  0.18808150  0.18831193  1
  Zn  Zn108  1  0.18331369  0.18812653  0.68676819  1
  Zn  Zn109  1  0.18483474  0.68442285  0.18780936  1
  Zn  Zn110  1  0.18705287  0.68996796  0.68620606  1
  Zn  Zn111  1  0.69085386  0.19094338  0.18756860  1
  Zn  Zn112  1  0.68696720  0.18746911  0.69218536  1
  Zn  Zn113  1  0.68298394  0.68533606  0.18421963  1
  Zn  Zn114  1  0.69080054  0.69004058  0.68695091  1
  Zn  Zn115  1  0.31563708  0.31293502  0.31417329  1
  Zn  Zn116  1  0.30987484  0.31131132  0.81317472  1
  Zn  Zn117  1  0.31621262  0.81217216  0.31499979  1
  Zn  Zn118  1  0.30729994  0.81051730  0.81068382  1
  Zn  Zn119  1  0.81478115  0.31469473  0.31098836  1
  Zn  Zn120  1  0.81377002  0.30991696  0.80866442  1
  Zn  Zn121  1  0.81456799  0.81238938  0.31218918  1
  Zn  Zn122  1  0.80771370  0.80857225  0.81577851  1
  Zn  Zn123  1  0.19162174  0.44018055  0.44236864  1
  Zn  Zn124  1  0.18355408  0.43763997  0.94014825  1
  Zn  Zn125  1  0.19066566  0.93573397  0.43530983  1
  Zn  Zn126  1  0.18325757  0.93517007  0.93334221  1
  Zn  Zn127  1  0.69187473  0.43518229  0.44335863  1
  Zn  Zn128  1  0.68268947  0.44211425  0.93791283  1
  Zn  Zn129  1  0.69100645  0.94026924  0.43776024  1
  Zn  Zn130  1  0.68157860  0.93733825  0.94081303  1
  Zn  Zn131  1  0.31243660  0.06181904  0.06237521  1
  Zn  Zn132  1  0.31208174  0.06122377  0.56328715  1
  Zn  Zn133  1  0.30768269  0.56167285  0.06278020  1
  Zn  Zn134  1  0.31389836  0.55997160  0.55824485  1
  Zn  Zn135  1  0.80978309  0.06388308  0.06058408  1
  Zn  Zn136  1  0.81628825  0.06177936  0.56134571  1
  Zn  Zn137  1  0.80931819  0.56791488  0.06382222  1
  Zn  Zn138  1  0.81351351  0.56373800  0.56393153  1
  Zn  Zn139  1  0.43540227  0.43350545  0.19028445  1
  Zn  Zn140  1  0.44091118  0.43876649  0.68560156  1
  Zn  Zn141  1  0.43500690  0.92892995  0.18837521  1
  Zn  Zn142  1  0.43747234  0.94146681  0.68771838  1
  Zn  Zn143  1  0.93261170  0.44299679  0.18697264  1
  Zn  Zn144  1  0.94062548  0.43892758  0.67913962  1
  Zn  Zn145  1  0.93565460  0.93763149  0.18614590  1
  Zn  Zn146  1  0.93674173  0.93752579  0.68989528  1
  Zn  Zn147  1  0.06437706  0.06422414  0.31297875  1
  Zn  Zn148  1  0.02818061  0.04715214  0.79492749  1
  Zn  Zn149  1  0.06431131  0.56108091  0.30927068  1
  Zn  Zn150  1  0.06586431  0.56147268  0.81055615  1
  Zn  Zn151  1  0.56536330  0.06226928  0.31193814  1
  Zn  Zn152  1  0.55950893  0.06305286  0.81809225  1
  Zn  Zn153  1  0.56644429  0.56015913  0.31252486  1
  Zn  Zn154  1  0.56387314  0.55864511  0.81274281  1
  Zn  Zn155  1  0.44042528  0.18935303  0.43722352  1
  Zn  Zn156  1  0.43817054  0.18705906  0.93637996  1
  Zn  Zn157  1  0.43910495  0.68506522  0.43770366  1
  Zn  Zn158  1  0.43472464  0.68520772  0.93794913  1
  Zn  Zn159  1  0.94500788  0.18915695  0.43742091  1
  Zn  Zn160  1  0.93564078  0.19276254  0.93453319  1
  Zn  Zn161  1  0.93699395  0.69053663  0.44267914  1
  Zn  Zn162  1  0.92887998  0.68891765  0.93869929  1
  Zn  Zn163  1  0.06017725  0.31599775  0.06039546  1
  Zn  Zn164  1  0.06665870  0.31661907  0.55364302  1
  Zn  Zn165  1  0.06136178  0.81173308  0.06518407  1
  Zn  Zn166  1  0.06173970  0.81030704  0.56119774  1
  Zn  Zn167  1  0.56203934  0.31261885  0.06157219  1
  Zn  Zn168  1  0.56755795  0.31390301  0.56213371  1
  Zn  Zn169  1  0.55959170  0.81165818  0.06645066  1
  Zn  Zn170  1  0.56689261  0.81153606  0.56733464  1
  O  O171  1  0.11639271  0.12470971  0.11730901  1
  O  O172  1  0.12138494  0.13043495  0.60691672  1
  O  O173  1  0.11429045  0.61410279  0.13031837  1
  O  O174  1  0.12156323  0.62003944  0.61519490  1
  O  O175  1  0.63100404  0.13061021  0.11085787  1
  O  O176  1  0.62262160  0.12333048  0.61888001  1
  O  O177  1  0.61820269  0.62194767  0.11496913  1
  O  O178  1  0.62329082  0.61962887  0.61983963  1
  O  O179  1  0.37636707  0.38250153  0.38354352  1
  O  O180  1  0.37944526  0.37423399  0.88219059  1
  O  O181  1  0.38475953  0.88205625  0.38227753  1
  O  O182  1  0.37946773  0.87967814  0.88019920  1
  O  O183  1  0.86945745  0.37509577  0.39084988  1
  O  O184  1  0.88262409  0.36943915  0.88173376  1
  O  O185  1  0.88211197  0.88158768  0.38011851  1
  O  O186  1  0.87617702  0.86943500  0.89082857  1
  O  O187  1  0.25551451  0.00904103  0.36554641  1
  O  O188  1  0.25957499  0.00369083  0.87383492  1
  O  O189  1  0.25384397  0.50636955  0.36874343  1
  O  O190  1  0.24617222  0.51346634  0.87830620  1
  O  O191  1  0.76041465  0.00826064  0.36686912  1
  O  O192  1  0.74737923  0.01126783  0.88031082  1
  O  O193  1  0.74760977  0.49806675  0.36342474  1
  O  O194  1  0.74508052  0.49603002  0.85572112  1
  O  O195  1  0.23862801  0.49981010  0.13283571  1
  O  O196  1  0.23762851  0.49357585  0.61752021  1
  O  O197  1  0.25121175  0.99688137  0.13802906  1
  O  O198  1  0.25499832  0.99175794  0.62657836  1
  O  O199  1  0.75074891  0.48959095  0.12950815  1
  O  O200  1  0.74717371  0.49368886  0.63204093  1
  O  O201  1  0.75555592  0.99431974  0.13848130  1
  O  O202  1  0.75246967  0.98680490  0.62293866  1
  O  O203  1  -0.00639367  0.36365621  0.24396252  1
  O  O204  1  0.00352877  0.36694764  0.75147567  1
  O  O205  1  0.00505180  0.86898644  0.25701699  1
  O  O206  1  0.01179255  0.86935728  0.75190774  1
  O  O207  1  0.50265557  0.36025661  0.25495312  1
  O  O208  1  0.50203057  0.37205159  0.75705905  1
  O  O209  1  0.50830659  0.87063630  0.25862381  1
  O  O210  1  0.50256434  0.86858667  0.75820479  1
  O  O211  1  0.49466525  0.13507850  0.25535955  1
  O  O212  1  0.49231702  0.12534164  0.74279001  1
  O  O213  1  0.50591932  0.63966203  0.25329268  1
  O  O214  1  0.49562299  0.63207271  0.74645755  1
  O  O215  1  0.99610337  0.13072604  0.24209943  1
  O  O216  1  1.02009099  0.14185329  0.72479631  1
  O  O217  1  0.99309507  0.63170507  0.24524284  1
  O  O218  1  1.00233541  0.62075472  0.73454018  1
  O  O219  1  0.36998929  0.25520539  0.00564812  1
  O  O220  1  0.37242078  0.26391319  0.49286133  1
  O  O221  1  0.36586541  0.75690603  0.00507424  1
  O  O222  1  0.37087418  0.75326830  0.50820014  1
  O  O223  1  0.86887931  0.25917317  0.00560693  1
  O  O224  1  0.88233752  0.26282661  0.49792068  1
  O  O225  1  0.87524073  0.76027879  0.01636906  1
  O  O226  1  0.86575769  0.75996404  0.50663569  1
  O  O227  1  0.12814414  0.24290655  0.48579536  1
  O  O228  1  0.12651525  0.24403346  0.99394714  1
  O  O229  1  0.13537353  0.74053192  0.50202029  1
  O  O230  1  0.13619433  0.75827815  0.99227702  1
  O  O231  1  0.62358658  0.23718983  0.49203174  1
  O  O232  1  0.62873742  0.24399415  0.99086584  1
  O  O233  1  0.63985171  0.74538594  0.50644623  1
  O  O234  1  0.61937293  0.73571088  1.00569955  1
  O  O235  1  0.49172423  0.25164750  0.13281933  1
  O  O236  1  0.50745120  0.23674121  0.62579798  1
  O  O237  1  0.48957415  0.75060560  0.13588997  1
  O  O238  1  0.49349486  0.74463712  0.63216940  1
  O  O239  1  0.99812673  0.24189496  0.12968984  1
  O  O240  1  1.00321265  0.25672524  0.63122137  1
  O  O241  1  0.99401994  0.74495919  0.13655559  1
  O  O242  1  0.98917507  0.73810069  0.61335355  1
  O  O243  1  0.01496187  0.24798885  0.36603871  1
  O  O244  1  0.00559313  0.25843427  0.86503014  1
  O  O245  1  -0.00577992  0.75920457  0.36428605  1
  O  O246  1  0.01473665  0.75144704  0.88665069  1
  O  O247  1  0.51222735  0.24908968  0.36776720  1
  O  O248  1  0.50630189  0.25906025  0.87448499  1
  O  O249  1  0.49321524  0.76261812  0.36964417  1
  O  O250  1  0.49020508  0.75927267  0.86560263  1
  O  O251  1  0.24353693  0.12789027  0.49135260  1
  O  O252  1  0.24283354  0.12840833  0.99396661  1
  O  O253  1  0.24285888  0.62943202  0.49206745  1
  O  O254  1  0.25446684  0.63485671  0.98964262  1
  O  O255  1  0.74504880  0.12079550  0.49119253  1
  O  O256  1  0.74176668  0.13053140  0.99208771  1
  O  O257  1  0.74663837  0.64095036  0.50622163  1
  O  O258  1  0.73456447  0.62731348  1.00208696  1
  O  O259  1  0.25554047  0.36623620  0.00057643  1
  O  O260  1  0.25866065  0.37300120  0.50898725  1
  O  O261  1  0.25839708  0.86918299  -0.00079268  1
  O  O262  1  0.25712007  0.86540791  0.49770989  1
  O  O263  1  0.75560163  0.37317507  0.00428213  1
  O  O264  1  0.76438696  0.37775298  0.51218146  1
  O  O265  1  0.75357010  0.87726116  0.00969433  1
  O  O266  1  0.75576468  0.86816515  0.50689560  1
  O  O267  1  0.13274719  0.50159233  0.23941541  1
  O  O268  1  0.12030237  0.48720607  0.73917449  1
  O  O269  1  0.13396238  0.99431042  0.24926308  1
  O  O270  1  0.12175831  0.98327769  0.75771444  1
  O  O271  1  0.63788698  0.49716996  0.24768302  1
  O  O272  1  0.63333492  0.49795102  0.73795074  1
  O  O273  1  0.63538745  0.98986815  0.25494953  1
  O  O274  1  0.61588113  0.98547333  0.75190983  1
  O  O275  1  0.37000449  0.00185727  0.25538159  1
  O  O276  1  0.37485722  0.00988534  0.75907599  1
  O  O277  1  0.36563698  0.49556004  0.26303551  1
  O  O278  1  0.37793221  0.51497362  0.74835383  1
  O  O279  1  0.86847196  0.00575522  0.25687669  1
  O  O280  1  0.91846551  0.02015171  0.76153103  1
  O  O281  1  0.86152272  0.50913916  0.24847262  1
  O  O282  1  0.86509588  0.50170586  0.74273649  1
  O  O283  1  0.13286674  0.36134629  0.37950827  1
  O  O284  1  0.12005621  0.36919700  0.86654083  1
  O  O285  1  0.11624275  0.88042806  0.36494966  1
  O  O286  1  0.12246305  0.86258754  0.86636603  1
  O  O287  1  0.62919373  0.36140713  0.37717185  1
  O  O288  1  0.61625605  0.36724189  0.87506964  1
  O  O289  1  0.61790509  0.87894730  0.36915014  1
  O  O290  1  0.60985260  0.87733709  0.87185329  1
  O  O291  1  0.37054841  0.13684359  0.12967093  1
  O  O292  1  0.38415545  0.12318238  0.63235997  1
  O  O293  1  0.37543809  0.63701701  0.12092733  1
  O  O294  1  0.37919948  0.63328093  0.62841690  1
  O  O295  1  0.88134377  0.13281903  0.12820969  1
  O  O296  1  0.89381659  0.12244766  0.62110805  1
  O  O297  1  0.87947525  0.63368776  0.13420070  1
  O  O298  1  0.88394673  0.63340705  0.62588163  1
  O  O299  1  0.25534524  0.25009395  0.11900010  1
  O  O300  1  0.24558963  0.26456370  0.62392438  1
  O  O301  1  0.25301411  0.74896213  0.11805299  1
  O  O302  1  0.25858840  0.75125164  0.61357878  1
  O  O303  1  0.75617541  0.26181012  0.11970057  1
  O  O304  1  0.74824682  0.26471444  0.63132921  1
  O  O305  1  0.75579272  0.75897820  0.12450583  1
  O  O306  1  0.75877755  0.76197263  0.61919417  1
  O  O307  1  0.24234371  0.23947571  0.37074680  1
  O  O308  1  0.24083453  0.24295986  0.88052839  1
  O  O309  1  0.25857914  0.74169790  0.38637835  1
  O  O310  1  0.24057046  0.74213412  0.88174525  1
  O  O311  1  0.74549470  0.23684895  0.36622530  1
  O  O312  1  0.74120707  0.24918530  0.88031126  1
  O  O313  1  0.75283373  0.75743792  0.39176756  1
  O  O314  1  0.74496639  0.74677311  0.88132484  1
  O  O315  1  0.00133619  0.12077476  0.00627872  1
  O  O316  1  0.01280473  0.12688701  0.50802154  1
  O  O317  1  -0.00659779  0.62708992  0.01649347  1
  O  O318  1  0.00589069  0.61675178  0.50383759  1
  O  O319  1  0.50748225  0.11534997  -0.00473893  1
  O  O320  1  0.50753372  0.12079237  0.50559977  1
  O  O321  1  0.50616679  0.62174718  0.00051151  1
  O  O322  1  0.51067269  0.62575301  0.50792448  1
  O  O323  1  0.49396523  0.37767697  0.49938500  1
  O  O324  1  0.48882004  0.37323151  0.99249003  1
  O  O325  1  0.49987260  0.87819667  0.49530028  1
  O  O326  1  0.48969665  0.87832830  0.99474866  1
  O  O327  1  0.98843991  0.38800172  0.50406177  1
  O  O328  1  0.99042594  0.37561676  0.98889490  1
  O  O329  1  0.99376229  0.86913226  0.48736769  1
  O  O330  1  0.98926267  0.88336569  1.00862815  1
  O  O331  1  0.49291603  0.49700330  0.37563900  1
  O  O332  1  0.49545029  0.48619268  0.87595270  1
  O  O333  1  0.49874772  0.99197654  0.38149763  1
  O  O334  1  0.48678387  0.99240233  0.88280703  1
  O  O335  1  1.00324389  0.50298582  0.38863214  1
  O  O336  1  1.00751330  0.48514313  0.87398798  1
  O  O337  1  0.98893254  0.99303206  0.36770903  1
  O  O338  1  1.00684489  0.99297496  0.89526394  1
  O  O339  1  0.00019501  0.01260254  0.12166136  1
  O  O340  1  0.00663191  0.00982506  0.61892975  1
  O  O341  1  0.00857344  0.50745410  0.12673635  1
  O  O342  1  0.01124408  0.50707802  0.61410358  1
  O  O343  1  0.49028685  -0.00476763  0.11299401  1
  O  O344  1  0.50364947  0.01025889  0.61761198  1
  O  O345  1  0.49867080  0.50014890  0.12537229  1
  O  O346  1  0.51196715  0.50737348  0.62279968  1
  O  O347  1  0.25217501  0.38600622  0.24963134  1
  O  O348  1  0.24224138  0.37402582  0.74363217  1
  O  O349  1  0.24269589  0.88094511  0.25394526  1
  O  O350  1  0.23543188  0.87479731  0.74875564  1
  O  O351  1  0.75186842  0.38620156  0.24263485  1
  O  O352  1  0.75255258  0.38340757  0.73917135  1
  O  O353  1  0.74411678  0.88101582  0.24709872  1
  O  O354  1  0.74013529  0.87236839  0.74449684  1
  O  O355  1  0.25598050  0.11764755  0.25546980  1
  O  O356  1  0.25336466  0.12282058  0.75445142  1
  O  O357  1  0.24592121  0.61863738  0.26308768  1
  O  O358  1  0.25843885  0.63307320  0.75808042  1
  O  O359  1  0.75629078  0.11849942  0.25556184  1
  O  O360  1  0.74989925  0.12437477  0.76492312  1
  O  O361  1  0.75467161  0.61281117  0.24599487  1
  O  O362  1  0.75171534  0.61143217  0.74722456  1
  O  O363  1  0.36783585  0.12113084  0.36983020  1
  O  O364  1  0.36847160  0.11690364  0.87041799  1
  O  O365  1  0.36554194  0.61440786  0.38240056  1
  O  O366  1  0.36550102  0.62311768  0.86604860  1
  O  O367  1  0.87262631  0.11951798  0.37344328  1
  O  O368  1  0.85618298  0.12932635  0.88077964  1
  O  O369  1  0.87743910  0.63413695  0.36202885  1
  O  O370  1  0.86974211  0.62316063  0.87430224  1
  O  O371  1  0.12386612  0.38874508  0.12433996  1
  O  O372  1  0.13216723  0.38220612  0.62874136  1
  O  O373  1  0.12602714  0.87685269  0.13949263  1
  O  O374  1  0.12408068  0.86473812  0.63977616  1
  O  O375  1  0.63536674  0.37451588  0.12668406  1
  O  O376  1  0.63907912  0.38341273  0.62261328  1
  O  O377  1  0.63627665  0.87400879  0.13211644  1
  O  O378  1  0.63363132  0.87901774  0.63485564  1
  O  O379  1  0.11884511  0.24633530  0.26215516  1
  O  O380  1  0.11706425  0.26209427  0.75260961  1
  O  O381  1  0.11585712  0.75717529  0.24939614  1
  O  O382  1  0.12652155  0.75546650  0.76291526  1
  O  O383  1  0.61983848  0.24921351  0.25756090  1
  O  O384  1  0.62174073  0.25242167  0.76288677  1
  O  O385  1  0.61780307  0.76319415  0.24684093  1
  O  O386  1  0.61153489  0.75979230  0.74315449  1
  O  O387  1  0.38216693  0.24515578  0.24307172  1
  O  O388  1  0.37581867  0.23440276  0.75711841  1
  O  O389  1  0.38429438  0.75746325  0.24100358  1
  O  O390  1  0.38211177  0.74343138  0.74232117  1
  O  O391  1  0.88268472  0.24428369  0.24451822  1
  O  O392  1  0.89207690  0.24025025  0.75185078  1
  O  O393  1  0.88014037  0.74706492  0.24169185  1
  O  O394  1  0.87441995  0.75059745  0.73812497  1
  O  O395  1  0.37635422  0.49066520  0.48889544  1
  O  O396  1  0.37132232  0.48578303  0.99928265  1
  O  O397  1  0.38463597  0.99524342  0.49345359  1
  O  O398  1  0.37685402  0.99179405  0.99371215  1
  O  O399  1  0.88727784  0.49866017  0.50212483  1
  O  O400  1  0.87801746  0.49074534  1.00582178  1
  O  O401  1  0.87148013  0.98600783  0.49078807  1
  O  O402  1  0.88235698  0.99037792  1.00968814  1
  O  O403  1  0.11965363  0.00551227  0.00534418  1
  O  O404  1  0.12861766  0.01462255  0.49108694  1
  O  O405  1  0.12092629  0.50036165  0.01536450  1
  O  O406  1  0.11705378  0.50626811  0.50453653  1
  O  O407  1  0.61187141  0.00888883  -0.00136100  1
  O  O408  1  0.62137725  0.01192962  0.50043589  1
  O  O409  1  0.62016044  0.51007777  0.00432437  1
  O  O410  1  0.62974633  0.50879309  0.50969772  1
  O  O411  1  0.37010409  0.36245965  0.11790998  1
  O  O412  1  0.36708879  0.38285844  0.61721925  1
  O  O413  1  0.36975197  0.86402101  0.11564520  1
  O  O414  1  0.37967434  0.86287578  0.62023285  1
  O  O415  1  0.86947584  0.37124396  0.11616610  1
  O  O416  1  0.86562965  0.37655440  0.61678493  1
  O  O417  1  0.86293966  0.86916704  0.12430584  1
  O  O418  1  0.87326105  0.87089354  0.61921080  1
  O  O419  1  0.13227133  0.13038727  0.38203017  1
  O  O420  1  0.12567333  0.12991398  0.88081498  1
  O  O421  1  0.13278241  0.62128647  0.38535859  1
  O  O422  1  0.13003580  0.63640062  0.87010672  1
  O  O423  1  0.63489515  0.13124896  0.38140052  1
  O  O424  1  0.63236860  0.13147241  0.88129009  1
  O  O425  1  0.62312354  0.62378916  0.39029845  1
  O  O426  1  0.62556587  0.61831541  0.88935992  1
