# generated using pymatgen
data_V85Zn86O256
_symmetry_space_group_name_H-M   'P 1'
_cell_length_a   16.94461570
_cell_length_b   16.96499806
_cell_length_c   16.97644930
_cell_angle_alpha   89.96216474
_cell_angle_beta   89.93854714
_cell_angle_gamma   89.94157517
_symmetry_Int_Tables_number   1
_chemical_formula_structural   V85Zn86O256
_chemical_formula_sum   'V85 Zn86 O256'
_cell_volume   4880.13491786
_cell_formula_units_Z   1
loop_
 _symmetry_equiv_pos_site_id
 _symmetry_equiv_pos_as_xyz
  1  'x, y, z'
loop_
 _atom_site_type_symbol
 _atom_site_label
 _atom_site_symmetry_multiplicity
 _atom_site_fract_x
 _atom_site_fract_y
 _atom_site_fract_z
 _atom_site_occupancy
  V  V0  1  0.24659094  -0.00087204  0.24978929  1
  V  V1  1  0.50276886  0.24907600  0.75317944  1
  V  V2  1  0.36905365  0.00084895  0.37424968  1
  V  V3  1  -0.00560610  0.36985954  0.88234100  1
  V  V4  1  0.37518756  0.75054281  0.12399325  1
  V  V5  1  0.37158940  0.12903869  0.24472653  1
  V  V6  1  0.11535231  0.74843194  0.37580078  1
  V  V7  1  0.87971145  0.63353009  0.25323138  1
  V  V8  1  0.49803796  0.50005571  -0.00098466  1
  V  V9  1  0.87637119  0.25177279  0.63561007  1
  V  V10  1  0.62544629  0.62652444  -0.00148298  1
  V  V11  1  0.62615744  0.87698703  0.25292900  1
  V  V12  1  0.37489956  0.74945564  0.62439381  1
  V  V13  1  0.75493635  0.76015007  0.50580665  1
  V  V14  1  -0.00737856  0.23698158  0.25501392  1
  V  V15  1  0.88456104  0.76129592  0.62462471  1
  V  V16  1  0.37186569  0.25054733  0.62449812  1
  V  V17  1  0.62810079  0.62895535  0.49833966  1
  V  V18  1  0.68430882  0.19054417  0.31917414  1
  V  V19  1  0.49955192  0.87105462  0.37417025  1
  V  V20  1  0.12516771  0.49904872  0.12561368  1
  V  V21  1  0.75132380  0.50091883  0.25203634  1
  V  V22  1  0.49979702  0.00157345  0.49866119  1
  V  V23  1  0.12205765  -0.00045521  0.12241150  1
  V  V24  1  -0.01038267  0.86596830  0.87239305  1
  V  V25  1  0.74877695  0.23928596  -0.01102122  1
  V  V26  1  0.88787771  0.49787952  0.38428039  1
  V  V27  1  0.00178718  0.60857777  0.62297308  1
  V  V28  1  0.75657200  0.75121447  -0.00063533  1
  V  V29  1  0.11628075  0.36756456  0.25467665  1
  V  V30  1  0.63820076  0.87493775  0.73890803  1
  V  V31  1  0.00334840  0.23710508  0.76224673  1
  V  V32  1  0.50114912  0.62397639  0.62556819  1
  V  V33  1  0.11975074  0.12856144  0.49108756  1
  V  V34  1  0.75810417  0.38129986  0.11101211  1
  V  V35  1  0.36808984  0.62371578  0.75827747  1
  V  V36  1  0.12096533  0.12715448  -0.00241918  1
  V  V37  1  0.24941184  0.87356740  0.12357596  1
  V  V38  1  0.75541304  0.49853619  0.74925862  1
  V  V39  1  0.63153160  0.37280791  0.75051045  1
  V  V40  1  0.61502830  -0.00013694  0.11077223  1
  V  V41  1  0.49444237  0.24967933  0.24776175  1
  V  V42  1  0.12452596  0.37769417  0.76184851  1
  V  V43  1  0.74974976  0.87699497  0.12291264  1
  V  V44  1  0.63032098  0.49709610  0.62559428  1
  V  V45  1  0.37762624  0.36266533  0.00366074  1
  V  V46  1  0.64199348  -0.00428331  0.61826247  1
  V  V47  1  0.25022175  0.62686329  0.37815336  1
  V  V48  1  0.88187918  0.62771966  0.74984962  1
  V  V49  1  0.50299203  0.37323925  0.87346961  1
  V  V50  1  0.74977929  0.63144455  0.37699691  1
  V  V51  1  0.24644120  0.12992359  0.87392289  1
  V  V52  1  0.24898130  0.00069561  0.75015000  1
  V  V53  1  0.24901908  0.24764171  0.00175107  1
  V  V54  1  0.37484551  0.00377520  0.87559353  1
  V  V55  1  0.37807539  0.87846994  -0.00180036  1
  V  V56  1  0.13190406  0.62545395  -0.00337603  1
  V  V57  1  0.25410069  0.36595865  0.12692420  1
  V  V58  1  0.37910070  0.49987418  0.37688326  1
  V  V59  1  0.24901579  0.87520872  0.62530698  1
  V  V60  1  0.87919548  0.75665714  0.12618480  1
  V  V61  1  0.37455431  0.37491061  0.50203918  1
  V  V62  1  0.11417999  0.86937247  0.25099298  1
  V  V63  1  0.50243274  0.88365513  0.87339646  1
  V  V64  1  0.13047859  0.74858660  0.86740736  1
  V  V65  1  -0.01313168  -0.00815506  0.49939708  1
  V  V66  1  -0.00571184  0.49554382  0.00253941  1
  V  V67  1  0.49528540  0.12689656  0.11268411  1
  V  V68  1  0.50097128  0.62478123  0.12478176  1
  V  V69  1  0.86302669  0.00288271  0.35983190  1
  V  V70  1  0.74694455  0.25616841  0.51371804  1
  V  V71  1  0.50576103  0.74943985  0.25299337  1
  V  V72  1  0.50862652  0.37145473  0.37484439  1
  V  V73  1  0.12255709  0.61243439  0.50329048  1
  V  V74  1  0.25091397  0.49703592  0.24927591  1
  V  V75  1  0.24428709  0.38281884  0.63164296  1
  V  V76  1  0.50213209  0.12455463  0.61968348  1
  V  V77  1  0.50223212  0.75013803  0.74894037  1
  V  V78  1  0.37428953  0.87486958  0.49997955  1
  V  V79  1  0.00308494  0.63126056  0.12847967  1
  V  V80  1  0.86951591  0.01020390  0.86054222  1
  V  V81  1  -0.01349938  -0.00493782  -0.00091433  1
  V  V82  1  0.62711515  0.75143429  0.87291415  1
  V  V83  1  0.37587936  0.62546191  0.25068620  1
  V  V84  1  0.12267539  0.00314257  0.62338208  1
  Zn  Zn85  1  0.87392922  0.24602472  0.12177170  1
  Zn  Zn86  1  0.37764849  0.12338024  0.74916202  1
  Zn  Zn87  1  0.87405806  0.49981725  0.87946588  1
  Zn  Zn88  1  0.73302443  0.11869607  0.87131380  1
  Zn  Zn89  1  0.11939006  0.87113383  0.74729185  1
  Zn  Zn90  1  0.74593741  0.01836162  0.24376750  1
  Zn  Zn91  1  -0.00741258  0.12084730  0.63038273  1
  Zn  Zn92  1  0.63093192  0.37330173  0.25156798  1
  Zn  Zn93  1  0.23860154  0.25424912  0.49964767  1
  Zn  Zn94  1  0.23844642  0.50856427  0.75807492  1
  Zn  Zn95  1  0.05512682  0.31621293  0.41988352  1
  Zn  Zn96  1  0.50408630  0.49920194  0.50089485  1
  Zn  Zn97  1  0.24503188  0.13755983  0.37202718  1
  Zn  Zn98  1  0.62936801  0.13068006  0.49230774  1
  Zn  Zn99  1  0.25267719  0.74594218  -0.00471355  1
  Zn  Zn100  1  0.36640163  0.50011954  0.87835226  1
  Zn  Zn101  1  0.75465381  0.62615280  0.87412646  1
  Zn  Zn102  1  -0.01273669  0.86849411  0.37757121  1
  Zn  Zn103  1  0.88837241  0.37486851  0.50333585  1
  Zn  Zn104  1  0.62644835  0.50057278  0.12657632  1
  Zn  Zn105  1  0.24719440  0.74889484  0.50018594  1
  Zn  Zn106  1  -0.01143700  0.12134783  0.12616599  1
  Zn  Zn107  1  0.18156778  0.18635242  0.18736691  1
  Zn  Zn108  1  0.18281127  0.19016390  0.68883115  1
  Zn  Zn109  1  0.18831992  0.68894014  0.18945073  1
  Zn  Zn110  1  0.18425764  0.68776212  0.68449565  1
  Zn  Zn111  1  0.67759599  0.19345390  0.15276577  1
  Zn  Zn112  1  0.69032302  0.18829752  0.68389626  1
  Zn  Zn113  1  0.68833125  0.68811770  0.18713833  1
  Zn  Zn114  1  0.69381151  0.68630981  0.68502693  1
  Zn  Zn115  1  0.31265944  0.31158650  0.31510530  1
  Zn  Zn116  1  0.31548301  0.31145936  0.81502170  1
  Zn  Zn117  1  0.30840510  0.81153248  0.31161128  1
  Zn  Zn118  1  0.31112970  0.81190058  0.81066118  1
  Zn  Zn119  1  0.82061035  0.32046948  0.31074558  1
  Zn  Zn120  1  0.81598899  0.31134530  0.81626033  1
  Zn  Zn121  1  0.81163694  0.81573108  0.31504172  1
  Zn  Zn122  1  0.81623213  0.81111053  0.80878297  1
  Zn  Zn123  1  0.19320192  0.43681003  0.43763069  1
  Zn  Zn124  1  0.18675114  0.43823068  0.93629881  1
  Zn  Zn125  1  0.18302189  0.93761829  0.43868954  1
  Zn  Zn126  1  0.18540330  0.93432696  0.93769282  1
  Zn  Zn127  1  0.69508478  0.43894537  0.43886872  1
  Zn  Zn128  1  0.68467394  0.44106522  0.93252657  1
  Zn  Zn129  1  0.68813049  0.94005693  0.43344715  1
  Zn  Zn130  1  0.68868800  0.93574051  0.93467701  1
  Zn  Zn131  1  0.31322183  0.06103809  0.06024592  1
  Zn  Zn132  1  0.30905439  0.06608076  0.56100297  1
  Zn  Zn133  1  0.31335729  0.55767963  0.06285589  1
  Zn  Zn134  1  0.31105961  0.56122828  0.56574514  1
  Zn  Zn135  1  0.81061878  0.06343164  0.06312097  1
  Zn  Zn136  1  0.81334499  0.07676762  0.55819923  1
  Zn  Zn137  1  0.81422899  0.56773488  0.06491830  1
  Zn  Zn138  1  0.81462963  0.56335350  0.56496462  1
  Zn  Zn139  1  0.43874706  0.43582600  0.18722816  1
  Zn  Zn140  1  0.43798369  0.43974837  0.68753490  1
  Zn  Zn141  1  0.43716042  0.93927575  0.18653730  1
  Zn  Zn142  1  0.44122369  0.93905251  0.68905320  1
  Zn  Zn143  1  0.93594123  0.44063269  0.19125208  1
  Zn  Zn144  1  0.93755966  0.43128632  0.69169157  1
  Zn  Zn145  1  0.93492763  0.93911309  0.18868927  1
  Zn  Zn146  1  0.93836326  0.93773183  0.69113121  1
  Zn  Zn147  1  0.05633752  0.05660245  0.31583231  1
  Zn  Zn148  1  0.06344766  0.05403727  0.81729279  1
  Zn  Zn149  1  0.06509164  0.56404543  0.31008418  1
  Zn  Zn150  1  0.05852918  0.56153752  0.81437304  1
  Zn  Zn151  1  0.55520094  0.05620748  0.30473336  1
  Zn  Zn152  1  0.59911291  0.07668935  0.78738901  1
  Zn  Zn153  1  0.56614643  0.56380807  0.31543143  1
  Zn  Zn154  1  0.56201568  0.56191249  0.81358573  1
  Zn  Zn155  1  0.43388435  0.18995952  0.43429620  1
  Zn  Zn156  1  0.56332811  0.18620616  0.94075878  1
  Zn  Zn157  1  0.43969077  0.68809330  0.43915040  1
  Zn  Zn158  1  0.43995030  0.69271875  0.93641465  1
  Zn  Zn159  1  0.92821264  0.18222640  0.44251041  1
  Zn  Zn160  1  0.92931292  0.18555023  0.94309613  1
  Zn  Zn161  1  0.93748393  0.68478936  0.44439815  1
  Zn  Zn162  1  0.94048735  0.68486652  0.94021227  1
  Zn  Zn163  1  0.06187240  0.30957893  0.06788692  1
  Zn  Zn164  1  0.05497229  0.31788333  0.58312014  1
  Zn  Zn165  1  0.06260322  0.81326349  0.05582622  1
  Zn  Zn166  1  0.06262944  0.80947974  0.56094247  1
  Zn  Zn167  1  0.56952130  0.31786716  0.06817186  1
  Zn  Zn168  1  0.56311909  0.31439944  0.56422070  1
  Zn  Zn169  1  0.56315491  0.81388628  0.06063887  1
  Zn  Zn170  1  0.56528700  0.81152498  0.55965749  1
  O  O171  1  0.12272720  0.11054109  0.11840107  1
  O  O172  1  0.12265653  0.11325744  0.61896015  1
  O  O173  1  0.11884162  0.62253327  0.12158140  1
  O  O174  1  0.11132118  0.62843588  0.61905070  1
  O  O175  1  0.61178613  0.10898824  0.11877708  1
  O  O176  1  0.61286553  0.11500462  0.61599419  1
  O  O177  1  0.61833855  0.62475402  0.11684463  1
  O  O178  1  0.62125498  0.61619555  0.62117218  1
  O  O179  1  0.38511357  0.38455111  0.37849599  1
  O  O180  1  0.38794992  0.37436345  0.88338231  1
  O  O181  1  0.37712639  0.88140297  0.37902434  1
  O  O182  1  0.37831515  0.87935594  0.88020620  1
  O  O183  1  0.87930323  0.39551623  0.37261293  1
  O  O184  1  0.89070756  0.38076720  0.87333025  1
  O  O185  1  0.87403269  0.89168783  0.37144061  1
  O  O186  1  0.88631962  0.87632017  0.87352699  1
  O  O187  1  0.25880678  -0.00050944  0.37104428  1
  O  O188  1  0.25495074  0.00210745  0.86890406  1
  O  O189  1  0.26309309  0.50434949  0.36934568  1
  O  O190  1  0.25381232  0.49716978  0.87021928  1
  O  O191  1  0.75721586  0.00035423  0.36541264  1
  O  O192  1  0.76868637  -0.00548423  0.88278388  1
  O  O193  1  0.75919592  0.51281904  0.36888184  1
  O  O194  1  0.75212998  0.50487051  0.86330155  1
  O  O195  1  0.24446462  0.49048542  0.13080502  1
  O  O196  1  0.25723252  0.48617533  0.63725303  1
  O  O197  1  0.24072834  0.99293360  0.12802860  1
  O  O198  1  0.24360072  0.99472537  0.62913538  1
  O  O199  1  0.75238172  0.49591834  0.13180819  1
  O  O200  1  0.74357953  0.50481522  0.63820381  1
  O  O201  1  0.73687336  0.99293654  0.12410828  1
  O  O202  1  0.74037424  1.00437875  0.61202641  1
  O  O203  1  0.01321307  0.37215601  0.24801528  1
  O  O204  1  0.01000540  0.36723776  0.76107250  1
  O  O205  1  0.01175337  0.87815612  0.25286793  1
  O  O206  1  0.00342871  0.87816014  0.76826769  1
  O  O207  1  0.50347635  0.36705086  0.25484273  1
  O  O208  1  0.50390397  0.37077771  0.75713967  1
  O  O209  1  0.50409479  0.86783639  0.25302260  1
  O  O210  1  0.50291250  0.86383260  0.75483262  1
  O  O211  1  0.48972866  0.13157407  0.24372101  1
  O  O212  1  0.50218288  0.13401385  0.73688892  1
  O  O213  1  0.49702557  0.63229281  0.24739381  1
  O  O214  1  0.49450883  0.63280792  0.74508299  1
  O  O215  1  1.00801593  0.13466792  0.24628737  1
  O  O216  1  1.00775837  0.13477715  0.75589568  1
  O  O217  1  0.99489192  0.62375770  0.23686715  1
  O  O218  1  0.99112942  0.62141935  0.73919234  1
  O  O219  1  0.36608341  0.26317868  0.00238153  1
  O  O220  1  0.37725747  0.25664091  0.51364675  1
  O  O221  1  0.37227725  0.75789880  0.00477874  1
  O  O222  1  0.37269658  0.75693898  0.50662005  1
  O  O223  1  0.85511491  0.25316475  0.00044356  1
  O  O224  1  0.86652714  0.25318177  0.50852986  1
  O  O225  1  0.86383840  0.74311069  0.00979564  1
  O  O226  1  0.86568553  0.74770890  0.51123684  1
  O  O227  1  0.11623479  0.23550502  0.50373599  1
  O  O228  1  0.12988397  0.23333199  1.00711112  1
  O  O229  1  0.12779916  0.74120692  0.49113468  1
  O  O230  1  0.12879575  0.74200165  0.99133354  1
  O  O231  1  0.63971546  0.25297192  0.50648230  1
  O  O232  1  0.63729149  0.25202438  1.00463234  1
  O  O233  1  0.63839922  0.73644212  0.50860749  1
  O  O234  1  0.63410720  0.74582651  0.99530670  1
  O  O235  1  0.51034631  0.24351808  0.14036162  1
  O  O236  1  0.49307755  0.24490793  0.63088198  1
  O  O237  1  0.49416019  0.74480887  0.13097954  1
  O  O238  1  0.49575391  0.74424144  0.62998866  1
  O  O239  1  0.99841883  0.24695709  0.13838123  1
  O  O240  1  0.99520974  0.24275999  0.64568482  1
  O  O241  1  0.99082043  0.74452124  0.11744127  1
  O  O242  1  0.98791425  0.74295174  0.61982122  1
  O  O243  1  -0.00469067  0.24037670  0.36188145  1
  O  O244  1  -0.00550547  0.25359519  0.87031137  1
  O  O245  1  0.01031516  0.75028798  0.38026562  1
  O  O246  1  0.00721814  0.76184568  0.88329594  1
  O  O247  1  0.49510481  0.25969873  0.36244026  1
  O  O248  1  0.50352395  0.25594011  0.86023224  1
  O  O249  1  0.49415075  0.75822779  0.36446813  1
  O  O250  1  0.50777182  0.75819924  0.86696835  1
  O  O251  1  0.23165123  0.12552217  0.50031057  1
  O  O252  1  0.24433540  0.12754639  0.99426195  1
  O  O253  1  0.24413175  0.62591606  0.49603571  1
  O  O254  1  0.23584933  0.62385172  1.00745830  1
  O  O255  1  0.74775801  0.14866848  0.49582758  1
  O  O256  1  0.74707908  0.13664522  0.99569782  1
  O  O257  1  0.74615946  0.63044694  0.49441048  1
  O  O258  1  0.74332139  0.63255111  0.99897817  1
  O  O259  1  0.25481023  0.36997997  0.00817162  1
  O  O260  1  0.25520452  0.37553298  0.51358773  1
  O  O261  1  0.25805014  0.87213249  0.00687205  1
  O  O262  1  0.25496072  0.87640172  0.51104439  1
  O  O263  1  0.74754777  0.38242499  0.00944003  1
  O  O264  1  0.75808641  0.35867580  0.48923784  1
  O  O265  1  0.74346478  0.86468882  0.01462025  1
  O  O266  1  0.74147562  0.85715682  0.49387353  1
  O  O267  1  0.13082029  0.49114373  0.24526284  1
  O  O268  1  0.12187219  0.48311220  0.75538119  1
  O  O269  1  0.12784061  0.99310602  0.24299964  1
  O  O270  1  0.13066182  0.99604552  0.74073793  1
  O  O271  1  0.64151470  0.50677488  0.24927803  1
  O  O272  1  0.63148826  0.49485919  0.74480222  1
  O  O273  1  0.62565058  0.99128291  0.23865949  1
  O  O274  1  0.60934563  0.98224002  0.72559548  1
  O  O275  1  0.36759253  0.00383633  0.25696134  1
  O  O276  1  0.36710665  0.00025043  0.75657927  1
  O  O277  1  0.37244815  0.50551760  0.25723965  1
  O  O278  1  0.38024946  0.51754909  0.75229688  1
  O  O279  1  0.86664152  0.00324886  0.25471111  1
  O  O280  1  0.87595393  0.00121998  0.76176661  1
  O  O281  1  0.86778422  0.51412951  0.25616175  1
  O  O282  1  0.86913900  0.50571594  0.75111698  1
  O  O283  1  0.13283689  0.37700622  0.35911799  1
  O  O284  1  0.11670124  0.37089242  0.86770945  1
  O  O285  1  0.12608162  0.86541681  0.36709394  1
  O  O286  1  0.11840316  0.86221208  0.87367659  1
  O  O287  1  0.61140962  0.38725309  0.37253228  1
  O  O288  1  0.61159761  0.38090714  0.86525623  1
  O  O289  1  0.61689901  0.88083552  0.36021942  1
  O  O290  1  0.61812459  0.87152465  0.86463764  1
  O  O291  1  0.37871172  0.11453946  0.13867510  1
  O  O292  1  0.38182708  0.13281688  0.62527209  1
  O  O293  1  0.38069683  0.62893400  0.13106460  1
  O  O294  1  0.38212772  0.63061335  0.63145215  1
  O  O295  1  0.87579190  0.13009300  0.12150455  1
  O  O296  1  0.87790008  0.14291216  0.62453382  1
  O  O297  1  0.88233262  0.63567672  0.13359457  1
  O  O298  1  0.88737998  0.62888349  0.62911566  1
  O  O299  1  0.24474116  0.25956636  0.12114966  1
  O  O300  1  0.25723894  0.25777719  0.62467251  1
  O  O301  1  0.25856856  0.75643189  0.12512713  1
  O  O302  1  0.25450606  0.75953451  0.62378090  1
  O  O303  1  0.75104012  0.26732375  0.11147248  1
  O  O304  1  0.75727037  0.25458927  0.62041747  1
  O  O305  1  0.75699093  0.75532623  0.11902327  1
  O  O306  1  0.76286384  0.74431088  0.61193124  1
  O  O307  1  0.25799721  0.24913891  0.38746563  1
  O  O308  1  0.25698009  0.23520912  0.88161676  1
  O  O309  1  0.24273081  0.74111028  0.37642292  1
  O  O310  1  0.23514811  0.75284930  0.87625840  1
  O  O311  1  0.74831610  0.25010034  0.37061012  1
  O  O312  1  0.74649872  0.25179778  0.88640368  1
  O  O313  1  0.75883345  0.73846535  0.38749778  1
  O  O314  1  0.74653957  0.75081312  0.88399526  1
  O  O315  1  0.00709897  0.11436494  -0.00177838  1
  O  O316  1  0.00778767  0.11228538  0.50345703  1
  O  O317  1  0.01043170  0.61932914  0.01174006  1
  O  O318  1  0.00699825  0.62346555  0.51388463  1
  O  O319  1  0.48242121  0.14151135  0.01593990  1
  O  O320  1  0.50054078  0.12295572  0.50431024  1
  O  O321  1  0.50284896  0.61870286  0.00339500  1
  O  O322  1  0.51060993  0.62434464  0.50582117  1
  O  O323  1  0.49397258  0.37708791  0.49225355  1
  O  O324  1  0.49599913  0.37981551  0.99651607  1
  O  O325  1  0.49415894  0.87834281  0.49250379  1
  O  O326  1  0.48987305  0.86666476  0.98704600  1
  O  O327  1  1.00426260  0.37099163  0.50089485  1
  O  O328  1  1.00974246  0.38308098  0.99528186  1
  O  O329  1  1.00695033  0.88932343  0.49754197  1
  O  O330  1  1.00662690  0.88516352  0.98516684  1
  O  O331  1  0.49072811  0.49667795  0.37523130  1
  O  O332  1  0.49539074  0.49269771  0.88301926  1
  O  O333  1  0.48687435  0.99236885  0.37713668  1
  O  O334  1  0.48810168  0.98480822  0.86558210  1
  O  O335  1  0.98577565  0.51115559  0.37224357  1
  O  O336  1  1.00126269  0.49100930  0.88701656  1
  O  O337  1  0.99081741  0.99369357  0.38629625  1
  O  O338  1  0.98841527  0.99093106  0.88087070  1
  O  O339  1  0.00619451  -0.00336595  0.11639432  1
  O  O340  1  0.00563462  -0.00033673  0.61749862  1
  O  O341  1  0.00596548  0.50711516  0.12205915  1
  O  O342  1  -0.00263724  0.51035860  0.62819510  1
  O  O343  1  0.50732519  0.00829829  0.12686433  1
  O  O344  1  0.49524869  0.00956755  0.61368017  1
  O  O345  1  0.50186680  0.50658444  0.11791173  1
  O  O346  1  0.50822538  0.50869402  0.62353382  1
  O  O347  1  0.24551105  0.37796318  0.24302033  1
  O  O348  1  0.23811585  0.36965836  0.75052217  1
  O  O349  1  0.24270969  0.88084593  0.24233546  1
  O  O350  1  0.24866654  0.87999881  0.73780842  1
  O  O351  1  0.75077460  0.38741169  0.24533212  1
  O  O352  1  0.74070389  0.38282683  0.75806125  1
  O  O353  1  0.73864223  0.86918988  0.23785426  1
  O  O354  1  0.73663273  0.87020500  0.75095430  1
  O  O355  1  0.25334357  0.11866529  0.25101272  1
  O  O356  1  0.24945597  0.12048254  0.75782736  1
  O  O357  1  0.25640214  0.61738392  0.25595613  1
  O  O358  1  0.26484694  0.62598736  0.74215213  1
  O  O359  1  0.73350998  0.13757461  0.24691829  1
  O  O360  1  0.70962336  0.11387830  0.75997476  1
  O  O361  1  0.75785204  0.62441806  0.25778686  1
  O  O362  1  0.76290931  0.61801832  0.75058848  1
  O  O363  1  0.37375593  0.11558461  0.36364496  1
  O  O364  1  0.36506924  0.10792497  0.87233268  1
  O  O365  1  0.37242411  0.61858742  0.37120353  1
  O  O366  1  0.37959984  0.62916558  0.86037173  1
  O  O367  1  0.87731789  0.10064076  0.38128629  1
  O  O368  1  0.86992427  0.11167039  0.87509540  1
  O  O369  1  0.87130023  0.62191859  0.36917063  1
  O  O370  1  0.87807593  0.62418528  0.86471808  1
  O  O371  1  0.13327835  0.37895323  0.13674800  1
  O  O372  1  0.13499472  0.36963382  0.64519585  1
  O  O373  1  0.12757512  0.88063825  0.13055074  1
  O  O374  1  0.13188744  0.88326675  0.62453398  1
  O  O375  1  0.64069791  0.38269361  0.13222961  1
  O  O376  1  0.61873620  0.39116260  0.63342206  1
  O  O377  1  0.62583962  0.88146455  0.13348834  1
  O  O378  1  0.62477889  0.88184369  0.62654397  1
  O  O379  1  0.11523638  0.26120994  0.24823382  1
  O  O380  1  0.11066763  0.25722457  0.75324097  1
  O  O381  1  0.12921582  0.75839185  0.26021565  1
  O  O382  1  0.12584622  0.74953744  0.76360016  1
  O  O383  1  0.62308954  0.24886377  0.25479710  1
  O  O384  1  0.61529558  0.26715422  0.73524647  1
  O  O385  1  0.61197457  0.75677809  0.24365092  1
  O  O386  1  0.62075258  0.75413297  0.75057359  1
  O  O387  1  0.38160226  0.24054219  0.24933743  1
  O  O388  1  0.38382040  0.24836249  0.74009287  1
  O  O389  1  0.38365276  0.74554277  0.24452935  1
  O  O390  1  0.38076459  0.74161433  0.74487523  1
  O  O391  1  0.89119407  0.25504963  0.24696509  1
  O  O392  1  0.88961892  0.25383202  0.74915586  1
  O  O393  1  0.87109570  0.74044471  0.24336049  1
  O  O394  1  0.86916841  0.74032780  0.73409091  1
  O  O395  1  0.37732027  0.49481131  0.49255689  1
  O  O396  1  0.38637184  0.49320458  0.99954052  1
  O  O397  1  0.37772264  0.99653927  0.49143323  1
  O  O398  1  0.37124889  0.98704191  0.99093144  1
  O  O399  1  0.87065755  0.49972468  0.48740527  1
  O  O400  1  0.89085807  0.50995544  1.00115822  1
  O  O401  1  0.88601455  1.00041175  0.50434206  1
  O  O402  1  0.88476533  0.99877381  0.99717881  1
  O  O403  1  0.11906493  0.00501561  0.00708130  1
  O  O404  1  0.11685788  0.00705767  0.50655583  1
  O  O405  1  0.11743235  0.50684199  0.00740270  1
  O  O406  1  0.13088959  0.51359368  0.49413854  1
  O  O407  1  0.61824581  -0.01791034  0.01387214  1
  O  O408  1  0.61654464  0.00143470  0.50242617  1
  O  O409  1  0.61262221  0.50684591  -0.00040061  1
  O  O410  1  0.62951736  0.50893053  0.50892620  1
  O  O411  1  0.36488010  0.38093594  0.11724994  1
  O  O412  1  0.37001281  0.36859263  0.62386542  1
  O  O413  1  0.37254345  0.87181521  0.11630766  1
  O  O414  1  0.36914971  0.87036016  0.62062002  1
  O  O415  1  0.86073596  0.37713663  0.12974993  1
  O  O416  1  0.88241783  0.35913493  0.62385506  1
  O  O417  1  0.86554760  0.86491397  0.13172185  1
  O  O418  1  0.88153420  0.86000724  0.62958697  1
  O  O419  1  0.12531151  0.11610178  0.38882255  1
  O  O420  1  0.13624842  0.11379000  0.88579198  1
  O  O421  1  0.12974446  0.63106957  0.37995780  1
  O  O422  1  0.11447950  0.63906039  0.88307693  1
  O  O423  1  0.62228410  0.12665505  0.37165306  1
  O  O424  1  0.61771837  0.10375869  0.89261381  1
  O  O425  1  0.63530104  0.62242483  0.38681115  1
  O  O426  1  0.62605423  0.63371277  0.88078029  1
