# generated using pymatgen
data_V85Zn86O256
_symmetry_space_group_name_H-M   'P 1'
_cell_length_a   16.93480930
_cell_length_b   16.93574226
_cell_length_c   16.94022447
_cell_angle_alpha   89.95886256
_cell_angle_beta   90.03052881
_cell_angle_gamma   90.02889205
_symmetry_Int_Tables_number   1
_chemical_formula_structural   V85Zn86O256
_chemical_formula_sum   'V85 Zn86 O256'
_cell_volume   4858.51421945
_cell_formula_units_Z   1
loop_
 _symmetry_equiv_pos_site_id
 _symmetry_equiv_pos_as_xyz
  1  'x, y, z'
loop_
 _atom_site_type_symbol
 _atom_site_label
 _atom_site_symmetry_multiplicity
 _atom_site_fract_x
 _atom_site_fract_y
 _atom_site_fract_z
 _atom_site_occupancy
  V  V0  1  0.12964730  0.75608692  0.87295800  1
  V  V1  1  0.00339172  0.25018720  0.74864810  1
  V  V2  1  0.12511745  0.87605073  0.24600686  1
  V  V3  1  0.36823838  0.62843920  0.24517768  1
  V  V4  1  0.74313827  0.12114686  0.88192339  1
  V  V5  1  0.62700331  0.25083696  0.88169161  1
  V  V6  1  0.75209037  0.62323796  0.37403829  1
  V  V7  1  -0.00019341  0.11739740  0.61883133  1
  V  V8  1  0.62304796  0.86728551  0.75554976  1
  V  V9  1  0.61503649  0.24819609  0.36920123  1
  V  V10  1  0.00583844  0.87932217  0.87238185  1
  V  V11  1  0.62023962  0.49799317  0.61636710  1
  V  V12  1  0.37907812  0.12914844  0.26068170  1
  V  V13  1  0.25369858  0.24719370  0.49053097  1
  V  V14  1  0.74426665  0.49708021  0.74886113  1
  V  V15  1  0.00077928  0.50094096  -0.00190848  1
  V  V16  1  0.25693064  0.00137441  0.26291668  1
  V  V17  1  -0.00676349  0.25536774  0.23631310  1
  V  V18  1  0.62462030  0.50055139  0.12265458  1
  V  V19  1  0.74948932  0.25124023  0.49848099  1
  V  V20  1  0.10820581  0.25524816  0.38090472  1
  V  V21  1  0.37723905  0.50489205  0.37864960  1
  V  V22  1  0.50347939  0.36964995  0.87883206  1
  V  V23  1  0.87491656  0.37083678  0.00263910  1
  V  V24  1  0.87154261  0.12448335  0.74892702  1
  V  V25  1  0.87603760  0.74965380  0.62403580  1
  V  V26  1  0.62655472  0.00073918  0.11911338  1
  V  V27  1  0.49804593  0.75002783  0.24907228  1
  V  V28  1  0.25054129  0.36760522  0.62547361  1
  V  V29  1  0.36026334  0.36991538  0.00767044  1
  V  V30  1  0.49885827  0.38222594  0.37719413  1
  V  V31  1  0.49713836  0.49826980  0.00131074  1
  V  V32  1  0.74947711  0.87277593  0.62571038  1
  V  V33  1  0.37162193  0.74290975  0.63135821  1
  V  V34  1  0.75066873  0.00010094  0.24899255  1
  V  V35  1  0.25479137  0.62493172  0.86838844  1
  V  V36  1  -0.00575618  0.63500286  0.12250637  1
  V  V37  1  0.26702515  0.87462311  0.12289264  1
  V  V38  1  0.12451819  0.24552159  0.87448489  1
  V  V39  1  0.88151097  0.12727404  0.23895048  1
  V  V40  1  0.49941776  0.13314358  0.12092801  1
  V  V41  1  0.49295576  0.63047930  0.12294819  1
  V  V42  1  0.75340523  0.37176982  0.12480012  1
  V  V43  1  0.00468776  0.62748185  0.61557771  1
  V  V44  1  0.87546588  0.87853469  0.49881789  1
  V  V45  1  0.37559159  0.49913696  0.86519515  1
  V  V46  1  0.61720841  0.37205723  0.24639543  1
  V  V47  1  0.00547089  0.01222123  0.00878624  1
  V  V48  1  0.74842240  -0.00361987  0.75106645  1
  V  V49  1  0.24816150  -0.00516808  0.75393029  1
  V  V50  1  0.75464442  0.24145017  0.00901033  1
  V  V51  1  0.12309105  -0.00182608  0.63077991  1
  V  V52  1  0.12979293  0.37613645  0.24878911  1
  V  V53  1  0.26423046  0.75413673  0.00447632  1
  V  V54  1  0.74892821  0.12682882  0.37344573  1
  V  V55  1  0.12561959  0.11795666  0.49593154  1
  V  V56  1  0.00273157  0.88078869  0.37919693  1
  V  V57  1  0.12160090  0.74634834  0.38088027  1
  V  V58  1  0.88016973  0.37580555  0.49009582  1
  V  V59  1  0.74423997  0.63243995  0.87260670  1
  V  V60  1  0.49781296  -0.00337469  0.00107411  1
  V  V61  1  0.49271608  0.61769073  0.61416432  1
  V  V62  1  0.18605498  0.18388256  0.04910722  1
  V  V63  1  0.74627198  0.74779040  0.49927628  1
  V  V64  1  0.87426325  0.49923340  0.87275346  1
  V  V65  1  0.75240843  0.37303242  0.62668236  1
  V  V66  1  0.24360347  0.62318615  0.38053093  1
  V  V67  1  0.49752974  0.86840882  0.87850149  1
  V  V68  1  0.75372546  0.49937392  0.24811182  1
  V  V69  1  0.12640681  0.50274003  0.62122227  1
  V  V70  1  0.25440703  0.13204509  0.87054809  1
  V  V71  1  0.49927982  0.73704857  0.75348996  1
  V  V72  1  0.00390862  0.75285998  0.74982133  1
  V  V73  1  0.00307605  0.49954810  0.49282577  1
  V  V74  1  0.37534447  0.00108696  0.87470541  1
  V  V75  1  0.87684433  -0.00034518  0.87651536  1
  V  V76  1  0.87972482  0.00376242  0.37979151  1
  V  V77  1  0.62230394  0.63431347  -0.00497946  1
  V  V78  1  0.12943112  0.62667723  0.00130942  1
  V  V79  1  0.24857260  0.87435712  0.62846590  1
  V  V80  1  0.61191301  -0.00237709  0.61993351  1
  V  V81  1  0.62452491  0.87431339  0.25186777  1
  V  V82  1  0.87561647  0.62519916  0.74853796  1
  V  V83  1  0.87766581  0.86792948  0.00765413  1
  V  V84  1  0.87376256  0.24912705  0.62446094  1
  Zn  Zn85  1  0.37466279  0.87861295  0.49981298  1
  Zn  Zn86  1  0.45342764  0.19628582  0.68890765  1
  Zn  Zn87  1  0.13103022  0.49213285  0.11953604  1
  Zn  Zn88  1  0.75641784  0.86272404  0.13175255  1
  Zn  Zn89  1  0.47812698  0.01381548  0.48461690  1
  Zn  Zn90  1  0.25451528  0.50179402  0.74350535  1
  Zn  Zn91  1  0.61730014  0.62096497  0.49501805  1
  Zn  Zn92  1  0.12387594  0.37831977  0.75088165  1
  Zn  Zn93  1  0.49123424  0.88179995  0.37831831  1
  Zn  Zn94  1  0.36543297  0.25111995  0.12455468  1
  Zn  Zn95  1  0.88089775  0.49855659  0.36779883  1
  Zn  Zn96  1  0.25228566  0.49600143  0.24347231  1
  Zn  Zn97  1  0.12777840  0.00785063  0.12439900  1
  Zn  Zn98  1  -0.00013999  0.37424446  0.87241486  1
  Zn  Zn99  1  0.75200187  0.74915896  0.00136875  1
  Zn  Zn100  1  -0.00560584  0.75599460  0.24611025  1
  Zn  Zn101  1  0.62591091  0.74830663  0.37415063  1
  Zn  Zn102  1  0.86656287  0.63703069  0.23805373  1
  Zn  Zn103  1  0.61933081  0.12335553  0.50256558  1
  Zn  Zn104  1  0.37560032  0.37658913  0.49889724  1
  Zn  Zn105  1  0.58688348  0.32971546  0.71860533  1
  Zn  Zn106  1  0.24359938  0.74564368  0.50610601  1
  Zn  Zn107  1  0.18959322  0.18771258  0.21208286  1
  Zn  Zn108  1  0.28976890  0.19088307  0.69207614  1
  Zn  Zn109  1  0.18494532  0.69053105  0.18765355  1
  Zn  Zn110  1  0.18381189  0.68545527  0.69027749  1
  Zn  Zn111  1  0.68535451  0.18491289  0.18684500  1
  Zn  Zn112  1  0.65185086  0.16554276  0.71059541  1
  Zn  Zn113  1  0.68611031  0.68852779  0.18194158  1
  Zn  Zn114  1  0.68217724  0.68403333  0.68471499  1
  Zn  Zn115  1  0.31173432  0.30826863  0.31543299  1
  Zn  Zn116  1  0.31408026  0.31716356  0.81623659  1
  Zn  Zn117  1  0.30963654  0.80931704  0.31031114  1
  Zn  Zn118  1  0.31699498  0.81426042  0.81157945  1
  Zn  Zn119  1  0.81191043  0.31152455  0.31020198  1
  Zn  Zn120  1  0.80880652  0.30960340  0.81440018  1
  Zn  Zn121  1  0.81462359  0.81144006  0.31093457  1
  Zn  Zn122  1  0.81632979  0.81252235  0.81576559  1
  Zn  Zn123  1  0.18571024  0.43598556  0.43370541  1
  Zn  Zn124  1  0.18616338  0.43637483  0.93290294  1
  Zn  Zn125  1  0.19138595  0.93475508  0.44331754  1
  Zn  Zn126  1  0.18857138  0.93958898  0.94247188  1
  Zn  Zn127  1  0.68906484  0.43623431  0.43524455  1
  Zn  Zn128  1  0.68828395  0.43930632  0.93895345  1
  Zn  Zn129  1  0.68404289  0.93601343  0.43482519  1
  Zn  Zn130  1  0.68620395  0.93345828  0.93911527  1
  Zn  Zn131  1  0.32067399  0.05375539  0.06530470  1
  Zn  Zn132  1  0.32202794  0.06647400  0.56644558  1
  Zn  Zn133  1  0.31039012  0.55785931  0.06075342  1
  Zn  Zn134  1  0.31337415  0.56264988  0.56096359  1
  Zn  Zn135  1  0.81584961  0.05437788  0.06263907  1
  Zn  Zn136  1  0.80462403  0.06206726  0.56213960  1
  Zn  Zn137  1  0.81169179  0.56214520  0.05892362  1
  Zn  Zn138  1  0.81455632  0.56123683  0.56050915  1
  Zn  Zn139  1  0.43331314  0.43956827  0.18776355  1
  Zn  Zn140  1  0.44519178  0.40959196  0.67877208  1
  Zn  Zn141  1  0.44024599  0.94182781  0.19374604  1
  Zn  Zn142  1  0.43373915  0.93407714  0.69096245  1
  Zn  Zn143  1  0.94211641  0.43885162  0.18385718  1
  Zn  Zn144  1  0.93735674  0.43857401  0.68358439  1
  Zn  Zn145  1  0.93997624  0.94175543  0.18921849  1
  Zn  Zn146  1  0.93759232  0.93679327  0.68931784  1
  Zn  Zn147  1  0.06466940  0.06514009  0.31174685  1
  Zn  Zn148  1  0.06537234  0.06652467  0.81115257  1
  Zn  Zn149  1  0.06177709  0.56366825  0.30811985  1
  Zn  Zn150  1  0.06497500  0.56510029  0.80974691  1
  Zn  Zn151  1  0.55970060  0.06245414  0.30853536  1
  Zn  Zn152  1  0.55645913  0.06147487  0.81031531  1
  Zn  Zn153  1  0.56400184  0.56383696  0.31012591  1
  Zn  Zn154  1  0.56311034  0.55522273  0.81057589  1
  Zn  Zn155  1  0.44116817  0.18713589  0.44424818  1
  Zn  Zn156  1  0.43614231  0.18735767  0.93821498  1
  Zn  Zn157  1  0.41963473  0.71565131  0.42563203  1
  Zn  Zn158  1  0.43637113  0.68591685  0.93424320  1
  Zn  Zn159  1  0.93774364  0.18537939  0.43760180  1
  Zn  Zn160  1  0.93417517  0.18784281  0.93608252  1
  Zn  Zn161  1  0.93403023  0.68925202  0.43210750  1
  Zn  Zn162  1  0.93960701  0.68750861  0.93388285  1
  Zn  Zn163  1  0.05715759  0.31642961  0.06536923  1
  Zn  Zn164  1  0.06387435  0.31318955  0.56485006  1
  Zn  Zn165  1  0.06812675  0.81627210  0.05823238  1
  Zn  Zn166  1  0.06306642  0.81772412  0.56022567  1
  Zn  Zn167  1  0.56660654  0.31096593  0.05718334  1
  Zn  Zn168  1  0.56091204  0.30827288  0.55231879  1
  Zn  Zn169  1  0.56261651  0.81402728  0.06574391  1
  Zn  Zn170  1  0.55627648  0.81250085  0.56237851  1
  O  O171  1  0.13416150  0.12912035  0.11857647  1
  O  O172  1  0.11346351  0.11181799  0.61673999  1
  O  O173  1  0.11744108  0.62782240  0.11059518  1
  O  O174  1  0.11500784  0.61909134  0.62509841  1
  O  O175  1  0.61025824  0.11478592  0.13344538  1
  O  O176  1  0.64479240  0.09872552  0.61885023  1
  O  O177  1  0.61324128  0.61763538  0.11631871  1
  O  O178  1  0.61536230  0.61413593  0.62111350  1
  O  O179  1  0.38265188  0.38491038  0.36723806  1
  O  O180  1  0.38161349  0.38110548  0.88951613  1
  O  O181  1  0.38472136  0.83118386  0.38975697  1
  O  O182  1  0.38997753  0.88166094  0.87315678  1
  O  O183  1  0.87001943  0.37746871  0.38640240  1
  O  O184  1  0.87424073  0.38209024  0.88473345  1
  O  O185  1  0.88218717  0.88475836  0.37840512  1
  O  O186  1  0.88432079  0.88175173  0.88239297  1
  O  O187  1  0.25161371  -0.01233558  0.36032820  1
  O  O188  1  0.25604889  0.00312551  0.87308712  1
  O  O189  1  0.25411397  0.50717361  0.36635007  1
  O  O190  1  0.25745720  0.50707860  0.87278673  1
  O  O191  1  0.75424130  0.00854330  0.36896995  1
  O  O192  1  0.75458249  0.00410866  0.87289188  1
  O  O193  1  0.75206834  0.50492569  0.36465894  1
  O  O194  1  0.75384594  0.50598975  0.86607173  1
  O  O195  1  0.24205000  0.50742215  0.13100052  1
  O  O196  1  0.24038095  0.49531671  0.62277253  1
  O  O197  1  0.24882494  0.98653808  0.13059812  1
  O  O198  1  0.24333794  0.99360604  0.63713822  1
  O  O199  1  0.74435201  0.49548537  0.12940233  1
  O  O200  1  0.74661522  0.49447270  0.63063285  1
  O  O201  1  0.74263938  0.99616265  0.13137413  1
  O  O202  1  0.75191822  0.98642346  0.63352911  1
  O  O203  1  0.00235052  0.36214002  0.24866336  1
  O  O204  1  -0.00223852  0.36552265  0.74997458  1
  O  O205  1  0.00906559  0.87961539  0.25955316  1
  O  O206  1  -0.00470785  0.86914688  0.76464385  1
  O  O207  1  0.51240897  0.38036823  0.25301079  1
  O  O208  1  0.50575795  0.39047683  0.77642103  1
  O  O209  1  0.50570296  0.86562103  0.25056319  1
  O  O210  1  0.50659441  0.86507492  0.75732844  1
  O  O211  1  0.48638117  0.11996647  0.23533158  1
  O  O212  1  0.54089068  0.14496902  0.74050947  1
  O  O213  1  0.49490820  0.62840865  0.23876566  1
  O  O214  1  0.50853561  0.63419328  0.74583929  1
  O  O215  1  0.99273567  0.13942426  0.25640631  1
  O  O216  1  0.99206154  0.13061056  0.74056686  1
  O  O217  1  1.00072761  0.62356157  0.22933681  1
  O  O218  1  0.99494019  0.63224290  0.74042750  1
  O  O219  1  0.37659086  0.26597397  0.00222546  1
  O  O220  1  0.35733582  0.25619416  0.48766904  1
  O  O221  1  0.36322584  0.74742982  -0.00159223  1
  O  O222  1  0.36596207  0.74476336  0.52339484  1
  O  O223  1  0.86945298  0.26035169  -0.00206598  1
  O  O224  1  0.87086515  0.25646084  0.50449072  1
  O  O225  1  0.87888971  0.76547374  -0.00700582  1
  O  O226  1  0.86454801  0.75589910  0.50380844  1
  O  O227  1  0.12642902  0.24467424  0.49493364  1
  O  O228  1  0.12129810  0.24753373  0.99597405  1
  O  O229  1  0.12377263  0.75360232  0.48570809  1
  O  O230  1  0.13302903  0.74469416  0.98966389  1
  O  O231  1  0.63311895  0.24956861  0.48777137  1
  O  O232  1  0.64060067  0.24827806  0.99279050  1
  O  O233  1  0.63723283  0.74746319  0.50202855  1
  O  O234  1  0.62144116  0.73670350  0.99926691  1
  O  O235  1  0.50311356  0.23473919  0.11754221  1
  O  O236  1  0.50143002  0.29934222  0.64624967  1
  O  O237  1  0.50381317  0.74055824  0.13401013  1
  O  O238  1  0.49221951  0.73879939  0.63379799  1
  O  O239  1  0.99772510  0.24814480  0.13776332  1
  O  O240  1  0.99373868  0.24189735  0.63136793  1
  O  O241  1  1.00557356  0.73744902  0.11960355  1
  O  O242  1  0.99773775  0.74550494  0.62731572  1
  O  O243  1  0.00556158  0.25181953  0.37209854  1
  O  O244  1  0.00391275  0.24919003  0.86701585  1
  O  O245  1  0.00543456  0.75920404  0.37278713  1
  O  O246  1  0.00993436  0.75788206  0.87206006  1
  O  O247  1  0.51157212  0.25799111  0.37276930  1
  O  O248  1  0.51386088  0.25666152  0.88661053  1
  O  O249  1  0.51001241  0.73715407  0.35605844  1
  O  O250  1  0.49661793  0.75614551  0.86757186  1
  O  O251  1  0.23844946  0.14275250  0.50836727  1
  O  O252  1  0.24814935  0.12055452  0.99478930  1
  O  O253  1  0.24987137  0.62522427  0.48462109  1
  O  O254  1  0.24413579  0.63296230  0.99245101  1
  O  O255  1  0.74699671  0.13041698  0.48606958  1
  O  O256  1  0.76214570  0.13044198  0.99450729  1
  O  O257  1  0.75054362  0.63143517  0.49239374  1
  O  O258  1  0.73986872  0.62150627  0.98958244  1
  O  O259  1  0.26194629  0.37936172  -0.00057522  1
  O  O260  1  0.24533949  0.36417681  0.50585140  1
  O  O261  1  0.24776071  0.86946859  0.01478317  1
  O  O262  1  0.24845340  0.86819612  0.51815428  1
  O  O263  1  0.75707864  0.36804836  0.00550420  1
  O  O264  1  0.75847939  0.37135300  0.50571912  1
  O  O265  1  0.76753219  0.87461769  -0.00315368  1
  O  O266  1  0.75520795  0.86641178  0.50347078  1
  O  O267  1  0.11999023  0.48346419  0.25059899  1
  O  O268  1  0.12420863  0.49942797  0.73571906  1
  O  O269  1  0.13828975  0.99700259  0.24768454  1
  O  O270  1  0.13296075  1.00242977  0.74245924  1
  O  O271  1  0.63540685  0.49287701  0.24284412  1
  O  O272  1  0.63871736  0.50009047  0.74007414  1
  O  O273  1  0.63087878  0.99365888  0.24053758  1
  O  O274  1  0.63023365  0.98668234  0.74197476  1
  O  O275  1  0.36439601  0.01007884  0.24719610  1
  O  O276  1  0.36735772  -0.00422136  0.76509568  1
  O  O277  1  0.37436626  0.51287727  0.25666420  1
  O  O278  1  0.37639670  0.48837061  0.76419262  1
  O  O279  1  0.87119326  0.00702550  0.26001791  1
  O  O280  1  0.86797004  0.00294752  0.75737891  1
  O  O281  1  0.86406922  0.50180356  0.24673055  1
  O  O282  1  0.86761653  0.50694461  0.75205562  1
  O  O283  1  0.12114368  0.36707826  0.36379966  1
  O  O284  1  0.12229668  0.36200720  0.87201401  1
  O  O285  1  0.11927051  0.87197729  0.36848547  1
  O  O286  1  0.11843085  0.86776767  0.88146697  1
  O  O287  1  0.61954896  0.37135597  0.36585310  1
  O  O288  1  0.61710030  0.36580635  0.88782183  1
  O  O289  1  0.62556627  0.87010657  0.36105279  1
  O  O290  1  0.61354149  0.87943130  0.86593234  1
  O  O291  1  0.38601941  0.12703287  0.12793226  1
  O  O292  1  0.37064475  0.13864603  0.63247251  1
  O  O293  1  0.38595974  0.61991481  0.12850442  1
  O  O294  1  0.38109096  0.62584164  0.63040297  1
  O  O295  1  0.87208274  0.11746572  0.14058402  1
  O  O296  1  0.87824918  0.12774323  0.62837974  1
  O  O297  1  0.89067292  0.62137935  0.11821294  1
  O  O298  1  0.88118627  0.63150233  0.62973438  1
  O  O299  1  0.24210295  0.23906474  0.11422993  1
  O  O300  1  0.23952226  0.26424949  0.61348028  1
  O  O301  1  0.24508974  0.76458294  0.11846971  1
  O  O302  1  0.25245861  0.75606783  0.63284896  1
  O  O303  1  0.74767605  0.25296490  0.11618423  1
  O  O304  1  0.75641379  0.25872212  0.61786803  1
  O  O305  1  0.74794226  0.75067401  0.11478427  1
  O  O306  1  0.75518857  0.75231567  0.61917836  1
  O  O307  1  0.23452287  0.25356060  0.38719614  1
  O  O308  1  0.23998753  0.24183707  0.87464049  1
  O  O309  1  0.23720216  0.74151621  0.37509104  1
  O  O310  1  0.24692813  0.74638636  0.88000429  1
  O  O311  1  0.74368996  0.24385952  0.37809110  1
  O  O312  1  0.75170961  0.24028455  0.88984610  1
  O  O313  1  0.74856192  0.74204104  0.38303380  1
  O  O314  1  0.75394255  0.73588705  0.87767533  1
  O  O315  1  -0.00668660  0.10990777  -0.00405112  1
  O  O316  1  0.00614650  0.12832710  0.51196316  1
  O  O317  1  0.00672302  0.62089852  0.00380289  1
  O  O318  1  -0.00929522  0.62023141  0.51067486  1
  O  O319  1  0.49673812  0.11200058  0.01177761  1
  O  O320  1  0.50661118  0.12452902  0.50572691  1
  O  O321  1  0.50361446  0.61905249  0.00415986  1
  O  O322  1  0.49789074  0.63004520  0.51329753  1
  O  O323  1  0.49647856  0.37435135  0.48126634  1
  O  O324  1  0.49649715  0.38386031  0.99627310  1
  O  O325  1  0.49541351  0.87958230  0.49842743  1
  O  O326  1  0.50784530  0.88547072  0.99238026  1
  O  O327  1  0.99095990  0.38578649  0.50800178  1
  O  O328  1  0.99299002  0.38393991  0.99700749  1
  O  O329  1  0.99228532  0.87438774  0.48706679  1
  O  O330  1  0.99338317  0.88095539  0.99180257  1
  O  O331  1  0.49194090  0.49427940  0.36711290  1
  O  O332  1  0.49443768  0.49766945  0.88755692  1
  O  O333  1  0.50462325  0.99435105  0.37388035  1
  O  O334  1  0.49485226  0.99614371  0.88095361  1
  O  O335  1  0.99884669  0.50949354  0.38871560  1
  O  O336  1  0.99523047  0.50176157  0.88298392  1
  O  O337  1  0.99140497  0.99429734  0.37163088  1
  O  O338  1  0.99825561  0.99465967  0.87990109  1
  O  O339  1  0.00423464  0.00103102  0.11326347  1
  O  O340  1  0.00606761  0.00724843  0.63090427  1
  O  O341  1  0.00567058  0.50906401  0.11031899  1
  O  O342  1  0.00450765  0.50939493  0.61661393  1
  O  O343  1  0.50538472  0.00364350  0.11779669  1
  O  O344  1  0.51189969  -0.00443220  0.63023087  1
  O  O345  1  0.50266502  0.50586434  0.11560449  1
  O  O346  1  0.50991294  0.50288463  0.63285308  1
  O  O347  1  0.23317511  0.37068275  0.25312773  1
  O  O348  1  0.24567577  0.37778199  0.73669133  1
  O  O349  1  0.24680262  0.88048311  0.24128960  1
  O  O350  1  0.25002759  0.88505464  0.74496657  1
  O  O351  1  0.74436250  0.38142760  0.24354895  1
  O  O352  1  0.76219107  0.38577824  0.73935956  1
  O  O353  1  0.74319905  0.88274648  0.25051163  1
  O  O354  1  0.74302787  0.87529887  0.74864716  1
  O  O355  1  0.26121275  0.10931943  0.25103970  1
  O  O356  1  0.24537182  0.11045847  0.76566903  1
  O  O357  1  0.25570983  0.62842436  0.25614278  1
  O  O358  1  0.24611543  0.62212984  0.76475219  1
  O  O359  1  0.75776819  0.12264709  0.25899059  1
  O  O360  1  0.75231606  0.11522599  0.76021958  1
  O  O361  1  0.74764938  0.61586062  0.25424083  1
  O  O362  1  0.75337059  0.61885038  0.75472232  1
  O  O363  1  0.38316471  0.13276431  0.35893568  1
  O  O364  1  0.36529119  0.11585576  0.88272020  1
  O  O365  1  0.36557532  0.62304233  0.36589808  1
  O  O366  1  0.36612402  0.61242009  0.88076222  1
  O  O367  1  0.86832526  0.11941171  0.37038876  1
  O  O368  1  0.86683732  0.11793025  0.86797023  1
  O  O369  1  0.86224983  0.62093831  0.37078927  1
  O  O370  1  0.86813742  0.61853151  0.86931399  1
  O  O371  1  0.11861920  0.37364345  0.14254724  1
  O  O372  1  0.13342109  0.38363147  0.62660546  1
  O  O373  1  0.12698573  0.87733385  0.13810137  1
  O  O374  1  0.12873347  0.88883199  0.62203855  1
  O  O375  1  0.63037491  0.37958060  0.12954443  1
  O  O376  1  0.64032936  0.38015002  0.62313817  1
  O  O377  1  0.62603311  0.88335771  0.13575411  1
  O  O378  1  0.63077556  0.88077194  0.63252639  1
  O  O379  1  0.11221625  0.25632669  0.25929676  1
  O  O380  1  0.10874286  0.25014617  0.75746897  1
  O  O381  1  0.11923031  0.76104545  0.25826090  1
  O  O382  1  0.11929788  0.74627346  0.76516518  1
  O  O383  1  0.63310225  0.26174948  0.25693403  1
  O  O384  1  0.65511470  0.26134004  0.77578381  1
  O  O385  1  0.61845873  0.75827848  0.24787713  1
  O  O386  1  0.61736947  0.76022464  0.74377226  1
  O  O387  1  0.36181318  0.23361451  0.24216451  1
  O  O388  1  0.36871087  0.24347163  0.75583642  1
  O  O389  1  0.38241781  0.73597199  0.24716215  1
  O  O390  1  0.38567672  0.75031203  0.74291987  1
  O  O391  1  0.88617436  0.24401682  0.25403034  1
  O  O392  1  0.88073395  0.24369035  0.74524427  1
  O  O393  1  0.88149619  0.74848925  0.25011853  1
  O  O394  1  0.88233628  0.74491304  0.74479371  1
  O  O395  1  0.36994590  0.49864176  0.48210061  1
  O  O396  1  0.38221887  0.49083237  0.99490861  1
  O  O397  1  0.36604247  0.99279663  0.49989695  1
  O  O398  1  0.38503578  0.99615014  0.98854899  1
  O  O399  1  0.88322908  0.49145867  0.49859335  1
  O  O400  1  0.88176635  0.49505698  0.99200149  1
  O  O401  1  0.86729442  0.99601318  0.48699987  1
  O  O402  1  0.88692757  0.99054602  0.99429319  1
  O  O403  1  0.10989451  -0.00210125  0.00281809  1
  O  O404  1  0.13383870  0.01194837  0.50737477  1
  O  O405  1  0.11741629  0.50816931  -0.00436128  1
  O  O406  1  0.11616661  0.49526918  0.50999626  1
  O  O407  1  0.62099869  -0.00379732  0.01299171  1
  O  O408  1  0.62833862  -0.00540435  0.51493709  1
  O  O409  1  0.61617318  0.50690733  0.00455093  1
  O  O410  1  0.63146106  0.50018144  0.51242595  1
  O  O411  1  0.37788485  0.37220399  0.11320935  1
  O  O412  1  0.35335700  0.38662238  0.61549232  1
  O  O413  1  0.36523768  0.87599872  0.12975485  1
  O  O414  1  0.36355319  0.86419586  0.63029249  1
  O  O415  1  0.86931600  0.38292297  0.11110736  1
  O  O416  1  0.86719228  0.37180402  0.61508019  1
  O  O417  1  0.87718636  0.88189012  0.11071037  1
  O  O418  1  0.87124004  0.86826670  0.61973347  1
  O  O419  1  0.11852230  0.13493957  0.38716281  1
  O  O420  1  0.13148582  0.13743387  0.87555991  1
  O  O421  1  0.13041017  0.63469815  0.36636123  1
  O  O422  1  0.13090031  0.63186226  0.88457034  1
  O  O423  1  0.63301027  0.13410878  0.36859120  1
  O  O424  1  0.63896869  0.12803019  0.87883267  1
  O  O425  1  0.63808142  0.62335818  0.37722888  1
  O  O426  1  0.63310029  0.61637258  0.88215666  1
