# generated using pymatgen
data_V85Zn86O256
_symmetry_space_group_name_H-M   'P 1'
_cell_length_a   16.92096572
_cell_length_b   16.92987600
_cell_length_c   16.92240126
_cell_angle_alpha   89.99091603
_cell_angle_beta   90.00796281
_cell_angle_gamma   89.96846949
_symmetry_Int_Tables_number   1
_chemical_formula_structural   V85Zn86O256
_chemical_formula_sum   'V85 Zn86 O256'
_cell_volume   4847.75693273
_cell_formula_units_Z   1
loop_
 _symmetry_equiv_pos_site_id
 _symmetry_equiv_pos_as_xyz
  1  'x, y, z'
loop_
 _atom_site_type_symbol
 _atom_site_label
 _atom_site_symmetry_multiplicity
 _atom_site_fract_x
 _atom_site_fract_y
 _atom_site_fract_z
 _atom_site_occupancy
  V  V0  1  0.75221402  0.62358977  0.86864296  1
  V  V1  1  0.85866121  0.75291071  0.13027088  1
  V  V2  1  0.25407855  0.00085926  0.25196027  1
  V  V3  1  0.49759996  0.37227160  0.37120624  1
  V  V4  1  0.38066668  0.87188191  0.48987980  1
  V  V5  1  0.37545002  -0.00284921  0.88176591  1
  V  V6  1  0.24522007  0.38346967  0.12448143  1
  V  V7  1  0.12289853  0.74309429  0.37334942  1
  V  V8  1  0.62244604  0.11995044  0.49865111  1
  V  V9  1  -0.00324665  0.87498516  0.37674463  1
  V  V10  1  0.74741903  0.12260805  0.36918409  1
  V  V11  1  0.62600212  0.37592892  0.74672601  1
  V  V12  1  0.62288185  0.37427887  0.25282871  1
  V  V13  1  0.37445612  0.51268794  0.87044313  1
  V  V14  1  0.86664678  0.87267300  0.50871422  1
  V  V15  1  0.75064055  -0.01623237  0.24613606  1
  V  V16  1  0.49972515  0.61839919  0.63532894  1
  V  V17  1  -0.00006279  0.13579964  0.62307350  1
  V  V18  1  0.37312177  0.74209454  0.63263356  1
  V  V19  1  0.74999935  0.37335989  0.12846015  1
  V  V20  1  -0.00054648  0.74906252  0.74103162  1
  V  V21  1  0.00494206  0.50184652  0.00275982  1
  V  V22  1  0.49802391  0.87367406  0.88395583  1
  V  V23  1  0.62440611  0.87210850  0.74136670  1
  V  V24  1  0.86970286  0.87619616  0.00428998  1
  V  V25  1  0.37282427  0.12864618  0.74158208  1
  V  V26  1  0.37382946  0.37720217  -0.00065687  1
  V  V27  1  0.87712512  0.50161325  0.37443469  1
  V  V28  1  0.62185782  0.24953599  0.87432848  1
  V  V29  1  0.74799454  0.12283909  0.87283833  1
  V  V30  1  0.24620204  0.51202932  0.74293699  1
  V  V31  1  0.00633423  0.00092591  0.50168166  1
  V  V32  1  -0.00182137  0.62612017  0.12545733  1
  V  V33  1  0.75441559  0.36777346  0.62403046  1
  V  V34  1  0.00099129  0.01202222  0.00474095  1
  V  V35  1  0.75006814  -0.00545161  0.73962284  1
  V  V36  1  0.74895951  0.75189275  -0.00219951  1
  V  V37  1  0.25082100  0.00081320  0.75076216  1
  V  V38  1  0.12514127  0.87654511  0.75107536  1
  V  V39  1  0.37551994  0.36634815  0.50708061  1
  V  V40  1  0.50075080  0.50013802  0.00160452  1
  V  V41  1  0.24579383  0.24759677  0.00223017  1
  V  V42  1  0.87823053  0.36974264  0.50425397  1
  V  V43  1  0.12186090  0.62169329  0.51383319  1
  V  V44  1  0.88607290  0.12797170  0.24673235  1
  V  V45  1  0.50458179  0.12921605  0.13687547  1
  V  V46  1  0.24645884  0.13638305  0.37539114  1
  V  V47  1  0.75138018  0.50840049  0.25161289  1
  V  V48  1  0.12155624  0.36210165  0.25025977  1
  V  V49  1  0.26313475  0.87065754  0.11869002  1
  V  V50  1  0.12579385  0.87397614  0.24510533  1
  V  V51  1  0.62198517  0.25010092  0.36812555  1
  V  V52  1  0.12957107  0.62499848  0.00353093  1
  V  V53  1  0.62109215  0.12469978  0.00144049  1
  V  V54  1  0.87722634  0.37780568  0.00044259  1
  V  V55  1  0.37987287  0.25185139  0.13131645  1
  V  V56  1  0.12247806  0.01157238  0.12237801  1
  V  V57  1  0.87530787  -0.00132211  0.37272042  1
  V  V58  1  -0.00946182  0.75121238  0.25019323  1
  V  V59  1  0.87391672  0.00015365  0.87453023  1
  V  V60  1  0.62499562  0.74969751  0.87164856  1
  V  V61  1  0.87431911  0.13190898  0.74402235  1
  V  V62  1  0.74988205  0.24980454  0.00189194  1
  V  V63  1  0.00551238  0.36331375  0.37320014  1
  V  V64  1  0.00560553  0.50155170  0.50884667  1
  V  V65  1  0.25173285  0.87588469  0.62272268  1
  V  V66  1  0.50051481  0.50754154  0.49304191  1
  V  V67  1  0.63132377  -0.01693222  0.12370073  1
  V  V68  1  0.70672692  0.69533529  0.47725567  1
  V  V69  1  0.23774155  0.50737158  0.24994645  1
  V  V70  1  0.24886472  0.74656180  0.49792628  1
  V  V71  1  0.12255807  0.25209049  0.87418025  1
  V  V72  1  0.88973535  0.24672939  0.12822778  1
  V  V73  1  0.88035007  0.62395256  0.74198848  1
  V  V74  1  0.49743680  0.37440088  0.87322784  1
  V  V75  1  0.55518074  0.80993455  0.28819138  1
  V  V76  1  0.39889917  0.62341009  0.24597684  1
  V  V77  1  0.24584023  0.12508974  0.87845577  1
  V  V78  1  0.12695526  0.75358591  0.88386353  1
  V  V79  1  0.75530635  0.24862825  0.50017348  1
  V  V80  1  0.24576288  0.36814083  0.62959370  1
  V  V81  1  0.49515827  0.25131018  0.73752428  1
  V  V82  1  0.62556610  0.62431160  0.00067207  1
  V  V83  1  0.62053406  0.50483039  0.12956123  1
  V  V84  1  -0.00082343  0.87706997  0.87606910  1
  Zn  Zn85  1  0.75355060  0.49744783  0.74925490  1
  Zn  Zn86  1  0.49900631  0.12191724  0.62264519  1
  Zn  Zn87  1  0.27732961  0.75058042  0.00391887  1
  Zn  Zn88  1  0.37128517  0.50021448  0.37463977  1
  Zn  Zn89  1  0.37843595  0.00066423  0.37413654  1
  Zn  Zn90  1  0.00272622  0.37804583  0.87414676  1
  Zn  Zn91  1  -0.00133197  0.25625341  0.74585673  1
  Zn  Zn92  1  0.50271149  -0.00812832  0.49896654  1
  Zn  Zn93  1  0.49721358  -0.00143467  0.00203368  1
  Zn  Zn94  1  0.49431466  0.74802360  0.75259388  1
  Zn  Zn95  1  0.63146505  0.50206492  0.61857802  1
  Zn  Zn96  1  0.12643723  0.00378081  0.62412683  1
  Zn  Zn97  1  0.85178247  0.74747626  0.61846427  1
  Zn  Zn98  1  0.25310874  0.62448237  0.37382307  1
  Zn  Zn99  1  0.62450269  -0.00465161  0.61988830  1
  Zn  Zn100  1  0.12222073  0.13704046  0.49485627  1
  Zn  Zn101  1  0.24977980  0.24997168  0.50274817  1
  Zn  Zn102  1  0.38123535  0.12992367  0.25537803  1
  Zn  Zn103  1  0.87797466  0.50176417  0.87429181  1
  Zn  Zn104  1  0.12034476  0.38223583  0.74841476  1
  Zn  Zn105  1  0.87186058  0.62579747  0.25485137  1
  Zn  Zn106  1  0.25490290  0.63121564  0.87482012  1
  Zn  Zn107  1  0.19207099  0.18825458  0.18786883  1
  Zn  Zn108  1  0.18283740  0.18906298  0.68748554  1
  Zn  Zn109  1  0.18440094  0.68998936  0.18525307  1
  Zn  Zn110  1  0.18595736  0.69035181  0.69042626  1
  Zn  Zn111  1  0.69256961  0.18358793  0.18904123  1
  Zn  Zn112  1  0.68613175  0.18703710  0.68471071  1
  Zn  Zn113  1  0.63886878  0.72695962  0.15550427  1
  Zn  Zn114  1  0.68721490  0.68830691  0.67691832  1
  Zn  Zn115  1  0.31267106  0.31731329  0.31148756  1
  Zn  Zn116  1  0.31118493  0.31526776  0.81099259  1
  Zn  Zn117  1  0.31498163  0.80372842  0.30519443  1
  Zn  Zn118  1  0.31179225  0.81371368  0.81470685  1
  Zn  Zn119  1  0.81555767  0.31362400  0.31417539  1
  Zn  Zn120  1  0.81269667  0.31122955  0.81569281  1
  Zn  Zn121  1  0.75843929  0.77766954  0.30262118  1
  Zn  Zn122  1  0.81338444  0.81194888  0.80944129  1
  Zn  Zn123  1  0.18684729  0.43364354  0.43692618  1
  Zn  Zn124  1  0.18828755  0.44131312  0.93492168  1
  Zn  Zn125  1  0.18882777  0.93714947  0.43364596  1
  Zn  Zn126  1  0.18773269  0.93945551  0.94225280  1
  Zn  Zn127  1  0.68507647  0.52463005  0.43437558  1
  Zn  Zn128  1  0.68924562  0.43836586  0.93656274  1
  Zn  Zn129  1  0.68361596  0.92669765  0.42897755  1
  Zn  Zn130  1  0.68481220  0.93683136  0.93393454  1
  Zn  Zn131  1  0.31144033  0.06435824  0.06536440  1
  Zn  Zn132  1  0.31178283  0.06035204  0.55938166  1
  Zn  Zn133  1  0.31710745  0.56735637  0.06682157  1
  Zn  Zn134  1  0.31425588  0.55968396  0.56013976  1
  Zn  Zn135  1  0.81144439  0.06396557  0.06431238  1
  Zn  Zn136  1  0.81542544  0.06145504  0.56018485  1
  Zn  Zn137  1  0.81153578  0.56356460  0.06367685  1
  Zn  Zn138  1  0.82317238  0.55215666  0.57136138  1
  Zn  Zn139  1  0.43432160  0.44341244  0.19079086  1
  Zn  Zn140  1  0.43117009  0.43954818  0.68741286  1
  Zn  Zn141  1  0.43853545  0.94554656  0.18089273  1
  Zn  Zn142  1  0.43993656  0.93779356  0.68625121  1
  Zn  Zn143  1  0.94131725  0.43727547  0.18609224  1
  Zn  Zn144  1  0.93844770  0.43682009  0.68801231  1
  Zn  Zn145  1  0.93574435  0.93801144  0.18579314  1
  Zn  Zn146  1  0.93766799  0.94059618  0.68510864  1
  Zn  Zn147  1  0.06674474  0.06202064  0.31144837  1
  Zn  Zn148  1  0.06216420  0.06471878  0.81237886  1
  Zn  Zn149  1  0.05862646  0.55895543  0.31382032  1
  Zn  Zn150  1  0.06431571  0.56586347  0.81680002  1
  Zn  Zn151  1  0.56029200  -0.01940891  0.31483400  1
  Zn  Zn152  1  0.56064750  0.06026080  0.80866549  1
  Zn  Zn153  1  0.58530357  0.65235015  0.31854321  1
  Zn  Zn154  1  0.56315317  0.56007110  0.81119898  1
  Zn  Zn155  1  0.43803235  0.18423531  0.43307025  1
  Zn  Zn156  1  0.43398623  0.18733008  0.93615876  1
  Zn  Zn157  1  0.43801578  0.68908693  0.43214958  1
  Zn  Zn158  1  0.44377838  0.69209745  0.94643440  1
  Zn  Zn159  1  0.93728975  0.18542741  0.43468676  1
  Zn  Zn160  1  0.93503440  0.18880763  0.93654496  1
  Zn  Zn161  1  0.93096837  0.68681373  0.43985957  1
  Zn  Zn162  1  0.93786440  0.68977725  0.93538898  1
  Zn  Zn163  1  0.06685622  0.31423411  0.06265137  1
  Zn  Zn164  1  0.06992005  0.31395458  0.56028761  1
  Zn  Zn165  1  0.05571641  0.81606345  0.06527059  1
  Zn  Zn166  1  0.06445066  0.81355632  0.56056246  1
  Zn  Zn167  1  0.56231965  0.31376013  0.06337916  1
  Zn  Zn168  1  0.56720359  0.31417765  0.55553481  1
  Zn  Zn169  1  0.42600647  0.75498737  0.13394799  1
  Zn  Zn170  1  0.56127753  0.80490777  0.56422020  1
  O  O171  1  0.13262586  0.11079066  0.12839869  1
  O  O172  1  0.11548061  0.12216285  0.62205202  1
  O  O173  1  0.10812327  0.63665465  0.11574785  1
  O  O174  1  0.12546405  0.63106413  0.61306457  1
  O  O175  1  0.62045115  0.12749291  0.11576374  1
  O  O176  1  0.62625990  0.12119960  0.61312418  1
  O  O177  1  0.63093140  0.61684222  0.11265996  1
  O  O178  1  0.60515682  0.61832896  0.62801398  1
  O  O179  1  0.38140275  0.37681262  0.38162711  1
  O  O180  1  0.37844543  0.38271949  0.88191819  1
  O  O181  1  0.36650720  0.86921947  0.38792882  1
  O  O182  1  0.38337820  0.88536408  0.86927307  1
  O  O183  1  0.88304316  0.37947849  0.38493908  1
  O  O184  1  0.87545471  0.37497119  0.89006034  1
  O  O185  1  0.89068041  0.88083174  0.38353884  1
  O  O186  1  0.88057496  0.88087513  0.87956244  1
  O  O187  1  0.25469715  0.00403740  0.36546486  1
  O  O188  1  0.25453660  0.00646535  0.87207777  1
  O  O189  1  0.24883158  0.50127317  0.36125327  1
  O  O190  1  0.25936185  0.50525462  0.86772114  1
  O  O191  1  0.75406631  0.00547340  0.36606589  1
  O  O192  1  0.75404325  0.00647383  0.86657913  1
  O  O193  1  0.76301347  0.48503281  0.36174907  1
  O  O194  1  0.75263722  0.51157061  0.87184600  1
  O  O195  1  0.25436976  0.49052239  0.13499007  1
  O  O196  1  0.25543121  0.49648247  0.63974947  1
  O  O197  1  0.24436736  0.98893772  0.12941216  1
  O  O198  1  0.24902471  0.99140113  0.63096787  1
  O  O199  1  0.74364870  0.49120438  0.12844481  1
  O  O200  1  0.74957218  0.48155053  0.63018297  1
  O  O201  1  0.74021970  1.00219040  0.13072846  1
  O  O202  1  0.75024937  1.00204939  0.63695046  1
  O  O203  1  0.01446253  0.37917125  0.25431936  1
  O  O204  1  0.00169022  0.37319415  0.75584281  1
  O  O205  1  0.00492768  0.87096439  0.25699456  1
  O  O206  1  0.00563213  0.87268497  0.75634043  1
  O  O207  1  0.50232607  0.38244994  0.26413847  1
  O  O208  1  0.50479487  0.36952310  0.75238873  1
  O  O209  1  0.49371284  0.89249555  0.26502387  1
  O  O210  1  0.50879628  0.87231685  0.75696415  1
  O  O211  1  0.50031279  0.12366145  0.23614456  1
  O  O212  1  0.49166184  0.13405760  0.74918105  1
  O  O213  1  0.49785839  0.61161383  0.25567805  1
  O  O214  1  0.49557583  0.62270288  0.73905529  1
  O  O215  1  0.98551295  0.11997045  0.25693224  1
  O  O216  1  0.99180331  0.12533605  0.74113196  1
  O  O217  1  0.99628777  0.63148748  0.24199312  1
  O  O218  1  0.99223810  0.63668096  0.76023060  1
  O  O219  1  0.36490571  0.25789781  0.00442674  1
  O  O220  1  0.37040208  0.26250909  0.49584144  1
  O  O221  1  0.38846692  0.74179450  0.02750749  1
  O  O222  1  0.36951668  0.75580048  0.50560995  1
  O  O223  1  0.86863747  0.25671483  0.00614566  1
  O  O224  1  0.86417058  0.25443847  0.49409743  1
  O  O225  1  0.86848894  0.75690931  0.00558081  1
  O  O226  1  0.89289462  0.76896914  0.50786809  1
  O  O227  1  0.13585419  0.25017814  0.49875954  1
  O  O228  1  0.13906965  0.25496431  0.99461393  1
  O  O229  1  0.12677461  0.74250577  0.49115790  1
  O  O230  1  0.11726778  0.74780826  0.99142195  1
  O  O231  1  0.63820538  0.24582023  0.48874166  1
  O  O232  1  0.63000061  0.24452732  0.99456211  1
  O  O233  1  0.62546979  0.75688062  0.48750747  1
  O  O234  1  0.63421173  0.73859133  0.99093556  1
  O  O235  1  0.49091462  0.24311272  0.11743377  1
  O  O236  1  0.50522480  0.24985297  0.63553350  1
  O  O237  1  0.53310295  0.76928249  0.18519844  1
  O  O238  1  0.49131643  0.73525989  0.62721125  1
  O  O239  1  0.98871041  0.25304708  0.11948442  1
  O  O240  1  1.00148141  0.23940212  0.62376925  1
  O  O241  1  0.98487549  0.74734625  0.13243599  1
  O  O242  1  1.00680399  0.75592572  0.64072208  1
  O  O243  1  -0.00446765  0.26372773  0.37642888  1
  O  O244  1  0.01436676  0.24924177  0.88004207  1
  O  O245  1  0.00319336  0.75628852  0.36962047  1
  O  O246  1  0.00622611  0.76002831  0.86919930  1
  O  O247  1  0.51082270  0.25767338  0.37831152  1
  O  O248  1  0.50446399  0.25608680  0.86848532  1
  O  O249  1  0.50873709  0.74737405  0.35541541  1
  O  O250  1  0.50616313  0.75560607  0.87138701  1
  O  O251  1  0.25098432  0.12500522  0.48652227  1
  O  O252  1  0.25518610  0.13558189  0.99158126  1
  O  O253  1  0.24105554  0.62812069  0.49632883  1
  O  O254  1  0.24096633  0.63053660  1.00540782  1
  O  O255  1  0.74681900  0.12968065  0.49262780  1
  O  O256  1  0.73939201  0.12916081  0.99493329  1
  O  O257  1  0.74530063  0.59612395  0.50483602  1
  O  O258  1  0.74444446  0.62751737  0.98967651  1
  O  O259  1  0.25345859  0.37309625  0.00836289  1
  O  O260  1  0.25739755  0.38063644  0.51292094  1
  O  O261  1  0.25042786  0.87497224  0.01578721  1
  O  O262  1  0.25274230  0.86658825  0.50652795  1
  O  O263  1  0.75652506  0.37274320  0.00953153  1
  O  O264  1  0.76180961  0.36489319  0.50778961  1
  O  O265  1  0.76250698  0.86975431  -0.01009702  1
  O  O266  1  0.76891485  0.88275034  0.49334183  1
  O  O267  1  0.13483720  0.49451374  0.24923604  1
  O  O268  1  0.14193154  0.50091852  0.75931390  1
  O  O269  1  0.13421888  0.99173443  0.24440332  1
  O  O270  1  0.13255930  0.99315822  0.75046234  1
  O  O271  1  0.63581685  0.49078542  0.24073268  1
  O  O272  1  0.62641808  0.48503592  0.74747660  1
  O  O273  1  0.63632742  1.00405050  0.23227847  1
  O  O274  1  0.63354872  0.99163532  0.74878480  1
  O  O275  1  0.36204173  0.00564737  0.24547963  1
  O  O276  1  0.36886892  0.00769105  0.75865929  1
  O  O277  1  0.36257013  0.50945281  0.25359618  1
  O  O278  1  0.36241981  0.49741101  0.76106963  1
  O  O279  1  0.86975669  0.00560441  0.25381376  1
  O  O280  1  0.86827625  0.00650266  0.75556941  1
  O  O281  1  0.87011156  0.49657827  0.25641202  1
  O  O282  1  0.87542363  0.50899782  0.75399203  1
  O  O283  1  0.11993263  0.37769438  0.36021100  1
  O  O284  1  0.12573730  0.36605738  0.87421670  1
  O  O285  1  0.11734108  0.86699929  0.36558462  1
  O  O286  1  0.12089624  0.87072340  0.87317603  1
  O  O287  1  0.61631469  0.36531317  0.36734700  1
  O  O288  1  0.62043863  0.37001086  0.86767235  1
  O  O289  1  0.61712073  0.87783116  0.34885103  1
  O  O290  1  0.61843386  0.86831248  0.86615890  1
  O  O291  1  0.38473658  0.13439821  0.12367483  1
  O  O292  1  0.37371655  0.12136168  0.63765198  1
  O  O293  1  0.38623740  0.61574518  0.14281790  1
  O  O294  1  0.38441155  0.63186943  0.61875750  1
  O  O295  1  0.86993543  0.13529005  0.13347275  1
  O  O296  1  0.88416391  0.11923920  0.63360842  1
  O  O297  1  0.88220149  0.63559033  0.12386958  1
  O  O298  1  0.87816075  0.62793136  0.63763136  1
  O  O299  1  0.25618706  0.25931736  0.11788016  1
  O  O300  1  0.25169919  0.26498500  0.62994153  1
  O  O301  1  0.24273593  0.76792016  0.12457967  1
  O  O302  1  0.25514873  0.75469156  0.61910245  1
  O  O303  1  0.75433039  0.25821867  0.11897462  1
  O  O304  1  0.74766558  0.25782840  0.61604090  1
  O  O305  1  0.75282220  0.74717880  0.11563102  1
  O  O306  1  0.74198877  0.72618197  0.58523409  1
  O  O307  1  0.25129651  0.23826040  0.37019858  1
  O  O308  1  0.24351068  0.24484839  0.88124660  1
  O  O309  1  0.23850390  0.74796746  0.37791616  1
  O  O310  1  0.24385588  0.75147458  0.88523774  1
  O  O311  1  0.74663735  0.24286257  0.38006667  1
  O  O312  1  0.74241392  0.24319040  0.88179923  1
  O  O313  1  0.76955128  0.73644760  0.40841071  1
  O  O314  1  0.74695373  0.74015085  0.87760104  1
  O  O315  1  -0.00726202  0.11096436  -0.00235321  1
  O  O316  1  -0.00065709  0.11802204  0.50528368  1
  O  O317  1  0.00472113  0.62167529  0.00549518  1
  O  O318  1  0.00561087  0.60960010  0.49421563  1
  O  O319  1  0.51171823  0.12458903  0.00110001  1
  O  O320  1  0.51652170  0.13543131  0.50319466  1
  O  O321  1  0.51867996  0.61399155  -0.00876329  1
  O  O322  1  0.49274416  0.61090100  0.50415525  1
  O  O323  1  0.49132047  0.37794443  0.49416569  1
  O  O324  1  0.49559970  0.38096420  0.99310240  1
  O  O325  1  0.48317039  0.86934685  0.50334564  1
  O  O326  1  0.50531866  0.88037607  0.98306330  1
  O  O327  1  0.99802344  0.38155396  0.49386629  1
  O  O328  1  0.99427630  0.38471199  1.00194516  1
  O  O329  1  1.00039621  0.88384296  0.49360646  1
  O  O330  1  0.98661324  0.88095275  0.99440655  1
  O  O331  1  0.49702499  0.49073965  0.38905156  1
  O  O332  1  0.49288306  0.49325606  0.87802365  1
  O  O333  1  0.49007970  1.01902099  0.38905982  1
  O  O334  1  0.49121368  0.99412701  0.87420639  1
  O  O335  1  0.99353045  0.48762216  0.37985462  1
  O  O336  1  0.99821921  0.50128516  0.88990885  1
  O  O337  1  0.99816018  0.99341980  0.38083910  1
  O  O338  1  0.99500527  0.99502566  0.88147894  1
  O  O339  1  0.00909152  -0.00456402  0.11712386  1
  O  O340  1  0.00315382  0.00761480  0.61595977  1
  O  O341  1  -0.00633133  0.51217853  0.11370986  1
  O  O342  1  -0.00082985  0.49557242  0.60770730  1
  O  O343  1  0.51405528  0.00901919  0.12004502  1
  O  O344  1  0.50365133  0.00314708  0.61712962  1
  O  O345  1  0.51472535  0.49086023  0.11952151  1
  O  O346  1  0.49478390  0.50848491  0.61767236  1
  O  O347  1  0.24093267  0.38416343  0.24465406  1
  O  O348  1  0.25024331  0.38470796  0.74037558  1
  O  O349  1  0.24363467  0.87982939  0.24339719  1
  O  O350  1  0.24513034  0.87996054  0.74306991  1
  O  O351  1  0.74840074  0.37756987  0.23845830  1
  O  O352  1  0.74343477  0.37005986  0.74415061  1
  O  O353  1  0.76171535  0.88513050  0.25528717  1
  O  O354  1  0.74054855  0.88375623  0.75574863  1
  O  O355  1  0.25187930  0.11794506  0.25820580  1
  O  O356  1  0.25535403  0.12148627  0.75569519  1
  O  O357  1  0.24367072  0.61321619  0.24685863  1
  O  O358  1  0.24939236  0.61632176  0.75291901  1
  O  O359  1  0.75884789  0.11603905  0.25704256  1
  O  O360  1  0.75564232  0.11922242  0.75307201  1
  O  O361  1  0.75303155  0.60809425  0.24609808  1
  O  O362  1  0.75770583  0.62504547  0.75337965  1
  O  O363  1  0.36166932  0.12464397  0.37184681  1
  O  O364  1  0.36424287  0.12046636  0.86627624  1
  O  O365  1  0.37254780  0.62317570  0.36206932  1
  O  O366  1  0.37692033  0.61565446  0.88271167  1
  O  O367  1  0.86549538  0.11846594  0.37009653  1
  O  O368  1  0.86800158  0.11857297  0.86880129  1
  O  O369  1  0.88206145  0.60692803  0.37397795  1
  O  O370  1  0.86655681  0.62788045  0.86619044  1
  O  O371  1  0.13390218  0.37482983  0.13600353  1
  O  O372  1  0.14128802  0.37983398  0.62772866  1
  O  O373  1  0.12632363  0.87998039  0.13645752  1
  O  O374  1  0.13807002  0.87491330  0.62970276  1
  O  O375  1  0.63294596  0.37989624  0.12961159  1
  O  O376  1  0.63385987  0.37236880  0.63228797  1
  O  O377  1  0.62831954  0.88785114  0.11725204  1
  O  O378  1  0.62099200  0.87319218  0.63720102  1
  O  O379  1  0.12851925  0.26344403  0.24687661  1
  O  O380  1  0.12215488  0.25469634  0.76065916  1
  O  O381  1  0.11604281  0.75680683  0.25574821  1
  O  O382  1  0.12065565  0.75582775  0.76388794  1
  O  O383  1  0.63377489  0.25434048  0.26126605  1
  O  O384  1  0.61771254  0.25778781  0.75476119  1
  O  O385  1  0.65042090  0.74451076  0.27014042  1
  O  O386  1  0.62623290  0.75529923  0.75419640  1
  O  O387  1  0.36987785  0.25119810  0.23472993  1
  O  O388  1  0.38402300  0.24182268  0.75731247  1
  O  O389  1  0.37504857  0.72902731  0.24252975  1
  O  O390  1  0.37262701  0.75317250  0.73640598  1
  O  O391  1  0.86995005  0.24169450  0.24007454  1
  O  O392  1  0.87755234  0.23560373  0.75738750  1
  O  O393  1  0.86635431  0.74738143  0.24407933  1
  O  O394  1  0.88137095  0.74605917  0.74141360  1
  O  O395  1  0.38400878  0.48914324  0.49704134  1
  O  O396  1  0.38089826  0.49611980  0.99497179  1
  O  O397  1  0.36987152  0.97927373  0.50038831  1
  O  O398  1  0.37599034  1.00774182  0.98610048  1
  O  O399  1  0.88724869  0.48936495  0.49368750  1
  O  O400  1  0.88092085  0.49265462  1.00003604  1
  O  O401  1  0.88668568  0.99173473  0.49412716  1
  O  O402  1  0.87763661  0.99361774  0.99678718  1
  O  O403  1  0.11326897  -0.00553394  0.00997205  1
  O  O404  1  0.11470432  0.00082055  0.49901197  1
  O  O405  1  0.11879078  0.51312704  -0.00163426  1
  O  O406  1  0.11385193  0.50679579  0.49310973  1
  O  O407  1  0.62783135  0.00853561  0.00861484  1
  O  O408  1  0.62888906  0.00650555  0.49775549  1
  O  O409  1  0.62366848  0.50409213  0.00745677  1
  O  O410  1  0.60301959  0.48444366  0.50539628  1
  O  O411  1  0.36908307  0.37096665  0.11945879  1
  O  O412  1  0.36319271  0.37860600  0.61763366  1
  O  O413  1  0.36534404  0.87219368  0.13121275  1
  O  O414  1  0.36491182  0.86672496  0.61895097  1
  O  O415  1  0.86960832  0.36967505  0.11728678  1
  O  O416  1  0.87161163  0.37489731  0.61265503  1
  O  O417  1  0.87631399  0.86524335  0.11598214  1
  O  O418  1  0.87460104  0.87542816  0.61321946  1
  O  O419  1  0.14174057  0.11896881  0.37512244  1
  O  O420  1  0.13885095  0.13157065  0.87030464  1
  O  O421  1  0.12195656  0.63581057  0.37711082  1
  O  O422  1  0.12835107  0.63645928  0.88732792  1
  O  O423  1  0.63908524  0.13226587  0.38115846  1
  O  O424  1  0.62799855  0.12850220  0.88033037  1
  O  O425  1  0.64543187  0.62843897  0.40714477  1
  O  O426  1  0.63406155  0.62814370  0.87570498  1
