# generated using pymatgen
data_V85Zn86O256
_symmetry_space_group_name_H-M   'P 1'
_cell_length_a   16.94759716
_cell_length_b   16.95126605
_cell_length_c   16.95373911
_cell_angle_alpha   89.99982068
_cell_angle_beta   89.94524834
_cell_angle_gamma   90.10488150
_symmetry_Int_Tables_number   1
_chemical_formula_structural   V85Zn86O256
_chemical_formula_sum   'V85 Zn86 O256'
_cell_volume   4870.51452392
_cell_formula_units_Z   1
loop_
 _symmetry_equiv_pos_site_id
 _symmetry_equiv_pos_as_xyz
  1  'x, y, z'
loop_
 _atom_site_type_symbol
 _atom_site_label
 _atom_site_symmetry_multiplicity
 _atom_site_fract_x
 _atom_site_fract_y
 _atom_site_fract_z
 _atom_site_occupancy
  V  V0  1  0.13138915  0.87494593  0.74714222  1
  V  V1  1  0.25179215  0.75101153  0.49822381  1
  V  V2  1  0.37695557  0.13417605  0.24378375  1
  V  V3  1  0.12164400  0.74635025  0.86920639  1
  V  V4  1  0.74629936  0.88251863  0.12551816  1
  V  V5  1  -0.00063387  0.49926263  0.50488785  1
  V  V6  1  0.13412002  0.00720057  0.62781602  1
  V  V7  1  0.37234946  0.75191417  0.62280164  1
  V  V8  1  0.38349294  0.23800124  0.62830765  1
  V  V9  1  0.88257813  0.62685856  0.75175473  1
  V  V10  1  0.37516638  0.74829903  0.12079147  1
  V  V11  1  0.13144706  0.49648954  0.63816105  1
  V  V12  1  0.87591929  0.00468905  0.87505003  1
  V  V13  1  0.74808505  0.49696566  0.74953779  1
  V  V14  1  0.12362020  0.87587873  0.24983145  1
  V  V15  1  0.48997035  0.87533759  0.38216674  1
  V  V16  1  0.75013686  0.74988303  0.00061003  1
  V  V17  1  0.25409884  0.37278309  0.13695992  1
  V  V18  1  0.87030845  0.62540831  0.25302717  1
  V  V19  1  0.87333591  0.37116592  0.00104948  1
  V  V20  1  0.50253776  0.62723509  0.62135703  1
  V  V21  1  0.50187551  0.23450799  0.75881045  1
  V  V22  1  0.50321744  0.50120154  0.49238909  1
  V  V23  1  0.13158272  0.49542064  0.13848835  1
  V  V24  1  0.74856737  0.62399699  0.87497801  1
  V  V25  1  0.62651371  0.75904393  0.87030152  1
  V  V26  1  0.87400021  0.74966524  0.12598617  1
  V  V27  1  0.12993678  0.25652377  0.86878739  1
  V  V28  1  0.25877543  0.25097897  0.00087235  1
  V  V29  1  0.50548284  -0.00248824  0.00958434  1
  V  V30  1  0.87625377  0.12530614  0.25263804  1
  V  V31  1  0.87496466  0.49868764  0.87690169  1
  V  V32  1  0.61099447  0.25071974  0.37590175  1
  V  V33  1  0.00165144  0.87657869  0.37493635  1
  V  V34  1  0.36095128  0.62343810  0.75593721  1
  V  V35  1  0.13099501  0.62149661  -0.00221114  1
  V  V36  1  0.12375611  0.74880242  0.37365709  1
  V  V37  1  0.62442968  0.50119829  0.62113873  1
  V  V38  1  -0.00053346  0.62315594  0.12498703  1
  V  V39  1  0.74796363  0.24759499  0.50591287  1
  V  V40  1  0.74677968  0.49589191  0.25182033  1
  V  V41  1  0.00230378  0.00275491  0.50689698  1
  V  V42  1  0.61246420  0.37378616  0.76279153  1
  V  V43  1  0.74962955  0.14163902  0.87770521  1
  V  V44  1  0.61061710  0.36760430  0.25436810  1
  V  V45  1  0.61119223  0.11342925  0.50466533  1
  V  V46  1  0.25367501  0.37888271  0.63902375  1
  V  V47  1  0.87288069  0.87386738  0.50130665  1
  V  V48  1  0.00199413  0.00132877  -0.00230143  1
  V  V49  1  0.87142332  0.49687621  0.37887824  1
  V  V50  1  0.50318951  0.75166616  0.75078201  1
  V  V51  1  0.25079222  0.74737758  -0.00749125  1
  V  V52  1  0.25050145  0.87463467  0.12275193  1
  V  V53  1  0.37970666  0.37512625  0.50027994  1
  V  V54  1  0.36957563  0.49489250  0.86991036  1
  V  V55  1  0.12608623  0.00028467  0.12325733  1
  V  V56  1  0.00296716  0.49666228  0.00249752  1
  V  V57  1  0.74774361  0.36629770  0.12467992  1
  V  V58  1  0.62247384  0.88222751  0.24747397  1
  V  V59  1  0.25186443  0.12616228  0.37519564  1
  V  V60  1  0.13243415  0.12817422  -0.00122562  1
  V  V61  1  0.00499529  0.37508641  0.86862544  1
  V  V62  1  0.87646880  0.87551721  0.00061257  1
  V  V63  1  0.50272736  0.75027532  0.24659252  1
  V  V64  1  0.12605353  0.62196055  0.50069816  1
  V  V65  1  0.62986102  0.13588107  -0.00031265  1
  V  V66  1  0.01030630  0.37644632  0.36955693  1
  V  V67  1  0.62543677  0.62368255  -0.00073535  1
  V  V68  1  0.62411523  0.74602989  0.38607961  1
  V  V69  1  0.74810217  0.12350756  0.37724537  1
  V  V70  1  0.88271376  0.75181465  0.63132580  1
  V  V71  1  0.50721118  0.13410998  0.13205815  1
  V  V72  1  0.38106462  0.37389572  -0.00149841  1
  V  V73  1  0.36909339  0.49533960  0.37249696  1
  V  V74  1  0.36732078  0.61889463  0.24808823  1
  V  V75  1  0.49977746  0.62021271  0.12136325  1
  V  V76  1  0.37236484  0.00316642  0.86558838  1
  V  V77  1  0.88707528  0.12809654  0.74265958  1
  V  V78  1  0.62460116  0.49672421  0.12607922  1
  V  V79  1  0.12038837  0.13360212  0.49979238  1
  V  V80  1  0.00220962  0.12734043  0.12686517  1
  V  V81  1  0.87342974  0.24773217  0.12020485  1
  V  V82  1  0.74393696  0.87569618  0.63086797  1
  V  V83  1  0.74143302  -0.00006091  0.75249749  1
  V  V84  1  -0.00105870  0.87314661  0.86578749  1
  Zn  Zn85  1  0.74386507  0.74576974  0.50811253  1
  Zn  Zn86  1  0.88541707  0.25072413  0.62031440  1
  Zn  Zn87  1  0.00503765  0.25704714  0.24731685  1
  Zn  Zn88  1  0.87253914  0.37246456  0.50358716  1
  Zn  Zn89  1  0.37701078  0.87786995  -0.00172548  1
  Zn  Zn90  1  0.60509374  1.01058198  0.63821343  1
  Zn  Zn91  1  0.24635679  0.61988878  0.36888091  1
  Zn  Zn92  1  0.74798391  0.37149691  0.62616208  1
  Zn  Zn93  1  0.38236316  0.00190465  0.38192862  1
  Zn  Zn94  1  0.25050709  0.25375511  0.50074420  1
  Zn  Zn95  1  0.25797545  0.00094068  0.24564433  1
  Zn  Zn96  1  0.00889320  0.25430083  0.74004851  1
  Zn  Zn97  1  0.73870251  0.61939774  0.38558720  1
  Zn  Zn98  1  0.26445494  0.12759507  0.84924327  1
  Zn  Zn99  1  0.87359972  -0.00030711  0.37584581  1
  Zn  Zn100  1  0.00330765  0.62624048  0.63084577  1
  Zn  Zn101  1  0.74660785  0.00322755  0.24804420  1
  Zn  Zn102  1  0.50151692  0.87808214  0.87418966  1
  Zn  Zn103  1  0.25219336  0.87724772  0.62309421  1
  Zn  Zn104  1  -0.00242792  0.75077462  0.24970644  1
  Zn  Zn105  1  0.50477640  0.49140790  -0.01150727  1
  Zn  Zn106  1  0.13307390  0.25643051  0.36642140  1
  Zn  Zn107  1  0.18934218  0.19466341  0.18899199  1
  Zn  Zn108  1  0.19127867  0.19209115  0.68244020  1
  Zn  Zn109  1  0.18544952  0.68847009  0.18367677  1
  Zn  Zn110  1  0.18453575  0.68790843  0.68653268  1
  Zn  Zn111  1  0.68452093  0.18622314  0.18985935  1
  Zn  Zn112  1  0.68412849  0.18597262  0.69139580  1
  Zn  Zn113  1  0.68746235  0.68924405  0.18989014  1
  Zn  Zn114  1  0.68998427  0.68632749  0.68585732  1
  Zn  Zn115  1  0.32277228  0.30936570  0.31540717  1
  Zn  Zn116  1  0.32075893  0.30998958  0.81275569  1
  Zn  Zn117  1  0.31044305  0.80580867  0.30800777  1
  Zn  Zn118  1  0.31587167  0.81543711  0.81371080  1
  Zn  Zn119  1  0.80995819  0.30870924  0.31391746  1
  Zn  Zn120  1  0.81489523  0.31457610  0.80856505  1
  Zn  Zn121  1  0.80928113  0.81311264  0.31433038  1
  Zn  Zn122  1  0.81319945  0.81294787  0.81173025  1
  Zn  Zn123  1  0.19247666  0.43770600  0.44437689  1
  Zn  Zn124  1  0.19424965  0.43801007  0.93835677  1
  Zn  Zn125  1  0.21953599  0.95582381  0.45395224  1
  Zn  Zn126  1  0.19007270  0.93727577  0.93433895  1
  Zn  Zn127  1  0.68460010  0.43241007  0.43915464  1
  Zn  Zn128  1  0.68841369  0.43348594  0.93949455  1
  Zn  Zn129  1  0.68543418  0.93356064  0.43621581  1
  Zn  Zn130  1  0.68754495  0.94267193  0.94040994  1
  Zn  Zn131  1  0.31870709  0.06292249  0.06060432  1
  Zn  Zn132  1  0.31396866  0.06259822  0.55779346  1
  Zn  Zn133  1  0.31194681  0.55584954  0.05830170  1
  Zn  Zn134  1  0.31396369  0.56384656  0.56271073  1
  Zn  Zn135  1  0.81145416  0.06404937  0.06202347  1
  Zn  Zn136  1  0.80821315  0.05983796  0.56411119  1
  Zn  Zn137  1  0.81091541  0.55873072  0.06399503  1
  Zn  Zn138  1  0.81030900  0.56670590  0.56374786  1
  Zn  Zn139  1  0.43435057  0.43599323  0.18432327  1
  Zn  Zn140  1  0.43739230  0.43974184  0.68733222  1
  Zn  Zn141  1  0.43464937  0.94191395  0.19007687  1
  Zn  Zn142  1  0.43522152  0.93702940  0.69072286  1
  Zn  Zn143  1  0.93584371  0.43887484  0.18861597  1
  Zn  Zn144  1  0.93466032  0.43440551  0.68438923  1
  Zn  Zn145  1  0.93641029  0.94103755  0.18808061  1
  Zn  Zn146  1  0.93851316  0.94118963  0.68842266  1
  Zn  Zn147  1  0.06643087  0.06313669  0.31484936  1
  Zn  Zn148  1  0.09445576  0.08195033  0.79349077  1
  Zn  Zn149  1  0.05755771  0.56264172  0.31378177  1
  Zn  Zn150  1  0.06497480  0.56057167  0.81619622  1
  Zn  Zn151  1  0.56013071  0.05921382  0.31701779  1
  Zn  Zn152  1  0.56176626  0.06373205  0.82359689  1
  Zn  Zn153  1  0.55899617  0.56254112  0.30989606  1
  Zn  Zn154  1  0.55742199  0.56418269  0.81073869  1
  Zn  Zn155  1  0.43340661  0.18498160  0.44067625  1
  Zn  Zn156  1  0.43975571  0.18288135  0.93885930  1
  Zn  Zn157  1  0.43732780  0.68644774  0.43664401  1
  Zn  Zn158  1  0.43747829  0.68324210  0.93397454  1
  Zn  Zn159  1  0.93715479  0.18978236  0.43885482  1
  Zn  Zn160  1  0.94215376  0.18865209  0.93648919  1
  Zn  Zn161  1  0.93480676  0.68703541  0.44018731  1
  Zn  Zn162  1  0.93998441  0.68656297  0.93834146  1
  Zn  Zn163  1  0.06753186  0.31352302  0.06317071  1
  Zn  Zn164  1  0.06495694  0.31577710  0.56216067  1
  Zn  Zn165  1  0.06192087  0.81075352  0.05931199  1
  Zn  Zn166  1  0.06335936  0.81302922  0.56193041  1
  Zn  Zn167  1  0.56179443  0.31007268  0.06293709  1
  Zn  Zn168  1  0.56252030  0.31369193  0.56555693  1
  Zn  Zn169  1  0.56475067  0.81254650  0.06121340  1
  Zn  Zn170  1  0.53860739  0.84961414  0.58207270  1
  O  O171  1  0.12272327  0.12123137  0.11555814  1
  O  O172  1  0.12675421  0.12029236  0.60903875  1
  O  O173  1  0.11929992  0.61849391  0.11726113  1
  O  O174  1  0.12232370  0.61762002  0.61771393  1
  O  O175  1  0.61696378  0.12419210  0.11787131  1
  O  O176  1  0.62868661  0.12233987  0.60909748  1
  O  O177  1  0.61931099  0.61943891  0.12154836  1
  O  O178  1  0.61654961  0.61210652  0.63224053  1
  O  O179  1  0.37740313  0.38309688  0.38487393  1
  O  O180  1  0.37404046  0.38687079  0.88014821  1
  O  O181  1  0.38886278  0.86983718  0.35983074  1
  O  O182  1  0.37866302  0.88482335  0.88013199  1
  O  O183  1  0.87787722  0.38709609  0.37612971  1
  O  O184  1  0.88084093  0.37972877  0.88216318  1
  O  O185  1  0.88108313  0.87560946  0.38280741  1
  O  O186  1  0.88076800  0.88036791  0.88162809  1
  O  O187  1  0.23397491  0.02072670  0.35901944  1
  O  O188  1  0.26826206  0.00327418  0.88562429  1
  O  O189  1  0.26438675  0.50204296  0.37806529  1
  O  O190  1  0.26846530  0.50457163  0.88065359  1
  O  O191  1  0.75084357  0.01137554  0.37419076  1
  O  O192  1  0.76211448  0.00313365  0.87079276  1
  O  O193  1  0.75467331  0.49929328  0.37094295  1
  O  O194  1  0.75513171  0.50388516  0.86987845  1
  O  O195  1  0.24269111  0.48735695  0.12195247  1
  O  O196  1  0.24634703  0.48899052  0.62188244  1
  O  O197  1  0.24576460  0.99080961  0.12350583  1
  O  O198  1  0.23717641  0.99638387  0.62381774  1
  O  O199  1  0.74338398  0.49105744  0.13285454  1
  O  O200  1  0.74178776  0.50094548  0.63462325  1
  O  O201  1  0.75488803  0.98620573  0.12626075  1
  O  O202  1  0.74795398  0.99246194  0.63669782  1
  O  O203  1  -0.00402371  0.37992042  0.26624348  1
  O  O204  1  -0.00494008  0.37734959  0.76623912  1
  O  O205  1  0.00295136  0.87424693  0.25735430  1
  O  O206  1  0.00032792  0.87350804  0.76257453  1
  O  O207  1  0.51217640  0.37530628  0.24299148  1
  O  O208  1  0.51034392  0.37351422  0.74893735  1
  O  O209  1  0.50625200  0.86621381  0.24903422  1
  O  O210  1  0.49591927  0.85529881  0.75579358  1
  O  O211  1  0.49782611  0.11676764  0.23758103  1
  O  O212  1  0.51431961  0.13597648  0.74672997  1
  O  O213  1  0.49535097  0.63092700  0.23651803  1
  O  O214  1  0.49218261  0.63280584  0.73878158  1
  O  O215  1  0.99145054  0.12298171  0.24431881  1
  O  O216  1  0.98889738  0.12737068  0.75836241  1
  O  O217  1  0.98587623  0.62509213  0.24402247  1
  O  O218  1  0.98590969  0.61781896  0.75276402  1
  O  O219  1  0.36633931  0.25576979  -0.00750801  1
  O  O220  1  0.37789201  0.25798473  0.51208186  1
  O  O221  1  0.36703560  0.74951175  0.00276059  1
  O  O222  1  0.36334298  0.73935662  0.50872652  1
  O  O223  1  0.87883966  0.25295502  0.01308556  1
  O  O224  1  0.86240305  0.24912248  0.50130304  1
  O  O225  1  0.86885115  0.75493493  0.00445690  1
  O  O226  1  0.87591068  0.76254562  0.50730502  1
  O  O227  1  0.12771091  0.24544341  0.49258150  1
  O  O228  1  0.13764619  0.24585924  0.99555843  1
  O  O229  1  0.12485730  0.73593151  0.49530664  1
  O  O230  1  0.13112634  0.74205203  0.99313169  1
  O  O231  1  0.62840110  0.24292043  0.49214183  1
  O  O232  1  0.62458183  0.23524333  1.00224037  1
  O  O233  1  0.62086474  0.75526936  0.48476443  1
  O  O234  1  0.63203824  0.74286001  0.99302498  1
  O  O235  1  0.50214884  0.23255988  0.12544958  1
  O  O236  1  0.48791357  0.25335053  0.63217824  1
  O  O237  1  0.49570322  0.74301951  0.12853987  1
  O  O238  1  0.49358523  0.74603933  0.63062723  1
  O  O239  1  0.99260256  0.24502426  0.12541748  1
  O  O240  1  0.99923031  0.25668819  0.62810808  1
  O  O241  1  0.99186939  0.74231915  0.12456916  1
  O  O242  1  0.98724503  0.74775845  0.62202868  1
  O  O243  1  -0.00464973  0.27089290  0.37680510  1
  O  O244  1  0.01009184  0.26061643  0.87642041  1
  O  O245  1  0.00398124  0.76022412  0.37551780  1
  O  O246  1  0.01059853  0.76097618  0.88496515  1
  O  O247  1  0.51287845  0.24621193  0.38004282  1
  O  O248  1  0.49526492  0.24508148  0.85813921  1
  O  O249  1  0.50625335  0.75192825  0.36339360  1
  O  O250  1  0.51033420  0.74722399  0.86944550  1
  O  O251  1  0.24075354  0.13188488  0.49047860  1
  O  O252  1  0.24518797  0.13459454  1.00444093  1
  O  O253  1  0.24013751  0.62997290  0.49716026  1
  O  O254  1  0.23881915  0.63252273  1.00646135  1
  O  O255  1  0.74481654  0.12915231  0.49288583  1
  O  O256  1  0.73740652  0.11925611  0.99514419  1
  O  O257  1  0.75446894  0.63384514  0.49626746  1
  O  O258  1  0.74600404  0.62951578  0.99584095  1
  O  O259  1  0.26136156  0.36755472  0.00423856  1
  O  O260  1  0.26555489  0.37388027  0.50725839  1
  O  O261  1  0.24815273  0.86623711  0.01009893  1
  O  O262  1  0.23259435  0.85230068  0.50318236  1
  O  O263  1  0.75729055  0.37958868  0.01519801  1
  O  O264  1  0.74884085  0.36151529  0.50154676  1
  O  O265  1  0.75483537  0.87076941  0.00683570  1
  O  O266  1  0.75834946  0.87240322  0.50738016  1
  O  O267  1  0.12280148  0.50829702  0.23679315  1
  O  O268  1  0.12358457  0.50481717  0.73726882  1
  O  O269  1  0.12364013  0.99084209  0.23902408  1
  O  O270  1  0.10539159  0.98470196  0.73456386  1
  O  O271  1  0.62837429  0.49093646  0.24702221  1
  O  O272  1  0.62867517  0.49224401  0.74642542  1
  O  O273  1  0.62604898  0.98581231  0.25393838  1
  O  O274  1  0.63724122  1.00569332  0.75399487  1
  O  O275  1  0.37495699  0.01169529  0.25776606  1
  O  O276  1  0.37729583  -0.00259904  0.76566648  1
  O  O277  1  0.38563373  0.50829811  0.25975164  1
  O  O278  1  0.37772062  0.51159750  0.75818550  1
  O  O279  1  0.87173110  0.01332580  0.25186127  1
  O  O280  1  0.87162625  0.01217474  0.75756601  1
  O  O281  1  0.86732680  0.50612609  0.25705105  1
  O  O282  1  0.86573853  0.50400525  0.75646843  1
  O  O283  1  0.11310612  0.38079515  0.37898105  1
  O  O284  1  0.11725500  0.36867772  0.88662524  1
  O  O285  1  0.11687592  0.86901381  0.36572515  1
  O  O286  1  0.11726831  0.87067377  0.86911555  1
  O  O287  1  0.62675970  0.35913887  0.36912480  1
  O  O288  1  0.62507104  0.37856511  0.86164387  1
  O  O289  1  0.61484607  0.86448844  0.36614062  1
  O  O290  1  0.62667396  0.86204249  0.87960992  1
  O  O291  1  0.38801638  0.12149354  0.13663662  1
  O  O292  1  0.36874747  0.13960188  0.62163649  1
  O  O293  1  0.38228578  0.62550393  0.12729845  1
  O  O294  1  0.38088803  0.63071128  0.63518559  1
  O  O295  1  0.87831234  0.13142572  0.13075715  1
  O  O296  1  0.87205074  0.12315393  0.64110250  1
  O  O297  1  0.87736209  0.62825226  0.13265782  1
  O  O298  1  0.87811442  0.63202770  0.63580274  1
  O  O299  1  0.24790129  0.26459332  0.11503432  1
  O  O300  1  0.26231888  0.26235623  0.62540283  1
  O  O301  1  0.25385764  0.75531150  0.11409043  1
  O  O302  1  0.25582702  0.74591525  0.61631252  1
  O  O303  1  0.75811336  0.25722251  0.13089492  1
  O  O304  1  0.74702929  0.24678552  0.61396944  1
  O  O305  1  0.75595340  0.75742099  0.12043629  1
  O  O306  1  0.76381544  0.75630928  0.62835389  1
  O  O307  1  0.25221616  0.24039157  0.37590031  1
  O  O308  1  0.24688367  0.24660975  0.88032421  1
  O  O309  1  0.24193769  0.74389643  0.37904171  1
  O  O310  1  0.24100309  0.75680887  0.88726662  1
  O  O311  1  0.74341365  0.23873014  0.38442632  1
  O  O312  1  0.75689948  0.24062675  0.87608604  1
  O  O313  1  0.73169839  0.75165917  0.37375232  1
  O  O314  1  0.74474117  0.74429866  0.87933742  1
  O  O315  1  0.00706990  0.11992945  0.00784277  1
  O  O316  1  0.00718828  0.11389377  0.48948982  1
  O  O317  1  0.00785217  0.61755131  0.00654202  1
  O  O318  1  0.00539845  0.61310250  0.50069166  1
  O  O319  1  0.50964515  0.11873843  0.00985834  1
  O  O320  1  0.51230646  0.12245757  0.49757994  1
  O  O321  1  0.50552280  0.62674355  0.01115105  1
  O  O322  1  0.49408893  0.61855243  0.51395420  1
  O  O323  1  0.48915896  0.38698987  0.50975552  1
  O  O324  1  0.48622726  0.37324225  1.00709499  1
  O  O325  1  0.49074671  0.85619828  0.47823591  1
  O  O326  1  0.50188525  0.88622494  1.00035089  1
  O  O327  1  0.99821062  0.38817696  0.49022802  1
  O  O328  1  0.99336529  0.38025326  0.99648013  1
  O  O329  1  0.99479779  0.88063631  0.49228625  1
  O  O330  1  0.99564594  0.88236119  0.99299813  1
  O  O331  1  0.49416558  0.50768475  0.38837165  1
  O  O332  1  0.48156764  0.51139027  0.87736150  1
  O  O333  1  0.50023106  0.98071235  0.37642568  1
  O  O334  1  0.49205903  0.99838694  0.88643297  1
  O  O335  1  0.99190728  0.49297918  0.38160042  1
  O  O336  1  0.99621189  0.49368131  0.88404668  1
  O  O337  1  1.00010911  0.98793210  0.38254765  1
  O  O338  1  0.98764294  0.99266676  0.87996475  1
  O  O339  1  0.00567093  0.00607003  0.11758141  1
  O  O340  1  0.00649500  -0.00569119  0.61071189  1
  O  O341  1  0.00698945  0.50235379  0.11997575  1
  O  O342  1  0.00851004  0.49859189  0.61828681  1
  O  O343  1  0.49862262  0.00661826  0.11337380  1
  O  O344  1  0.51119928  -0.04260978  0.61430580  1
  O  O345  1  0.50704392  0.50688109  0.12134544  1
  O  O346  1  0.50542280  0.50884637  0.61839210  1
  O  O347  1  0.26108962  0.36866445  0.23565894  1
  O  O348  1  0.25801505  0.37532143  0.73773816  1
  O  O349  1  0.24326536  0.87241038  0.23682738  1
  O  O350  1  0.23422167  0.87033422  0.75026956  1
  O  O351  1  0.74394799  0.37747614  0.24227024  1
  O  O352  1  0.74113283  0.38515396  0.75107026  1
  O  O353  1  0.74194104  0.87559252  0.24256230  1
  O  O354  1  0.76055690  0.88900439  0.74415602  1
  O  O355  1  0.26537274  0.12775966  0.24921380  1
  O  O356  1  0.20251745  0.11123191  0.75760846  1
  O  O357  1  0.26407947  0.62993709  0.24585569  1
  O  O358  1  0.26288248  0.62708958  0.74608182  1
  O  O359  1  0.75591868  0.12445365  0.25805437  1
  O  O360  1  0.75703757  0.11984194  0.76084722  1
  O  O361  1  0.75848855  0.61866558  0.25311067  1
  O  O362  1  0.75692368  0.61322165  0.75563864  1
  O  O363  1  0.36934281  0.12265398  0.36762834  1
  O  O364  1  0.37555863  0.11067304  0.87656860  1
  O  O365  1  0.37500136  0.61799552  0.36338424  1
  O  O366  1  0.37290272  0.62092328  0.86144572  1
  O  O367  1  0.86734598  0.12520716  0.36773249  1
  O  O368  1  0.87016806  0.11907363  0.87222061  1
  O  O369  1  0.87613969  0.61313976  0.36792523  1
  O  O370  1  0.86927157  0.61974868  0.87122413  1
  O  O371  1  0.13962768  0.38424376  0.12087820  1
  O  O372  1  0.14458756  0.38314407  0.61825749  1
  O  O373  1  0.13030619  0.87780349  0.12855093  1
  O  O374  1  0.12543532  0.87847459  0.63292858  1
  O  O375  1  0.63181167  0.37472091  0.13159061  1
  O  O376  1  0.62615371  0.38766218  0.63463777  1
  O  O377  1  0.63538816  0.86759864  0.13391013  1
  O  O378  1  0.64494880  0.86313651  0.62596616  1
  O  O379  1  0.11673171  0.24578259  0.25442047  1
  O  O380  1  0.12600695  0.25447536  0.76573422  1
  O  O381  1  0.12093584  0.75663057  0.25362064  1
  O  O382  1  0.12451515  0.75340488  0.76252382  1
  O  O383  1  0.62810345  0.25349430  0.26661571  1
  O  O384  1  0.61297555  0.26371354  0.74330039  1
  O  O385  1  0.61386455  0.75666737  0.25153937  1
  O  O386  1  0.61823954  0.74025797  0.76030766  1
  O  O387  1  0.38518526  0.23283597  0.25517392  1
  O  O388  1  0.38895676  0.25071717  0.73929330  1
  O  O389  1  0.38595992  0.74043088  0.24104588  1
  O  O390  1  0.37952400  0.73793517  0.74799824  1
  O  O391  1  0.87858735  0.24045603  0.24187718  1
  O  O392  1  0.87667622  0.23599924  0.75026728  1
  O  O393  1  0.87356461  0.74125218  0.24650670  1
  O  O394  1  0.87152645  0.73853031  0.74538348  1
  O  O395  1  0.38244496  0.49579906  0.49326824  1
  O  O396  1  0.37878796  0.49211368  0.98950547  1
  O  O397  1  0.33057868  0.98470345  0.48134706  1
  O  O398  1  0.39098129  0.99958034  0.99692250  1
  O  O399  1  0.88195321  0.49964010  0.49443781  1
  O  O400  1  0.88126285  0.49410956  0.99582733  1
  O  O401  1  0.88211345  0.98990645  0.50055263  1
  O  O402  1  0.87932449  0.99615510  0.99327557  1
  O  O403  1  0.12274192  0.00827327  0.00269691  1
  O  O404  1  0.12030413  0.00668974  0.50807016  1
  O  O405  1  0.12248654  0.50751733  0.00567345  1
  O  O406  1  0.11958483  0.50839617  0.50584754  1
  O  O407  1  0.61106910  0.00894464  -0.00436639  1
  O  O408  1  0.62843553  0.01297023  0.49748200  1
  O  O409  1  0.62374213  0.50465076  0.00694942  1
  O  O410  1  0.61638902  0.49510188  0.50847595  1
  O  O411  1  0.36196410  0.38220501  0.11455065  1
  O  O412  1  0.36792285  0.37292657  0.62095306  1
  O  O413  1  0.36650995  0.86790528  0.12329272  1
  O  O414  1  0.36776782  0.85539248  0.63569795  1
  O  O415  1  0.86859862  0.36662752  0.12365927  1
  O  O416  1  0.86553061  0.37107073  0.62247589  1
  O  O417  1  0.87005669  0.86931786  0.12007431  1
  O  O418  1  0.87082574  0.87010981  0.62054019  1
  O  O419  1  0.12924658  0.12992896  0.38462801  1
  O  O420  1  0.11774688  0.13842765  0.89305030  1
  O  O421  1  0.12416180  0.62908776  0.38130303  1
  O  O422  1  0.11912608  0.63374855  0.88547436  1
  O  O423  1  0.62917335  0.13178843  0.38161611  1
  O  O424  1  0.63549836  0.12435806  0.88974515  1
  O  O425  1  0.62142486  0.64116726  0.36734659  1
  O  O426  1  0.63150445  0.62921027  0.88078830  1
