# generated using pymatgen
data_V85Zn86O256
_symmetry_space_group_name_H-M   'P 1'
_cell_length_a   16.92853605
_cell_length_b   16.93274229
_cell_length_c   16.93070830
_cell_angle_alpha   90.00182002
_cell_angle_beta   89.96752550
_cell_angle_gamma   90.13177355
_symmetry_Int_Tables_number   1
_chemical_formula_structural   V85Zn86O256
_chemical_formula_sum   'V85 Zn86 O256'
_cell_volume   4853.11530859
_cell_formula_units_Z   1
loop_
 _symmetry_equiv_pos_site_id
 _symmetry_equiv_pos_as_xyz
  1  'x, y, z'
loop_
 _atom_site_type_symbol
 _atom_site_label
 _atom_site_symmetry_multiplicity
 _atom_site_fract_x
 _atom_site_fract_y
 _atom_site_fract_z
 _atom_site_occupancy
  V  V0  1  0.74412698  0.62456552  0.38017785  1
  V  V1  1  0.62387484  0.26158793  0.87893294  1
  V  V2  1  0.51327303  0.50348524  0.50766570  1
  V  V3  1  0.13027064  -0.01515007  0.14184837  1
  V  V4  1  0.50139937  0.88057882  0.88089123  1
  V  V5  1  0.11727214  0.24758722  0.36765313  1
  V  V6  1  0.49875942  0.73530353  0.24769280  1
  V  V7  1  0.37379888  0.38407112  0.49652192  1
  V  V8  1  0.00771472  0.74714519  0.25195413  1
  V  V9  1  0.26404024  0.50432424  0.25568250  1
  V  V10  1  0.25938008  0.62364562  0.87766751  1
  V  V11  1  0.62081345  0.52720207  0.12157580  1
  V  V12  1  0.87287312  0.74212258  0.63907604  1
  V  V13  1  0.38780747  0.87668439  0.50797165  1
  V  V14  1  0.25097727  0.12431510  0.87486632  1
  V  V15  1  0.38584959  0.00245169  0.87879477  1
  V  V16  1  0.62124988  -0.00249385  0.61695201  1
  V  V17  1  0.50264599  0.51610025  -0.00883098  1
  V  V18  1  0.25128516  0.87015662  0.62655919  1
  V  V19  1  0.25281664  0.75973544  0.00494571  1
  V  V20  1  -0.00077013  0.37579059  0.87202426  1
  V  V21  1  0.12717460  0.49816906  0.12737976  1
  V  V22  1  0.00336778  0.62159382  0.12559822  1
  V  V23  1  0.74421926  0.37731830  0.12174109  1
  V  V24  1  0.74640847  0.50600142  0.24800487  1
  V  V25  1  0.12520710  0.62169156  0.50240926  1
  V  V26  1  0.51166149  0.62936418  0.62432892  1
  V  V27  1  0.12779582  0.74330166  0.37860507  1
  V  V28  1  0.25379096  0.37583169  0.12503305  1
  V  V29  1  0.62351006  0.74571228  0.88307741  1
  V  V30  1  0.62893998  -0.00255961  0.14210077  1
  V  V31  1  0.25528107  0.49836636  0.75508255  1
  V  V32  1  0.62248974  0.37867032  0.24667195  1
  V  V33  1  0.74946644  0.50701759  0.74766097  1
  V  V34  1  0.88052340  0.75461031  0.11972462  1
  V  V35  1  0.24882706  0.12654770  0.37336003  1
  V  V36  1  -0.01142543  0.11985590  0.62643089  1
  V  V37  1  0.37050362  0.12048480  0.25043341  1
  V  V38  1  0.74963906  0.11386051  0.36539630  1
  V  V39  1  0.62218818  0.75006869  0.37656509  1
  V  V40  1  0.25055603  0.25218898  -0.00180268  1
  V  V41  1  0.50475868  0.87947909  0.36763414  1
  V  V42  1  0.62244693  0.87591890  0.75217765  1
  V  V43  1  0.87122636  0.37616249  -0.00283279  1
  V  V44  1  0.62150747  0.38313974  0.74423146  1
  V  V45  1  0.37318278  0.63264635  0.74053993  1
  V  V46  1  0.24793161  0.25032523  0.49949431  1
  V  V47  1  0.37725464  0.88397895  0.01304549  1
  V  V48  1  0.62576173  0.25102123  0.37506503  1
  V  V49  1  0.87240460  0.49513487  0.38020158  1
  V  V50  1  0.49828422  0.25145926  0.25017781  1
  V  V51  1  0.00167059  0.49965861  -0.00199602  1
  V  V52  1  0.49558448  0.38350673  0.37408146  1
  V  V53  1  0.00013665  -0.00447880  0.49655097  1
  V  V54  1  0.26174399  0.74554126  0.50469643  1
  V  V55  1  0.12256959  0.24897884  0.87250059  1
  V  V56  1  -0.01293962  0.24443594  0.74976156  1
  V  V57  1  0.37651358  0.25036564  0.12385266  1
  V  V58  1  0.12442975  0.49623135  0.62631418  1
  V  V59  1  0.38697204  0.37952209  -0.01159835  1
  V  V60  1  0.75162654  0.87660956  0.62536992  1
  V  V61  1  0.24784313  0.37342760  0.62478164  1
  V  V62  1  0.88085287  0.00718515  0.87446336  1
  V  V63  1  0.37622466  0.73323435  0.12932216  1
  V  V64  1  -0.00055401  0.86998840  0.37235949  1
  V  V65  1  0.01590240  0.75152452  0.75216502  1
  V  V66  1  0.13108424  0.62652982  -0.00186528  1
  V  V67  1  0.49883710  0.25764907  0.75395689  1
  V  V68  1  0.37447573  0.24929596  0.62216671  1
  V  V69  1  0.12388710  -0.00535192  0.62327076  1
  V  V70  1  0.62116739  0.12441521  0.49766574  1
  V  V71  1  0.75403850  0.37785744  0.61858255  1
  V  V72  1  -0.00487928  0.49268563  0.50202493  1
  V  V73  1  0.37641959  0.12484992  0.74909907  1
  V  V74  1  0.11645297  0.11625695  0.00299791  1
  V  V75  1  0.74738464  0.74495063  0.50201506  1
  V  V76  1  0.24535469  -0.00511938  0.75170178  1
  V  V77  1  0.49793672  0.11867062  0.12006362  1
  V  V78  1  0.87519863  0.51112561  0.86989727  1
  V  V79  1  0.87821457  0.62315756  0.25135239  1
  V  V80  1  0.88013384  0.24898237  0.13326290  1
  V  V81  1  0.62274796  0.11347719  -0.00505817  1
  V  V82  1  0.36258486  -0.01592520  0.36766674  1
  V  V83  1  0.49845704  0.12183640  0.61995577  1
  V  V84  1  -0.00600271  0.36945386  0.36970316  1
  Zn  Zn85  1  0.75031722  0.62911181  0.87461042  1
  Zn  Zn86  1  0.87607255  0.87063379  0.50131878  1
  Zn  Zn87  1  0.74517911  0.74677813  0.00411832  1
  Zn  Zn88  1  -0.00783459  0.61893823  0.63097168  1
  Zn  Zn89  1  0.00224898  0.12122173  0.13055956  1
  Zn  Zn90  1  0.11992784  0.37024818  0.24581320  1
  Zn  Zn91  1  0.01022593  0.88385046  0.87961426  1
  Zn  Zn92  1  0.12413060  0.37391055  0.74901745  1
  Zn  Zn93  1  0.75723432  0.25180169  0.49670816  1
  Zn  Zn94  1  0.88006265  0.88243152  -0.00212247  1
  Zn  Zn95  1  0.87353634  0.24960985  0.61922577  1
  Zn  Zn96  1  0.75650294  0.00965236  0.74669430  1
  Zn  Zn97  1  0.49263140  0.75538179  0.74541799  1
  Zn  Zn98  1  0.13343523  0.76013594  0.87195814  1
  Zn  Zn99  1  0.87079219  -0.00940357  0.36623240  1
  Zn  Zn100  1  0.16161489  0.87172094  0.25398091  1
  Zn  Zn101  1  0.12334875  0.12298300  0.49836994  1
  Zn  Zn102  1  0.87655001  0.11201470  0.24563078  1
  Zn  Zn103  1  0.26828203  0.61601611  0.37731156  1
  Zn  Zn104  1  0.75460106  0.12811525  0.86778297  1
  Zn  Zn105  1  0.75530476  0.88846908  0.13347817  1
  Zn  Zn106  1  0.74734449  0.25026901  -0.00153919  1
  Zn  Zn107  1  0.18778515  0.18645600  0.18713005  1
  Zn  Zn108  1  0.18224802  0.18156019  0.68644225  1
  Zn  Zn109  1  0.19314607  0.68586176  0.18697925  1
  Zn  Zn110  1  0.18907073  0.68361518  0.68415755  1
  Zn  Zn111  1  0.68704419  0.18886457  0.18357935  1
  Zn  Zn112  1  0.68691353  0.19391729  0.68718251  1
  Zn  Zn113  1  0.70284067  0.72254462  0.20584311  1
  Zn  Zn114  1  0.68491547  0.69030983  0.69397722  1
  Zn  Zn115  1  0.31086726  0.31387808  0.31063650  1
  Zn  Zn116  1  0.31248492  0.31303549  0.81163357  1
  Zn  Zn117  1  0.31909729  0.79866061  0.31960162  1
  Zn  Zn118  1  0.31335800  0.81482719  0.81586120  1
  Zn  Zn119  1  0.80804010  0.31394770  0.31170608  1
  Zn  Zn120  1  0.80716905  0.31723559  0.81092254  1
  Zn  Zn121  1  0.81550659  0.81650132  0.30688400  1
  Zn  Zn122  1  0.81157963  0.82274304  0.81507806  1
  Zn  Zn123  1  0.18265369  0.43378843  0.43467198  1
  Zn  Zn124  1  0.18953299  0.43654632  0.93714920  1
  Zn  Zn125  1  0.19975018  0.92388065  0.42112252  1
  Zn  Zn126  1  0.18817225  0.93707594  0.93670199  1
  Zn  Zn127  1  0.68525341  0.43745431  0.43737381  1
  Zn  Zn128  1  0.68284983  0.44609712  0.93618253  1
  Zn  Zn129  1  0.68481345  0.93426720  0.44043885  1
  Zn  Zn130  1  0.70322052  0.93422697  0.94172777  1
  Zn  Zn131  1  0.30586503  0.06203267  0.06223702  1
  Zn  Zn132  1  0.31239554  0.05746287  0.55659501  1
  Zn  Zn133  1  0.31657377  0.55884799  0.05976049  1
  Zn  Zn134  1  0.31531698  0.56069125  0.56434689  1
  Zn  Zn135  1  0.80819302  0.06385378  0.05574798  1
  Zn  Zn136  1  0.81125980  0.06118832  0.55270626  1
  Zn  Zn137  1  0.80960348  0.57091515  0.05686689  1
  Zn  Zn138  1  0.80892650  0.56037156  0.56388492  1
  Zn  Zn139  1  0.44162528  0.44278138  0.17906941  1
  Zn  Zn140  1  0.43430186  0.44117473  0.68590247  1
  Zn  Zn141  1  0.44227762  0.93788520  0.19263967  1
  Zn  Zn142  1  0.43698358  0.94053803  0.69054539  1
  Zn  Zn143  1  0.93440907  0.43623393  0.18814521  1
  Zn  Zn144  1  0.93457982  0.43474987  0.69025952  1
  Zn  Zn145  1  0.94827778  0.94303129  0.19015552  1
  Zn  Zn146  1  0.93420692  0.93496272  0.69532563  1
  Zn  Zn147  1  0.05642660  0.06256017  0.30698418  1
  Zn  Zn148  1  0.06251883  0.06226747  0.81036000  1
  Zn  Zn149  1  0.06649551  0.55700951  0.31399911  1
  Zn  Zn150  1  0.06584514  0.57030708  0.81040152  1
  Zn  Zn151  1  0.55329166  0.06204131  0.31500907  1
  Zn  Zn152  1  0.58770910  0.07699257  0.79660430  1
  Zn  Zn153  1  0.55713979  0.56520148  0.31612065  1
  Zn  Zn154  1  0.55789031  0.56250708  0.81000182  1
  Zn  Zn155  1  0.43618232  0.18872937  0.43584128  1
  Zn  Zn156  1  0.44140660  0.19003104  0.93664252  1
  Zn  Zn157  1  0.43860799  0.68331414  0.43991100  1
  Zn  Zn158  1  0.43540174  0.69336741  0.93404475  1
  Zn  Zn159  1  0.93356626  0.18424973  0.44002450  1
  Zn  Zn160  1  0.93405800  0.18613166  0.93966221  1
  Zn  Zn161  1  0.93437754  0.68297105  0.44358479  1
  Zn  Zn162  1  0.94564535  0.69021511  0.93605481  1
  Zn  Zn163  1  0.06167982  0.31164961  0.05874367  1
  Zn  Zn164  1  0.05801281  0.30897765  0.55856376  1
  Zn  Zn165  1  0.06472489  0.81856306  0.06157729  1
  Zn  Zn166  1  0.06252464  0.81138903  0.56478921  1
  Zn  Zn167  1  0.56119531  0.31216473  0.06204314  1
  Zn  Zn168  1  0.56458199  0.31325159  0.56405659  1
  Zn  Zn169  1  0.55793106  0.81689993  0.06485512  1
  Zn  Zn170  1  0.56443913  0.80655469  0.56147705  1
  O  O171  1  0.12501169  0.13001423  0.11102025  1
  O  O172  1  0.11864147  0.11019921  0.61983180  1
  O  O173  1  0.12342757  0.61617379  0.11996066  1
  O  O174  1  0.12373275  0.61529728  0.61454764  1
  O  O175  1  0.61753926  0.11937095  0.11572884  1
  O  O176  1  0.61775308  0.11968197  0.61512388  1
  O  O177  1  0.63031571  0.62310809  0.13122537  1
  O  O178  1  0.61063599  0.62440459  0.63282718  1
  O  O179  1  0.38558200  0.36671153  0.38310731  1
  O  O180  1  0.37097450  0.37336898  0.89037346  1
  O  O181  1  0.38869097  0.87331913  0.38633718  1
  O  O182  1  0.38249807  0.88374257  0.88349351  1
  O  O183  1  0.87672254  0.38657834  0.37103176  1
  O  O184  1  0.87961079  0.38115663  0.88155056  1
  O  O185  1  0.88467775  0.86871124  0.37918129  1
  O  O186  1  0.87859699  0.88896002  0.87613679  1
  O  O187  1  0.25364405  0.02226230  0.38847866  1
  O  O188  1  0.25890156  0.00556190  0.86686762  1
  O  O189  1  0.24525123  0.49507461  0.35917489  1
  O  O190  1  0.24516553  0.50861152  0.86643751  1
  O  O191  1  0.74534180  0.01084271  0.37853256  1
  O  O192  1  0.75844459  0.00340482  0.86909785  1
  O  O193  1  0.75309415  0.50537276  0.37171717  1
  O  O194  1  0.75919814  0.49963835  0.86676633  1
  O  O195  1  0.24582947  0.49351840  0.12940519  1
  O  O196  1  0.24420166  0.49198519  0.63063570  1
  O  O197  1  0.22786785  1.00846634  0.12389951  1
  O  O198  1  0.24353207  0.99336029  0.62941730  1
  O  O199  1  0.73761934  0.49799258  0.12658949  1
  O  O200  1  0.75190438  0.48979179  0.63308999  1
  O  O201  1  0.73355955  1.00538733  0.12486152  1
  O  O202  1  0.74182216  0.99272889  0.62285380  1
  O  O203  1  -0.00010062  0.38043306  0.26475805  1
  O  O204  1  0.00356014  0.36459912  0.75502881  1
  O  O205  1  0.00562579  0.86384901  0.26362242  1
  O  O206  1  -0.00515495  0.85408738  0.74993307  1
  O  O207  1  0.50273340  0.37460621  0.25656658  1
  O  O208  1  0.50541596  0.36884032  0.74006734  1
  O  O209  1  0.49538974  0.86388871  0.26457924  1
  O  O210  1  0.50225424  0.87526000  0.76082353  1
  O  O211  1  0.48719220  0.13147131  0.24542141  1
  O  O212  1  0.49694658  0.13526420  0.73962202  1
  O  O213  1  0.49639365  0.63658802  0.25068186  1
  O  O214  1  0.49053711  0.62262669  0.73823114  1
  O  O215  1  0.99139449  0.12625057  0.24429417  1
  O  O216  1  1.00709012  0.13400555  0.73844648  1
  O  O217  1  1.00128304  0.62670508  0.24600232  1
  O  O218  1  1.00311747  0.64113175  0.74449579  1
  O  O219  1  0.37265382  0.26027322  0.00412817  1
  O  O220  1  0.36951135  0.25865499  0.50456106  1
  O  O221  1  0.37384990  0.75826373  0.01386476  1
  O  O222  1  0.36626838  0.75726713  0.50155814  1
  O  O223  1  0.87135065  0.26438910  0.00495994  1
  O  O224  1  0.87016993  0.24814105  0.50492973  1
  O  O225  1  0.88442727  0.74450575  0.01509896  1
  O  O226  1  0.86278954  0.74916151  0.50943929  1
  O  O227  1  0.13172897  0.24876018  0.48838530  1
  O  O228  1  0.12984448  0.24566989  0.98880726  1
  O  O229  1  0.13168420  0.73896014  0.49876765  1
  O  O230  1  0.14066294  0.74300682  1.00794591  1
  O  O231  1  0.62634063  0.24368514  0.49046249  1
  O  O232  1  0.62394647  0.24786698  0.99181473  1
  O  O233  1  0.63878454  0.74798029  0.49519854  1
  O  O234  1  0.62061377  0.75786084  0.98646346  1
  O  O235  1  0.49568907  0.24124882  0.13156559  1
  O  O236  1  0.49528576  0.24133970  0.63046206  1
  O  O237  1  0.49040908  0.75480202  0.13821663  1
  O  O238  1  0.50052954  0.73458863  0.62548931  1
  O  O239  1  0.98215012  0.25757649  0.12205043  1
  O  O240  1  1.00008218  0.23923195  0.63215737  1
  O  O241  1  0.99852434  0.74066427  0.13231718  1
  O  O242  1  0.98725765  0.74875926  0.63200336  1
  O  O243  1  0.00574191  0.25705480  0.38091007  1
  O  O244  1  0.00459083  0.25274868  0.86840499  1
  O  O245  1  0.00698370  0.74788955  0.37345537  1
  O  O246  1  0.00833198  0.74606252  0.85992994  1
  O  O247  1  0.50858928  0.25900028  0.37085087  1
  O  O248  1  0.50319702  0.25195824  0.86054483  1
  O  O249  1  0.50679420  0.75432460  0.37070828  1
  O  O250  1  0.50718985  0.76225115  0.87158812  1
  O  O251  1  0.25037814  0.13688487  0.49470119  1
  O  O252  1  0.24311223  0.13520785  0.99256819  1
  O  O253  1  0.24403073  0.62833141  0.50238123  1
  O  O254  1  0.25232927  0.63081077  0.99410411  1
  O  O255  1  0.73553769  0.12651877  0.48919529  1
  O  O256  1  0.73146776  0.13099221  0.99597193  1
  O  O257  1  0.75303830  0.62846179  0.48836713  1
  O  O258  1  0.75030531  0.63250367  0.98756287  1
  O  O259  1  0.25987073  0.37350527  0.00841104  1
  O  O260  1  0.25664145  0.36935869  0.50126819  1
  O  O261  1  0.26151558  0.86536116  -0.00264778  1
  O  O262  1  0.25917858  0.86442096  0.50743643  1
  O  O263  1  0.75498188  0.37953233  0.00633514  1
  O  O264  1  0.74096640  0.37551891  0.51530416  1
  O  O265  1  0.75972663  0.86509339  0.01451314  1
  O  O266  1  0.74981008  0.86619977  0.51156562  1
  O  O267  1  0.13056235  0.49455016  0.23694042  1
  O  O268  1  0.13484823  0.50009562  0.74260422  1
  O  O269  1  0.12875717  0.99300035  0.24551831  1
  O  O270  1  0.13932174  1.00518394  0.74215152  1
  O  O271  1  0.62635275  0.50005577  0.23892458  1
  O  O272  1  0.63109153  0.48962440  0.75774735  1
  O  O273  1  0.62187235  1.00600091  0.24094753  1
  O  O274  1  0.61788680  0.98544491  0.73378092  1
  O  O275  1  0.37467452  0.00694651  0.25931307  1
  O  O276  1  0.36607970  0.00796174  0.75650672  1
  O  O277  1  0.36217390  0.49376700  0.24409245  1
  O  O278  1  0.36109134  0.50808104  0.74613051  1
  O  O279  1  0.87248680  -0.00391657  0.25220294  1
  O  O280  1  0.87069273  0.00085570  0.76190754  1
  O  O281  1  0.86595660  0.50490686  0.25622326  1
  O  O282  1  0.86500206  0.49520664  0.75953976  1
  O  O283  1  0.11331498  0.36608793  0.37156651  1
  O  O284  1  0.11833360  0.36581696  0.87539806  1
  O  O285  1  0.11478066  0.85372256  0.38306746  1
  O  O286  1  0.12576544  0.87336790  0.87262478  1
  O  O287  1  0.61806556  0.36905841  0.36814680  1
  O  O288  1  0.62766745  0.36714205  0.86743042  1
  O  O289  1  0.61683186  0.86215218  0.38330044  1
  O  O290  1  0.61870054  0.87522151  0.86882887  1
  O  O291  1  0.37956383  0.12790771  0.12931405  1
  O  O292  1  0.38078907  0.12794373  0.62577143  1
  O  O293  1  0.37648295  0.63520933  0.12382693  1
  O  O294  1  0.38339172  0.62131688  0.63361793  1
  O  O295  1  0.87097206  0.14154634  0.11975595  1
  O  O296  1  0.88551364  0.11983067  0.62252432  1
  O  O297  1  0.88956588  0.62064049  0.13173218  1
  O  O298  1  0.87306882  0.63859173  0.62258764  1
  O  O299  1  0.25568583  0.25797763  0.11887009  1
  O  O300  1  0.25187113  0.25367211  0.61956651  1
  O  O301  1  0.26655932  0.74862737  0.12146354  1
  O  O302  1  0.24583828  0.76096762  0.61883849  1
  O  O303  1  0.75558482  0.26177970  0.12086955  1
  O  O304  1  0.75066894  0.26293626  0.62540435  1
  O  O305  1  0.77892148  0.72769169  0.12014372  1
  O  O306  1  0.75567559  0.75325658  0.62250396  1
  O  O307  1  0.24507190  0.24373081  0.38018334  1
  O  O308  1  0.24204524  0.24539635  0.87759049  1
  O  O309  1  0.24219504  0.73911165  0.38868818  1
  O  O310  1  0.25394906  0.74385615  0.88754388  1
  O  O311  1  0.73630120  0.24541695  0.37396795  1
  O  O312  1  0.73855137  0.24900661  0.87549417  1
  O  O313  1  0.74484371  0.74309418  0.38358410  1
  O  O314  1  0.73297226  0.75473360  0.87107553  1
  O  O315  1  0.01401221  0.13234589  0.00501234  1
  O  O316  1  0.00230910  0.11267203  0.50622691  1
  O  O317  1  0.01068183  0.61758110  0.00469268  1
  O  O318  1  0.00757836  0.61176114  0.50380962  1
  O  O319  1  0.50859902  0.13163381  0.01053678  1
  O  O320  1  0.51062594  0.13138915  0.50469143  1
  O  O321  1  0.49193432  0.61501831  -0.00348165  1
  O  O322  1  0.49873547  0.61405930  0.51310550  1
  O  O323  1  0.49526856  0.38373440  0.49628062  1
  O  O324  1  0.48959194  0.37999565  1.00328884  1
  O  O325  1  0.49142547  0.86776157  0.49581429  1
  O  O326  1  0.49204381  0.87772635  0.98821702  1
  O  O327  1  1.00357868  0.38671993  0.48946896  1
  O  O328  1  0.99261327  0.38159925  0.99294231  1
  O  O329  1  0.99852186  0.87658552  0.49201059  1
  O  O330  1  0.99421594  0.86565990  0.99308319  1
  O  O331  1  0.50486879  0.48986612  0.38710979  1
  O  O332  1  0.50789266  0.49964526  0.89214002  1
  O  O333  1  0.48511209  0.98827312  0.37163591  1
  O  O334  1  0.48895079  0.99919218  0.86607884  1
  O  O335  1  0.99138899  0.49387110  0.38183243  1
  O  O336  1  0.99629478  0.49639009  0.87719376  1
  O  O337  1  1.00380401  0.98606754  0.38173067  1
  O  O338  1  0.98744050  1.00200422  0.86827538  1
  O  O339  1  0.02424750  0.00159696  0.12454795  1
  O  O340  1  0.00532353  0.00041907  0.62158394  1
  O  O341  1  0.00893773  0.50011319  0.11941131  1
  O  O342  1  0.00389774  0.49704239  0.61933474  1
  O  O343  1  0.50703296  0.01406368  0.13122130  1
  O  O344  1  0.50405123  0.01397563  0.62670631  1
  O  O345  1  0.51563620  0.50368929  0.11755417  1
  O  O346  1  0.49796991  0.50703252  0.61366502  1
  O  O347  1  0.24861654  0.38159944  0.23753054  1
  O  O348  1  0.24771132  0.38209259  0.74558463  1
  O  O349  1  0.25645870  0.89223837  0.31442333  1
  O  O350  1  0.25997417  0.88419197  0.73955231  1
  O  O351  1  0.74247584  0.38603787  0.24213892  1
  O  O352  1  0.74049974  0.38389785  0.74188745  1
  O  O353  1  0.73925254  0.83310059  0.23072902  1
  O  O354  1  0.73941772  0.87698444  0.73734744  1
  O  O355  1  0.26281996  0.13204335  0.25723744  1
  O  O356  1  0.25676412  0.11929272  0.75493656  1
  O  O357  1  0.24583227  0.60651004  0.25113308  1
  O  O358  1  0.25557307  0.61914219  0.75501496  1
  O  O359  1  0.74772588  0.13011663  0.26360537  1
  O  O360  1  0.70498695  0.11377809  0.76180377  1
  O  O361  1  0.75580001  0.62442761  0.26332157  1
  O  O362  1  0.74375711  0.61168704  0.75416566  1
  O  O363  1  0.36941506  0.11888837  0.36782116  1
  O  O364  1  0.37185350  0.12068764  0.87119197  1
  O  O365  1  0.37773674  0.62771067  0.36927073  1
  O  O366  1  0.36492117  0.62702446  0.86645485  1
  O  O367  1  0.85604004  0.12273092  0.37476809  1
  O  O368  1  0.87142965  0.11674254  0.87623139  1
  O  O369  1  0.86966374  0.61358797  0.37098308  1
  O  O370  1  0.87933674  0.61308198  0.87718550  1
  O  O371  1  0.13423377  0.37978744  0.12230432  1
  O  O372  1  0.13012540  0.37852651  0.62466409  1
  O  O373  1  0.13260311  0.87929625  0.13685850  1
  O  O374  1  0.13508076  0.88592945  0.62062407  1
  O  O375  1  0.63383695  0.37608702  0.12872629  1
  O  O376  1  0.63428094  0.37148521  0.63593238  1
  O  O377  1  0.61712506  0.89758324  0.12132853  1
  O  O378  1  0.62779304  0.88030799  0.62780721  1
  O  O379  1  0.13150571  0.25237091  0.26333144  1
  O  O380  1  0.12077112  0.24816978  0.76235808  1
  O  O381  1  0.12795415  0.74995627  0.26094914  1
  O  O382  1  0.11879577  0.75075713  0.74527099  1
  O  O383  1  0.61776892  0.25645222  0.25464569  1
  O  O384  1  0.61518076  0.26224742  0.75678781  1
  O  O385  1  0.60566432  0.74668517  0.26068998  1
  O  O386  1  0.61815212  0.76426324  0.75531911  1
  O  O387  1  0.37966200  0.24468110  0.24348832  1
  O  O388  1  0.38012622  0.24598667  0.74299172  1
  O  O389  1  0.38241738  0.75259567  0.23709437  1
  O  O390  1  0.37445712  0.73775498  0.75362493  1
  O  O391  1  0.86799486  0.25286217  0.23415118  1
  O  O392  1  0.88442447  0.25249355  0.74812001  1
  O  O393  1  0.88919993  0.73941355  0.24220901  1
  O  O394  1  0.87097428  0.74965596  0.74011818  1
  O  O395  1  0.38259427  0.48700153  0.50321515  1
  O  O396  1  0.38988572  0.48871061  1.00631434  1
  O  O397  1  0.36875896  0.98535328  0.48536044  1
  O  O398  1  0.36872623  0.99582362  0.99094103  1
  O  O399  1  0.88239811  0.50339291  0.49204037  1
  O  O400  1  0.88066291  0.49062228  0.99470706  1
  O  O401  1  0.88747750  0.99417603  0.49314065  1
  O  O402  1  0.87001173  1.00154539  0.98412656  1
  O  O403  1  0.13094134  0.01564082  0.00111313  1
  O  O404  1  0.11392141  -0.00358602  0.50565118  1
  O  O405  1  0.12433789  0.50420622  0.00976971  1
  O  O406  1  0.11922852  0.50371825  0.50501546  1
  O  O407  1  0.62416789  0.01305881  -0.00275942  1
  O  O408  1  0.62275740  0.00599190  0.50966477  1
  O  O409  1  0.61480709  0.50292832  0.01169242  1
  O  O410  1  0.61165788  0.49811572  0.50191076  1
  O  O411  1  0.36997063  0.36995244  0.11734336  1
  O  O412  1  0.36776098  0.36865205  0.61688091  1
  O  O413  1  0.38154724  0.87843316  0.11489838  1
  O  O414  1  0.36712911  0.88380745  0.61693176  1
  O  O415  1  0.86365943  0.37230888  0.11857322  1
  O  O416  1  0.85777803  0.37323638  0.62994636  1
  O  O417  1  0.88237574  0.85959291  0.12919828  1
  O  O418  1  0.86542631  0.86464275  0.62469383  1
  O  O419  1  0.13147434  0.13068196  0.37580316  1
  O  O420  1  0.12852397  0.13019418  0.88418163  1
  O  O421  1  0.12713118  0.62786093  0.38705351  1
  O  O422  1  0.13986577  0.63146197  0.88143136  1
  O  O423  1  0.62695631  0.13050536  0.37821581  1
  O  O424  1  0.61152421  0.13942348  0.89000722  1
  O  O425  1  0.63179148  0.63604213  0.37337265  1
  O  O426  1  0.61856680  0.64509005  0.86644143  1
