# generated using pymatgen
data_V85Zn86O256
_symmetry_space_group_name_H-M   'P 1'
_cell_length_a   16.96490648
_cell_length_b   16.97501893
_cell_length_c   16.96276654
_cell_angle_alpha   89.87805940
_cell_angle_beta   89.94694756
_cell_angle_gamma   90.04893830
_symmetry_Int_Tables_number   1
_chemical_formula_structural   V85Zn86O256
_chemical_formula_sum   'V85 Zn86 O256'
_cell_volume   4884.91592244
_cell_formula_units_Z   1
loop_
 _symmetry_equiv_pos_site_id
 _symmetry_equiv_pos_as_xyz
  1  'x, y, z'
loop_
 _atom_site_type_symbol
 _atom_site_label
 _atom_site_symmetry_multiplicity
 _atom_site_fract_x
 _atom_site_fract_y
 _atom_site_fract_z
 _atom_site_occupancy
  V  V0  1  -0.00821563  0.37835488  0.36669883  1
  V  V1  1  0.75029540  0.87389885  0.62766851  1
  V  V2  1  -0.01159597  0.49229474  0.49559042  1
  V  V3  1  0.23609973  0.00352369  0.74352478  1
  V  V4  1  0.73930598  0.74541764  0.00513878  1
  V  V5  1  0.62833467  0.12670340  0.49967063  1
  V  V6  1  0.75418293  0.37069210  0.61766124  1
  V  V7  1  0.62701229  0.50520376  0.11899979  1
  V  V8  1  0.07101357  0.44485646  0.68293296  1
  V  V9  1  0.12616268  0.61434911  0.50341038  1
  V  V10  1  0.50263274  0.75129366  0.74724681  1
  V  V11  1  0.50448757  0.50894651  0.49766423  1
  V  V12  1  -0.00393437  0.87727702  0.87582878  1
  V  V13  1  0.87131323  -0.00058213  0.87502493  1
  V  V14  1  0.87516997  0.73655174  0.12488929  1
  V  V15  1  0.62771084  0.24957149  0.37381007  1
  V  V16  1  0.62408978  0.00135332  0.62642533  1
  V  V17  1  0.12247308  0.11327511  0.50124828  1
  V  V18  1  0.12863019  0.75179672  0.87431196  1
  V  V19  1  0.76199329  0.49649877  0.75280802  1
  V  V20  1  0.49628385  0.25099642  0.74714738  1
  V  V21  1  0.88610518  0.25601123  0.61811385  1
  V  V22  1  0.37514132  0.37768679  0.49630045  1
  V  V23  1  0.37716871  0.50241126  0.36536383  1
  V  V24  1  0.00258467  0.10899003  0.62128325  1
  V  V25  1  0.38029160  0.75305786  0.62036213  1
  V  V26  1  0.37365047  0.37745162  0.01500855  1
  V  V27  1  0.23544717  0.37145622  0.12805912  1
  V  V28  1  0.12216132  -0.00152527  0.12281343  1
  V  V29  1  0.12308944  0.74978638  0.37789224  1
  V  V30  1  0.50053823  0.12805521  0.62483621  1
  V  V31  1  0.49656927  0.62138433  0.13408135  1
  V  V32  1  0.50258250  0.50651425  -0.00778408  1
  V  V33  1  0.24022766  0.49875407  0.24962332  1
  V  V34  1  0.25218321  0.50654320  0.74412713  1
  V  V35  1  0.87053313  0.25076877  0.11934509  1
  V  V36  1  0.25580839  -0.00167450  0.24648200  1
  V  V37  1  0.24668547  0.13288945  0.87372975  1
  V  V38  1  0.25035709  0.74979464  0.49937055  1
  V  V39  1  0.49809881  0.01668615  -0.00066055  1
  V  V40  1  0.75015377  0.61783842  0.88173791  1
  V  V41  1  -0.00124334  0.75123271  0.75041113  1
  V  V42  1  0.50172426  0.37522331  0.37377035  1
  V  V43  1  0.24629191  0.86891725  0.11670484  1
  V  V44  1  0.12312023  0.87582112  0.25065976  1
  V  V45  1  0.74756795  -0.00895192  0.24528238  1
  V  V46  1  0.74349389  0.12675759  0.88725885  1
  V  V47  1  0.49862820  0.24000419  0.23724454  1
  V  V48  1  0.75135178  0.61703391  0.38217211  1
  V  V49  1  0.18888023  0.68492645  0.04103556  1
  V  V50  1  0.50105503  0.87272817  0.87864823  1
  V  V51  1  0.74176912  0.74373291  0.50261175  1
  V  V52  1  0.25325732  0.12624078  0.37149848  1
  V  V53  1  -0.00117218  0.00003225  0.00005338  1
  V  V54  1  0.24315729  0.87770198  0.62308902  1
  V  V55  1  0.00498988  0.62388577  0.62518740  1
  V  V56  1  0.62826846  0.37468713  0.24796253  1
  V  V57  1  0.62433876  0.24884518  0.88557227  1
  V  V58  1  0.37146120  -0.00356146  0.86580761  1
  V  V59  1  -0.00382706  0.74406972  0.24920870  1
  V  V60  1  0.48078669  0.38005302  0.87110734  1
  V  V61  1  0.49651704  0.00074122  0.49561183  1
  V  V62  1  0.12701085  0.13981736  -0.00266155  1
  V  V63  1  0.62506734  0.87456093  0.75398326  1
  V  V64  1  0.76055307  0.49839837  0.25087318  1
  V  V65  1  0.74867697  0.00327868  0.75342440  1
  V  V66  1  0.24903597  0.38312977  0.62528204  1
  V  V67  1  0.86871786  0.87191580  0.01043080  1
  V  V68  1  0.25495155  0.62858419  0.87273288  1
  V  V69  1  0.37581901  0.25325817  0.62204380  1
  V  V70  1  0.24647073  0.25228123  0.49776211  1
  V  V71  1  0.36886649  0.86431678  -0.00575369  1
  V  V72  1  0.87676373  0.88115454  0.50225888  1
  V  V73  1  0.37583954  0.74123220  0.12774267  1
  V  V74  1  0.87585813  0.74806079  0.62675786  1
  V  V75  1  0.62447178  0.37536810  0.74987580  1
  V  V76  1  -0.00085269  0.88206351  0.37964328  1
  V  V77  1  0.38061118  0.62441187  0.75006340  1
  V  V78  1  -0.00195868  0.51131949  -0.00059981  1
  V  V79  1  0.00522855  0.25418697  0.24805187  1
  V  V80  1  0.87866073  0.12976203  0.74814014  1
  V  V81  1  0.75063582  0.37063494  0.11315782  1
  V  V82  1  -0.00175532  0.12594955  0.12629210  1
  V  V83  1  0.62676115  0.50446916  0.62165955  1
  V  V84  1  0.25601884  0.62485326  0.37355065  1
  Zn  Zn85  1  0.61976666  0.01905151  0.12282746  1
  Zn  Zn86  1  0.87341032  0.12237576  0.25448974  1
  Zn  Zn87  1  0.87391459  0.00232647  0.37699847  1
  Zn  Zn88  1  0.37617773  0.12813968  0.22894914  1
  Zn  Zn89  1  0.37302672  0.12452615  0.74661110  1
  Zn  Zn90  1  0.88032956  0.61790642  0.25511242  1
  Zn  Zn91  1  0.75342622  0.12127992  0.37397642  1
  Zn  Zn92  1  0.37291538  0.87889113  0.49292315  1
  Zn  Zn93  1  0.62406435  0.74888409  0.36597287  1
  Zn  Zn94  1  0.75672869  0.25356076  0.49469321  1
  Zn  Zn95  1  0.50974627  0.63366220  0.61788701  1
  Zn  Zn96  1  0.08181079  0.31372767  0.84912715  1
  Zn  Zn97  1  0.37950231  0.00007069  0.36926139  1
  Zn  Zn98  1  0.88453343  0.37462951  -0.01619262  1
  Zn  Zn99  1  0.11838771  0.51418367  0.12404878  1
  Zn  Zn100  1  0.11857499  0.88023276  0.74472561  1
  Zn  Zn101  1  0.12641232  0.25840710  0.36953767  1
  Zn  Zn102  1  0.31129163  0.20818516  0.05790962  1
  Zn  Zn103  1  0.50381800  0.75156669  0.24559728  1
  Zn  Zn104  1  0.50363562  0.87359397  0.36093293  1
  Zn  Zn105  1  0.62196272  0.74255595  0.87890730  1
  Zn  Zn106  1  0.87853042  0.62009371  0.75391887  1
  Zn  Zn107  1  0.18424141  0.18477593  0.18797880  1
  Zn  Zn108  1  0.18423693  0.19405728  0.68317090  1
  Zn  Zn109  1  0.19389507  0.68979107  0.20583087  1
  Zn  Zn110  1  0.18669848  0.69235251  0.68651880  1
  Zn  Zn111  1  0.69094041  0.17687824  0.18353995  1
  Zn  Zn112  1  0.68893983  0.19029296  0.68889215  1
  Zn  Zn113  1  0.68833026  0.68235552  0.18816270  1
  Zn  Zn114  1  0.68972296  0.68436932  0.69278047  1
  Zn  Zn115  1  0.31469181  0.31357348  0.30667822  1
  Zn  Zn116  1  0.26821444  0.33572895  0.83275815  1
  Zn  Zn117  1  0.31727680  0.81623477  0.31184321  1
  Zn  Zn118  1  0.31039762  0.81187697  0.80531739  1
  Zn  Zn119  1  0.81730282  0.30971584  0.30783906  1
  Zn  Zn120  1  0.80874508  0.30373242  0.80630117  1
  Zn  Zn121  1  0.80900155  0.81158632  0.31456338  1
  Zn  Zn122  1  0.80955566  0.80865763  0.81811047  1
  Zn  Zn123  1  0.18183994  0.43526579  0.43333129  1
  Zn  Zn124  1  0.17919452  0.45056925  0.94665225  1
  Zn  Zn125  1  0.19059137  0.93781272  0.43422443  1
  Zn  Zn126  1  0.18409778  0.94098965  0.93367770  1
  Zn  Zn127  1  0.68950894  0.43915935  0.43704229  1
  Zn  Zn128  1  0.68650737  0.43341982  0.93382581  1
  Zn  Zn129  1  0.68664754  0.93422945  0.43190419  1
  Zn  Zn130  1  0.64996038  0.90036830  0.99417691  1
  Zn  Zn131  1  0.31258510  0.04579733  0.05641456  1
  Zn  Zn132  1  0.31221668  0.06569326  0.56230476  1
  Zn  Zn133  1  0.31879758  0.55146901  0.06390478  1
  Zn  Zn134  1  0.31843405  0.56514337  0.56049894  1
  Zn  Zn135  1  0.81305760  0.06146692  0.06546534  1
  Zn  Zn136  1  0.81207242  0.06458327  0.56373435  1
  Zn  Zn137  1  0.81820757  0.55750863  0.06086667  1
  Zn  Zn138  1  0.81401327  0.56227172  0.56849185  1
  Zn  Zn139  1  0.44164445  0.43796346  0.18915997  1
  Zn  Zn140  1  0.43641512  0.44116850  0.68450373  1
  Zn  Zn141  1  0.44162488  0.93120915  0.17788525  1
  Zn  Zn142  1  0.43676183  0.93610484  0.68362398  1
  Zn  Zn143  1  0.94046071  0.43727358  0.17704097  1
  Zn  Zn144  1  0.93456277  0.43892863  0.82782919  1
  Zn  Zn145  1  0.93278558  0.93495299  0.19183889  1
  Zn  Zn146  1  0.93672829  0.93984200  0.68845763  1
  Zn  Zn147  1  0.06576870  0.06480949  0.31303932  1
  Zn  Zn148  1  0.06324522  0.16199959  0.80719938  1
  Zn  Zn149  1  0.06287007  0.56125418  0.31896658  1
  Zn  Zn150  1  0.06592209  0.57201737  0.82103318  1
  Zn  Zn151  1  0.56785878  0.06281298  0.30809160  1
  Zn  Zn152  1  0.56135569  0.06304623  0.81759056  1
  Zn  Zn153  1  0.57188949  0.56395278  0.31211271  1
  Zn  Zn154  1  0.56788437  0.56207082  0.81099365  1
  Zn  Zn155  1  0.43800524  0.18684782  0.43203366  1
  Zn  Zn156  1  0.42920878  0.19355023  0.92435307  1
  Zn  Zn157  1  0.43959744  0.69049228  0.43252181  1
  Zn  Zn158  1  0.43846822  0.68638261  0.93856100  1
  Zn  Zn159  1  0.93976303  0.18858206  0.43560114  1
  Zn  Zn160  1  0.93548684  0.19136628  0.93784329  1
  Zn  Zn161  1  0.93406412  0.68728570  0.43831537  1
  Zn  Zn162  1  0.93299330  0.68529738  0.93519972  1
  Zn  Zn163  1  0.05530505  0.31935717  0.05589290  1
  Zn  Zn164  1  0.05998784  0.30828396  0.55608560  1
  Zn  Zn165  1  0.05286439  0.81278206  0.06542553  1
  Zn  Zn166  1  0.06263079  0.81177732  0.56001061  1
  Zn  Zn167  1  0.56043963  0.31499469  0.06158888  1
  Zn  Zn168  1  0.56572740  0.31750210  0.55900236  1
  Zn  Zn169  1  0.62727744  0.86508991  0.20720328  1
  Zn  Zn170  1  0.57406428  0.82504010  0.53792185  1
  O  O171  1  0.11897548  0.11781456  0.11662210  1
  O  O172  1  0.11836149  0.12914357  0.61024164  1
  O  O173  1  0.13938334  0.63568731  0.11818566  1
  O  O174  1  0.11779509  0.63531018  0.61347785  1
  O  O175  1  0.61411454  0.12870992  0.12603737  1
  O  O176  1  0.62035573  0.12266033  0.61895689  1
  O  O177  1  0.61856348  0.60961779  0.12543392  1
  O  O178  1  0.62599424  0.60791869  0.63323834  1
  O  O179  1  0.38034749  0.38315325  0.37838877  1
  O  O180  1  0.37944710  0.37570300  0.87380540  1
  O  O181  1  0.38308549  0.88091091  0.37624530  1
  O  O182  1  0.37670337  0.87648025  0.87500418  1
  O  O183  1  0.89134212  0.36756676  0.37777814  1
  O  O184  1  0.85841555  0.37397063  0.87285178  1
  O  O185  1  0.88301367  0.87139863  0.38658302  1
  O  O186  1  0.87946414  0.87760021  0.88260688  1
  O  O187  1  0.25114009  0.00725363  0.36277937  1
  O  O188  1  0.25353009  0.00317591  0.86058769  1
  O  O189  1  0.25656197  0.50374409  0.37012255  1
  O  O190  1  0.24476894  0.52095081  0.85590242  1
  O  O191  1  0.75091052  -0.00054964  0.36718994  1
  O  O192  1  0.75344980  0.00814846  0.86154212  1
  O  O193  1  0.74979632  0.50826356  0.36845226  1
  O  O194  1  0.74315315  0.50843756  0.86717606  1
  O  O195  1  0.24782245  0.49336551  0.13523929  1
  O  O196  1  0.25236533  0.49825293  0.63118475  1
  O  O197  1  0.24013774  0.98891755  0.12977025  1
  O  O198  1  0.25673695  0.99358431  0.63602127  1
  O  O199  1  0.74369621  0.49270050  0.13065432  1
  O  O200  1  0.74565223  0.49240895  0.63225557  1
  O  O201  1  0.75480300  1.00379797  0.14237855  1
  O  O202  1  0.74531385  0.99618368  0.63596629  1
  O  O203  1  -0.00454942  0.37058130  0.25840714  1
  O  O204  1  0.01397260  0.39446948  0.74744752  1
  O  O205  1  0.00448909  0.86487428  0.25800019  1
  O  O206  1  -0.00117402  0.87084374  0.75828414  1
  O  O207  1  0.51201126  0.37111959  0.25516067  1
  O  O208  1  0.50351408  0.37317690  0.75353046  1
  O  O209  1  0.51011937  0.87317352  0.24400373  1
  O  O210  1  0.50447338  0.87078744  0.75674378  1
  O  O211  1  0.49586586  0.13669098  0.25448092  1
  O  O212  1  0.49962734  0.13547058  0.74395170  1
  O  O213  1  0.50157674  0.61703002  0.23648424  1
  O  O214  1  0.49538706  0.63155165  0.74656068  1
  O  O215  1  1.00126621  0.12928942  0.23819196  1
  O  O216  1  0.98761437  0.11466357  0.73650376  1
  O  O217  1  0.99913127  0.63943581  0.26251241  1
  O  O218  1  0.99985111  0.63381718  0.74447016  1
  O  O219  1  0.37774837  0.27228882  -0.00785764  1
  O  O220  1  0.36499121  0.25640693  0.50031084  1
  O  O221  1  0.37757244  0.75961480  0.00492501  1
  O  O222  1  0.36895734  0.75144406  0.50591121  1
  O  O223  1  0.87933027  0.25349166  0.01525387  1
  O  O224  1  0.87257955  0.24337258  0.51439032  1
  O  O225  1  0.87116252  0.75421130  0.00836006  1
  O  O226  1  0.87012463  0.75518770  0.51389269  1
  O  O227  1  0.13809423  0.24526262  0.49766167  1
  O  O228  1  0.12146216  0.23910371  1.00228001  1
  O  O229  1  0.13159016  0.74204129  0.49364422  1
  O  O230  1  0.12392059  0.75394573  0.99364180  1
  O  O231  1  0.62640811  0.24363571  0.49221293  1
  O  O232  1  0.61820111  0.25713269  0.98403720  1
  O  O233  1  0.64309282  0.73555927  0.52082882  1
  O  O234  1  0.64042652  0.75214696  1.00115389  1
  O  O235  1  0.50221710  0.25557570  0.13959897  1
  O  O236  1  0.49768672  0.24778564  0.62669851  1
  O  O237  1  0.48830687  0.73336864  0.12585032  1
  O  O238  1  0.49413445  0.75298191  0.62638577  1
  O  O239  1  0.99621771  0.24444930  0.12914452  1
  O  O240  1  0.98960321  0.24238861  0.62087263  1
  O  O241  1  0.98940659  0.75178024  0.13764368  1
  O  O242  1  0.99373081  0.74680098  0.63021123  1
  O  O243  1  0.00172891  0.25979770  0.36609272  1
  O  O244  1  0.00053999  0.24103596  0.86432425  1
  O  O245  1  0.00495508  0.75850251  0.37240217  1
  O  O246  1  0.00388424  0.75895169  0.87101838  1
  O  O247  1  0.51145564  0.25699013  0.37244789  1
  O  O248  1  0.50377279  0.25979755  0.86250547  1
  O  O249  1  0.50345673  0.74790402  0.36342124  1
  O  O250  1  0.50076706  0.75571762  0.86745076  1
  O  O251  1  0.24346187  0.13407935  0.49448597  1
  O  O252  1  0.24249829  0.12396537  0.99138888  1
  O  O253  1  0.24362217  0.62844053  0.49488865  1
  O  O254  1  0.25727349  0.62135614  0.98926110  1
  O  O255  1  0.73673435  0.12646968  0.49972947  1
  O  O256  1  0.75514029  0.11926438  0.98555065  1
  O  O257  1  0.75857784  0.62736913  0.49060709  1
  O  O258  1  0.75453908  0.63011440  0.99069246  1
  O  O259  1  0.26313677  0.38729583  0.01838902  1
  O  O260  1  0.25196843  0.37247619  0.50697613  1
  O  O261  1  0.25653252  0.88064188  0.00361450  1
  O  O262  1  0.25244055  0.87033436  0.50572683  1
  O  O263  1  0.74944421  0.37672061  0.01204965  1
  O  O264  1  0.74693302  0.37530507  0.51392799  1
  O  O265  1  0.75857173  0.85466367  -0.00858323  1
  O  O266  1  0.75756703  0.86293434  0.50970578  1
  O  O267  1  0.13653571  0.50779012  0.24783232  1
  O  O268  1  0.13071818  0.50874789  0.73944383  1
  O  O269  1  0.13365664  0.99529281  0.24369801  1
  O  O270  1  0.13791303  0.99895707  0.74791330  1
  O  O271  1  0.63355485  0.49009443  0.24189726  1
  O  O272  1  0.63034854  0.48778933  0.74265824  1
  O  O273  1  0.63776350  0.99735395  0.24912538  1
  O  O274  1  0.63029756  0.99477201  0.74677361  1
  O  O275  1  0.36299547  0.00006149  0.24405049  1
  O  O276  1  0.36810334  -0.00227166  0.75607551  1
  O  O277  1  0.36928832  0.49565266  0.26214295  1
  O  O278  1  0.36869837  0.51707140  0.74154235  1
  O  O279  1  0.86450727  -0.00178975  0.25578321  1
  O  O280  1  0.86584977  0.00645548  0.75387773  1
  O  O281  1  0.86349311  0.49676559  0.24399471  1
  O  O282  1  0.86366842  0.49734101  0.74677143  1
  O  O283  1  0.10516065  0.37283784  0.37958911  1
  O  O284  1  0.16851485  0.37647333  0.86857861  1
  O  O285  1  0.11928957  0.86955726  0.37200789  1
  O  O286  1  0.11500662  0.86749877  0.87403183  1
  O  O287  1  0.62256064  0.37029151  0.36747133  1
  O  O288  1  0.61777499  0.36737630  0.86380829  1
  O  O289  1  0.60750251  0.85634011  0.41852054  1
  O  O290  1  0.61331540  0.86889172  0.87472246  1
  O  O291  1  0.35602060  0.12673350  0.11848159  1
  O  O292  1  0.38138231  0.13600245  0.62547677  1
  O  O293  1  0.38289219  0.62902968  0.11832763  1
  O  O294  1  0.37858660  0.63905282  0.62948271  1
  O  O295  1  0.88480226  0.13140301  0.12587846  1
  O  O296  1  0.88338613  0.12934398  0.62797476  1
  O  O297  1  0.87210475  0.63409856  0.13185368  1
  O  O298  1  0.88428966  0.63290590  0.62949783  1
  O  O299  1  0.24416089  0.26648237  0.13092798  1
  O  O300  1  0.25539971  0.26079118  0.61592254  1
  O  O301  1  0.24948538  0.74740828  0.11308075  1
  O  O302  1  0.25727959  0.75771557  0.61864033  1
  O  O303  1  0.75961913  0.25946097  0.13596813  1
  O  O304  1  0.75639422  0.25670238  0.62149827  1
  O  O305  1  0.75700452  0.74144385  0.11130797  1
  O  O306  1  0.76005876  0.75172748  0.62580056  1
  O  O307  1  0.24876764  0.24589761  0.37887944  1
  O  O308  1  0.26799393  0.22962857  0.87094590  1
  O  O309  1  0.24707586  0.74214391  0.37836058  1
  O  O310  1  0.24167369  0.74328741  0.86871386  1
  O  O311  1  0.73869407  0.25154098  0.37498767  1
  O  O312  1  0.73508420  0.23776001  0.86641970  1
  O  O313  1  0.74665148  0.74230300  0.38771286  1
  O  O314  1  0.74740580  0.73783802  0.88565770  1
  O  O315  1  0.00522473  0.11930993  0.00966562  1
  O  O316  1  0.01658986  0.12873107  0.50229902  1
  O  O317  1  -0.00756749  0.61317314  -0.00295535  1
  O  O318  1  0.00595476  0.61506213  0.50298561  1
  O  O319  1  0.48567064  0.11381804  -0.01706226  1
  O  O320  1  0.50841668  0.12063172  0.50404062  1
  O  O321  1  0.49617892  0.60997859  0.00408557  1
  O  O322  1  0.49588082  0.61224296  0.50022338  1
  O  O323  1  0.49555631  0.38456161  0.49160594  1
  O  O324  1  0.48995475  0.38214502  0.99157086  1
  O  O325  1  0.48863805  0.89800134  0.51979856  1
  O  O326  1  0.48525414  0.88186176  0.98236061  1
  O  O327  1  1.00176762  0.38827905  0.49484063  1
  O  O328  1  1.00104122  0.38900294  0.99021003  1
  O  O329  1  0.99029558  0.86942392  0.49245146  1
  O  O330  1  0.98884053  0.87832066  0.99343787  1
  O  O331  1  0.49575183  0.49749138  0.37789727  1
  O  O332  1  0.50745975  0.49073057  0.88009975  1
  O  O333  1  0.50141558  1.00124691  0.38437188  1
  O  O334  1  0.48716866  0.99131595  0.87105915  1
  O  O335  1  0.99705308  0.49208730  0.38493305  1
  O  O336  1  1.00441570  0.50541675  0.88520033  1
  O  O337  1  1.00073266  0.98509909  0.36836126  1
  O  O338  1  0.99032925  0.98551573  0.88134954  1
  O  O339  1  0.00185314  0.00652054  0.12252489  1
  O  O340  1  -0.00405787  0.00946346  0.61885566  1
  O  O341  1  0.00449731  0.50144985  0.11267064  1
  O  O342  1  0.01147098  0.50114781  0.61735021  1
  O  O343  1  0.48487730  0.00413882  0.10064203  1
  O  O344  1  0.50421531  0.01256948  0.62365883  1
  O  O345  1  0.50723212  0.50205388  0.11670673  1
  O  O346  1  0.50878637  0.50038152  0.61457192  1
  O  O347  1  0.25440205  0.38400373  0.23694715  1
  O  O348  1  0.26228033  0.39142568  0.73156402  1
  O  O349  1  0.24272437  0.88063722  0.24238037  1
  O  O350  1  0.24620522  0.88600834  0.74152897  1
  O  O351  1  0.74127520  0.37972519  0.24674739  1
  O  O352  1  0.74026421  0.37860561  0.73888322  1
  O  O353  1  0.74512089  0.88565811  0.25424447  1
  O  O354  1  0.74456250  0.88151916  0.74822714  1
  O  O355  1  0.24852828  0.11647850  0.25633836  1
  O  O356  1  0.25136177  0.11290751  0.75059053  1
  O  O357  1  0.25429238  0.61485600  0.26440167  1
  O  O358  1  0.25894268  0.62557749  0.75016876  1
  O  O359  1  0.75407784  0.11383856  0.25592625  1
  O  O360  1  0.75653768  0.11696023  0.75037510  1
  O  O361  1  0.75346114  0.61277273  0.25825344  1
  O  O362  1  0.75372437  0.61225294  0.75712314  1
  O  O363  1  0.36094014  0.12411076  0.37189570  1
  O  O364  1  0.36612147  0.11159177  0.86755418  1
  O  O365  1  0.36362636  0.61552892  0.38425482  1
  O  O366  1  0.36770645  0.63484078  0.86173196  1
  O  O367  1  0.87383392  0.12087740  0.37521367  1
  O  O368  1  0.86691024  0.11940652  0.86553521  1
  O  O369  1  0.85829347  0.63226930  0.37080012  1
  O  O370  1  0.85664687  0.62931449  0.86866064  1
  O  O371  1  0.13575213  0.37906312  0.12187671  1
  O  O372  1  0.12867157  0.37772393  0.62613821  1
  O  O373  1  0.12698418  0.87755291  0.13012261  1
  O  O374  1  0.13872699  0.86955572  0.62436505  1
  O  O375  1  0.63074452  0.38037760  0.13186187  1
  O  O376  1  0.63157959  0.38254292  0.63074912  1
  O  O377  1  0.62431706  0.90726682  0.10377931  1
  O  O378  1  0.63272209  0.88368258  0.62976279  1
  O  O379  1  0.10974348  0.24568290  0.24996380  1
  O  O380  1  0.13355792  0.24240337  0.76639284  1
  O  O381  1  0.11767694  0.75723541  0.25866805  1
  O  O382  1  0.11676509  0.75634415  0.75762828  1
  O  O383  1  0.61644012  0.25720218  0.25791235  1
  O  O384  1  0.61400316  0.26170254  0.74752411  1
  O  O385  1  0.62692348  0.75573455  0.24628141  1
  O  O386  1  0.61860391  0.75759243  0.74943033  1
  O  O387  1  0.39488241  0.25027487  0.25550312  1
  O  O388  1  0.38962778  0.25231354  0.73962816  1
  O  O389  1  0.36779986  0.75315032  0.22977864  1
  O  O390  1  0.38267989  0.74388383  0.74039493  1
  O  O391  1  0.88779085  0.24578478  0.23922362  1
  O  O392  1  0.86777579  0.23453407  0.73395453  1
  O  O393  1  0.88038363  0.75178154  0.24180451  1
  O  O394  1  0.88019825  0.75190705  0.74047809  1
  O  O395  1  0.38241603  0.49474157  0.49015405  1
  O  O396  1  0.38623706  0.48533695  0.99750930  1
  O  O397  1  0.38312348  1.00585232  0.49559917  1
  O  O398  1  0.37601207  0.98645863  0.98080113  1
  O  O399  1  0.89131697  0.50242024  0.50731329  1
  O  O400  1  0.88888069  0.49259529  1.00432100  1
  O  O401  1  0.86682684  0.98401458  0.50118244  1
  O  O402  1  0.87763444  0.99044927  0.99585945  1
  O  O403  1  0.11522009  0.00187317  0.00663290  1
  O  O404  1  0.13358630  0.01517929  0.49800106  1
  O  O405  1  0.11232851  0.51105092  0.00709543  1
  O  O406  1  0.11808349  0.51153765  0.49563162  1
  O  O407  1  0.59879940  0.00517992  -0.01809762  1
  O  O408  1  0.61824243  0.01009696  0.50755003  1
  O  O409  1  0.61494587  0.48925341  0.00847106  1
  O  O410  1  0.61637410  0.49438289  0.50828726  1
  O  O411  1  0.37374185  0.37626954  0.11750956  1
  O  O412  1  0.36827036  0.37332865  0.61483826  1
  O  O413  1  0.36576538  0.86550806  0.11178126  1
  O  O414  1  0.36368912  0.86412766  0.62614146  1
  O  O415  1  0.86436600  0.36614014  0.12579655  1
  O  O416  1  0.86912331  0.35612764  0.63010006  1
  O  O417  1  0.87853976  0.86678208  0.11332811  1
  O  O418  1  0.87020920  0.86829176  0.62171278  1
  O  O419  1  0.13535627  0.12892562  0.38421643  1
  O  O420  1  0.13524605  0.11492712  0.88772454  1
  O  O421  1  0.13538820  0.62963567  0.38332081  1
  O  O422  1  0.13581872  0.64391608  0.87558113  1
  O  O423  1  0.62525582  0.13454532  0.38386005  1
  O  O424  1  0.63214851  0.13650099  0.86717041  1
  O  O425  1  0.64489980  0.62794448  0.37274261  1
  O  O426  1  0.64274584  0.62766003  0.86849666  1
