# generated using pymatgen
data_V85Zn86O256
_symmetry_space_group_name_H-M   'P 1'
_cell_length_a   16.99517543
_cell_length_b   16.98164706
_cell_length_c   16.99252629
_cell_angle_alpha   89.97920789
_cell_angle_beta   90.03259072
_cell_angle_gamma   90.05592321
_symmetry_Int_Tables_number   1
_chemical_formula_structural   V85Zn86O256
_chemical_formula_sum   'V85 Zn86 O256'
_cell_volume   4904.14279450
_cell_formula_units_Z   1
loop_
 _symmetry_equiv_pos_site_id
 _symmetry_equiv_pos_as_xyz
  1  'x, y, z'
loop_
 _atom_site_type_symbol
 _atom_site_label
 _atom_site_symmetry_multiplicity
 _atom_site_fract_x
 _atom_site_fract_y
 _atom_site_fract_z
 _atom_site_occupancy
  V  V0  1  0.49805675  0.74621054  0.75390954  1
  V  V1  1  -0.00287578  0.12962048  0.62910874  1
  V  V2  1  -0.00478336  0.48279278  0.50272553  1
  V  V3  1  0.12226056  0.36399410  0.73862828  1
  V  V4  1  0.10724553  0.37209357  0.24646479  1
  V  V5  1  0.87599580  -0.00073653  0.37506095  1
  V  V6  1  0.63659963  0.49783729  0.63185471  1
  V  V7  1  0.49590644  0.49732987  0.49969116  1
  V  V8  1  0.24190611  0.87057109  0.62964124  1
  V  V9  1  0.24666973  -0.00300019  0.74624912  1
  V  V10  1  0.12685757  0.74644156  0.87597118  1
  V  V11  1  -0.00104548  -0.00043973  0.50090884  1
  V  V12  1  0.24719225  0.74860370  0.00016708  1
  V  V13  1  0.75316224  0.87525092  0.12479309  1
  V  V14  1  0.87865991  0.62336287  0.24783761  1
  V  V15  1  0.37170291  0.74197589  0.62852362  1
  V  V16  1  0.13197739  0.49769752  0.11705632  1
  V  V17  1  0.62434540  0.62510840  0.49856694  1
  V  V18  1  0.61989430  0.24899074  0.37107283  1
  V  V19  1  0.24912478  0.61592596  0.87681196  1
  V  V20  1  0.62609726  0.87257163  0.74926123  1
  V  V21  1  0.75475177  0.62177562  0.87270115  1
  V  V22  1  0.87474530  0.87261282  0.49935063  1
  V  V23  1  0.37474465  0.87763809  -0.00046038  1
  V  V24  1  0.62660085  0.62614605  -0.00294539  1
  V  V25  1  0.87652641  -0.00149146  0.87354943  1
  V  V26  1  0.37075870  0.61489576  0.75953942  1
  V  V27  1  0.74902200  0.74850202  0.49827313  1
  V  V28  1  0.00099151  0.48926660  -0.00523389  1
  V  V29  1  0.87825732  0.62039864  0.75086016  1
  V  V30  1  0.00413623  -0.00231562  0.00264758  1
  V  V31  1  0.50297224  0.63033128  0.12981848  1
  V  V32  1  0.12680801  0.12007588  -0.00181246  1
  V  V33  1  0.43960755  0.29436643  0.19146413  1
  V  V34  1  0.10940913  0.25421688  0.87390942  1
  V  V35  1  0.87532751  0.48235844  0.86952503  1
  V  V36  1  0.00015712  0.87190064  0.36892420  1
  V  V37  1  0.37896141  0.87159273  0.50530202  1
  V  V38  1  0.75337007  0.36527162  0.12614808  1
  V  V39  1  0.88058581  0.74897301  0.12345979  1
  V  V40  1  0.87693011  0.87521147  -0.00125551  1
  V  V41  1  0.88174953  0.13165761  0.24956726  1
  V  V42  1  0.00829456  0.87452987  0.86798998  1
  V  V43  1  0.62836318  0.49786119  0.12404094  1
  V  V44  1  0.75135820  0.62519761  0.37204454  1
  V  V45  1  0.50065126  0.62450523  0.62745845  1
  V  V46  1  0.13550882  -0.00440105  0.13857652  1
  V  V47  1  0.12068756  -0.00365428  0.62882967  1
  V  V48  1  0.75233826  0.75086138  -0.00053605  1
  V  V49  1  0.87565326  0.13505589  0.74974592  1
  V  V50  1  0.75497480  0.26990386  0.49843542  1
  V  V51  1  0.25020031  0.26912825  0.50867241  1
  V  V52  1  0.24469958  0.74065228  0.50354716  1
  V  V53  1  0.37995548  0.75189554  0.12443139  1
  V  V54  1  0.37244774  0.13880147  0.72971971  1
  V  V55  1  0.00434160  0.74939215  0.25053408  1
  V  V56  1  0.00826947  0.74923835  0.74441191  1
  V  V57  1  0.49083527  0.36877114  0.38093976  1
  V  V58  1  0.75051340  0.87256590  0.62530365  1
  V  V59  1  0.62468607  0.13094243  0.00010797  1
  V  V60  1  0.74971506  -0.00162987  0.25119612  1
  V  V61  1  0.24707857  0.13045949  0.86811521  1
  V  V62  1  0.74940937  0.12605933  0.38051416  1
  V  V63  1  0.50121117  0.00287216  0.50718107  1
  V  V64  1  0.24973858  0.48656150  0.24908073  1
  V  V65  1  0.87765157  0.26291598  0.62304774  1
  V  V66  1  0.61941243  0.86746805  0.25055419  1
  V  V67  1  0.12547847  0.13020921  0.50071713  1
  V  V68  1  0.88022761  0.48673359  0.37606110  1
  V  V69  1  0.87832050  0.74286541  0.62594995  1
  V  V70  1  0.74739858  0.13055332  0.87575276  1
  V  V71  1  0.74968041  -0.00186986  0.75051604  1
  V  V72  1  0.49894341  0.87784630  0.87424897  1
  V  V73  1  0.50123614  0.00672008  -0.00424672  1
  V  V74  1  0.75083901  0.49900145  0.24853854  1
  V  V75  1  0.17816437  0.81101887  0.31620189  1
  V  V76  1  0.11239650  0.25937894  0.37503228  1
  V  V77  1  0.10537179  0.63149044  0.49217799  1
  V  V78  1  0.37473761  0.62494683  0.25457086  1
  V  V79  1  0.49594010  0.12001019  0.13588757  1
  V  V80  1  0.25305064  0.25928439  0.01022157  1
  V  V81  1  0.00791908  0.62435531  0.11505574  1
  V  V82  1  0.48958905  0.49579615  -0.00754807  1
  V  V83  1  0.37497614  0.00571102  0.87026912  1
  V  V84  1  0.12679735  0.51079399  0.62752164  1
  Zn  Zn85  1  0.00618760  0.12595533  0.13162513  1
  Zn  Zn86  1  0.62618136  0.74953100  0.87581036  1
  Zn  Zn87  1  0.60826316  0.74173618  0.36579626  1
  Zn  Zn88  1  0.52774208  0.28809953  0.73515962  1
  Zn  Zn89  1  0.88044972  0.36470811  -0.00173310  1
  Zn  Zn90  1  0.24825920  0.12513270  0.37098904  1
  Zn  Zn91  1  0.35323551  0.10927267  0.24574144  1
  Zn  Zn92  1  0.36968223  0.00191671  0.37177015  1
  Zn  Zn93  1  0.25188253  0.87769457  0.13613059  1
  Zn  Zn94  1  0.89384627  0.25438958  0.12649196  1
  Zn  Zn95  1  0.75299339  0.24912292  -0.00000987  1
  Zn  Zn96  1  0.36847253  0.49207247  0.37840466  1
  Zn  Zn97  1  0.24149394  0.62252387  0.36934352  1
  Zn  Zn98  1  0.62500860  0.00634990  0.62765484  1
  Zn  Zn99  1  0.62486016  0.12622905  0.50164690  1
  Zn  Zn100  1  0.40348415  0.31603314  0.58145540  1
  Zn  Zn101  1  0.50242546  0.14334458  0.62299271  1
  Zn  Zn102  1  0.62687006  -0.00145078  0.12376438  1
  Zn  Zn103  1  0.50277097  0.87329467  0.37957340  1
  Zn  Zn104  1  0.49485946  0.35841405  0.88124183  1
  Zn  Zn105  1  0.61990076  0.36895613  0.24735737  1
  Zn  Zn106  1  0.75675726  0.38406409  0.65679013  1
  Zn  Zn107  1  0.18325048  0.18820961  0.18941843  1
  Zn  Zn108  1  0.18750809  0.18963032  0.68350018  1
  Zn  Zn109  1  0.19464582  0.67926923  0.17936023  1
  Zn  Zn110  1  0.18413500  0.67655872  0.68696471  1
  Zn  Zn111  1  0.68455583  0.18217236  0.19002496  1
  Zn  Zn112  1  0.69407558  0.18676069  0.67780437  1
  Zn  Zn113  1  0.69083066  0.68804695  0.18449235  1
  Zn  Zn114  1  0.68849278  0.68306310  0.68948973  1
  Zn  Zn115  1  0.30243705  0.30558514  0.32065046  1
  Zn  Zn116  1  0.30526571  0.33001605  0.79945294  1
  Zn  Zn117  1  0.34578145  0.81325015  0.31200704  1
  Zn  Zn118  1  0.31136427  0.81198612  0.81302918  1
  Zn  Zn119  1  0.80860457  0.31112329  0.30908712  1
  Zn  Zn120  1  0.69710618  0.31827133  0.81143028  1
  Zn  Zn121  1  0.81305535  0.80988569  0.31051655  1
  Zn  Zn122  1  0.81646442  0.80844598  0.81315048  1
  Zn  Zn123  1  0.18016874  0.44253727  0.43419795  1
  Zn  Zn124  1  0.18869350  0.43070294  0.93670539  1
  Zn  Zn125  1  0.19046812  0.94025845  0.44928610  1
  Zn  Zn126  1  0.18967313  0.93455730  0.93556616  1
  Zn  Zn127  1  0.68110830  0.43994696  0.43210144  1
  Zn  Zn128  1  0.69721726  0.43901519  0.94490296  1
  Zn  Zn129  1  0.68438148  0.93636984  0.43678199  1
  Zn  Zn130  1  0.68548363  0.94143098  0.93473749  1
  Zn  Zn131  1  0.31307959  0.06906092  0.06048209  1
  Zn  Zn132  1  0.30284868  0.05611017  0.54272412  1
  Zn  Zn133  1  0.31151934  0.56444363  0.06265332  1
  Zn  Zn134  1  0.33295437  0.51117532  0.58946286  1
  Zn  Zn135  1  0.81401784  0.06293946  0.06387347  1
  Zn  Zn136  1  0.81282319  0.06235140  0.56340032  1
  Zn  Zn137  1  0.81711956  0.55880509  0.05913310  1
  Zn  Zn138  1  0.81793313  0.56243376  0.55950221  1
  Zn  Zn139  1  0.43837838  0.45458022  0.18380531  1
  Zn  Zn140  1  0.44443848  0.44522076  0.69871725  1
  Zn  Zn141  1  0.43642945  0.94252408  0.18620043  1
  Zn  Zn142  1  0.43462023  0.93849178  0.68514400  1
  Zn  Zn143  1  0.93700808  0.44136264  0.18261892  1
  Zn  Zn144  1  0.94865688  0.43845227  0.69211179  1
  Zn  Zn145  1  0.94048667  0.94056658  0.18777178  1
  Zn  Zn146  1  0.93537049  0.93527719  0.68781843  1
  Zn  Zn147  1  0.06797445  0.06351176  0.31642595  1
  Zn  Zn148  1  0.06231429  0.06211681  0.81028281  1
  Zn  Zn149  1  0.06111577  0.55826793  0.31214938  1
  Zn  Zn150  1  0.05978303  0.56482700  0.81475618  1
  Zn  Zn151  1  0.56181125  0.05511543  0.31963960  1
  Zn  Zn152  1  0.56395187  0.15642973  0.81512303  1
  Zn  Zn153  1  0.56083149  0.55774722  0.31216802  1
  Zn  Zn154  1  0.58761280  0.47260232  0.81726057  1
  Zn  Zn155  1  0.43008989  0.18442947  0.43483987  1
  Zn  Zn156  1  0.40461158  0.22861550  0.90595048  1
  Zn  Zn157  1  0.43771751  0.68894505  0.43782373  1
  Zn  Zn158  1  0.43924270  0.68500249  0.93955244  1
  Zn  Zn159  1  0.93636059  0.19007859  0.44082040  1
  Zn  Zn160  1  0.93453057  0.18479183  0.94203491  1
  Zn  Zn161  1  0.93354830  0.68882898  0.43063313  1
  Zn  Zn162  1  0.94092190  0.68513280  0.93551952  1
  Zn  Zn163  1  0.06813979  0.30787582  0.06465568  1
  Zn  Zn164  1  0.06301746  0.31314405  0.56611233  1
  Zn  Zn165  1  0.06847494  0.81569675  0.06190412  1
  Zn  Zn166  1  0.06081644  0.81119171  0.56024116  1
  Zn  Zn167  1  0.56520052  0.31326800  0.05594179  1
  Zn  Zn168  1  0.57705773  0.31777018  0.55862926  1
  Zn  Zn169  1  0.56378272  0.81524296  0.06294832  1
  Zn  Zn170  1  0.56333250  0.80854855  0.56464646  1
  O  O171  1  0.12492145  0.10976631  0.11278438  1
  O  O172  1  0.11264787  0.11958689  0.62323560  1
  O  O173  1  0.11742330  0.61201255  0.12872013  1
  O  O174  1  0.12280984  0.62036138  0.60520177  1
  O  O175  1  0.61922127  0.11939262  0.11816042  1
  O  O176  1  0.62135634  0.12315326  0.61829062  1
  O  O177  1  0.62137259  0.62178312  0.11863534  1
  O  O178  1  0.62219165  0.62342093  0.61381196  1
  O  O179  1  0.38750364  0.37229479  0.36889402  1
  O  O180  1  0.38010922  0.33994457  0.87727689  1
  O  O181  1  0.37429822  0.87776856  0.39674856  1
  O  O182  1  0.37982539  0.88272184  0.87895521  1
  O  O183  1  0.86837969  0.38845037  0.36810589  1
  O  O184  1  0.87876336  0.38485708  0.87874139  1
  O  O185  1  0.88170496  0.87893007  0.37896741  1
  O  O186  1  0.88484951  0.87807054  0.88119349  1
  O  O187  1  0.26432921  0.01872733  0.42532939  1
  O  O188  1  0.25237932  0.00611355  0.86416002  1
  O  O189  1  0.25121126  0.50292867  0.36571906  1
  O  O190  1  0.24129345  0.51726820  0.88601746  1
  O  O191  1  0.75509903  0.00577205  0.37046157  1
  O  O192  1  0.75908968  0.00193892  0.86740670  1
  O  O193  1  0.75424682  0.50977729  0.36975595  1
  O  O194  1  0.76351399  0.51636606  0.88666496  1
  O  O195  1  0.24075715  0.50635530  0.13271927  1
  O  O196  1  0.22353096  0.50567259  0.60968748  1
  O  O197  1  0.23900552  0.99709709  0.12067063  1
  O  O198  1  0.24255305  0.98916637  0.62758360  1
  O  O199  1  0.74592622  0.49370637  0.12913231  1
  O  O200  1  0.73978463  0.50069468  0.61385686  1
  O  O201  1  0.75079786  0.99296683  0.13494048  1
  O  O202  1  0.75149755  0.99037735  0.63235249  1
  O  O203  1  0.00954008  0.38147203  0.24999445  1
  O  O204  1  0.02772725  0.39358412  0.76204060  1
  O  O205  1  -0.00282796  0.87063544  0.26158924  1
  O  O206  1  -0.00632377  0.86633263  0.76131384  1
  O  O207  1  0.49729738  0.36442469  0.25017567  1
  O  O208  1  0.51371275  0.39573780  0.76723378  1
  O  O209  1  0.51900132  0.88066949  0.24634128  1
  O  O210  1  0.50718997  0.86732410  0.75205166  1
  O  O211  1  0.50874824  0.11425220  0.23558268  1
  O  O212  1  0.47815644  0.12472341  0.73857007  1
  O  O213  1  0.49348875  0.61576243  0.23685088  1
  O  O214  1  0.48819581  0.63932470  0.74963365  1
  O  O215  1  0.98328696  0.11401644  0.25367062  1
  O  O216  1  0.98849767  0.11318000  0.73788381  1
  O  O217  1  0.99740711  0.62956022  0.24065112  1
  O  O218  1  0.98958276  0.63914845  0.75484379  1
  O  O219  1  0.34853650  0.22431242  0.00437382  1
  O  O220  1  0.35602849  0.25038893  0.50147000  1
  O  O221  1  0.37219531  0.75540529  0.00882050  1
  O  O222  1  0.36540462  0.75084572  0.50989765  1
  O  O223  1  0.87046188  0.24676714  0.00896631  1
  O  O224  1  0.86580681  0.24596552  0.51084427  1
  O  O225  1  0.87409479  0.75611672  0.00489624  1
  O  O226  1  0.86959708  0.75241631  0.50680271  1
  O  O227  1  0.12350824  0.24904497  0.49210027  1
  O  O228  1  0.12973209  0.23769606  0.98776651  1
  O  O229  1  0.12709761  0.73894358  0.50049828  1
  O  O230  1  0.13540666  0.75434237  0.99032998  1
  O  O231  1  0.63962288  0.24893231  0.48962856  1
  O  O232  1  0.63035765  0.23442643  1.00310848  1
  O  O233  1  0.63078055  0.73866367  0.49672945  1
  O  O234  1  0.63313883  0.74398187  1.00088291  1
  O  O235  1  0.50344552  0.23818381  0.12781977  1
  O  O236  1  0.49882240  0.26301478  0.62403435  1
  O  O237  1  0.49345388  0.74142699  0.11876240  1
  O  O238  1  0.49398920  0.74249546  0.63325805  1
  O  O239  1  1.00599882  0.23832481  0.12456653  1
  O  O240  1  0.99193958  0.23896938  0.62066812  1
  O  O241  1  1.00146766  0.74417188  0.12892267  1
  O  O242  1  0.99028037  0.75751264  0.63373837  1
  O  O243  1  0.01317192  0.24718927  0.37875493  1
  O  O244  1  0.01182601  0.23791293  0.87511870  1
  O  O245  1  -0.00297045  0.75882478  0.36449224  1
  O  O246  1  0.00832564  0.75605609  0.86989057  1
  O  O247  1  0.50952476  0.25574081  0.38843900  1
  O  O248  1  0.50482150  0.24288992  0.85661990  1
  O  O249  1  0.49581376  0.75932828  0.37387399  1
  O  O250  1  0.50147315  0.75775488  0.86910433  1
  O  O251  1  0.22855673  0.14113796  0.51348214  1
  O  O252  1  0.23608859  0.11744957  0.98630599  1
  O  O253  1  0.24320060  0.63941867  0.49017787  1
  O  O254  1  0.25853430  0.64116630  0.99222649  1
  O  O255  1  0.75264480  0.12669222  0.48750581  1
  O  O256  1  0.74287134  0.11867055  0.99278545  1
  O  O257  1  0.74445125  0.62813050  0.49023477  1
  O  O258  1  0.74684613  0.63285598  0.99872950  1
  O  O259  1  0.25174207  0.35867830  -0.00322323  1
  O  O260  1  0.24307099  0.36810028  0.49446064  1
  O  O261  1  0.26005674  0.86472499  -0.00269545  1
  O  O262  1  0.25475929  0.86187426  0.51302569  1
  O  O263  1  0.75722699  0.37108291  0.01344060  1
  O  O264  1  0.74876501  0.36961158  0.49368014  1
  O  O265  1  0.75557206  0.87108514  0.00383391  1
  O  O266  1  0.75490808  0.86759096  0.50281814  1
  O  O267  1  0.12988306  0.48959983  0.24446239  1
  O  O268  1  0.11917056  0.52001815  0.72821483  1
  O  O269  1  0.12072988  1.00040549  0.23642087  1
  O  O270  1  0.13753002  1.00189419  0.74388832  1
  O  O271  1  0.62996611  0.49974833  0.23694972  1
  O  O272  1  0.63192150  0.52466462  0.72834394  1
  O  O273  1  0.63836773  0.99027673  0.25229680  1
  O  O274  1  0.64205798  0.98773311  0.74737831  1
  O  O275  1  0.37321022  -0.00589529  0.25815321  1
  O  O276  1  0.36118013  0.00243542  0.75083476  1
  O  O277  1  0.36618520  0.50797509  0.25151894  1
  O  O278  1  0.37721000  0.51750700  0.76328069  1
  O  O279  1  0.86512805  0.00331234  0.25656245  1
  O  O280  1  0.86496554  0.00193099  0.75349981  1
  O  O281  1  0.87118607  0.50653427  0.25561129  1
  O  O282  1  0.88639791  0.51380342  0.75625463  1
  O  O283  1  0.12244352  0.36787265  0.36339369  1
  O  O284  1  0.12100609  0.35514110  0.87942818  1
  O  O285  1  0.12277439  0.87656960  0.37585530  1
  O  O286  1  0.11618668  0.86468480  0.87576172  1
  O  O287  1  0.61179115  0.36821573  0.36979202  1
  O  O288  1  0.62617198  0.38386811  0.87923224  1
  O  O289  1  0.62890675  0.86960850  0.36049945  1
  O  O290  1  0.62028174  0.87314124  0.86301901  1
  O  O291  1  0.39128578  0.11776235  0.12991789  1
  O  O292  1  0.36708935  0.11698361  0.63051318  1
  O  O293  1  0.38427693  0.63112418  0.13203392  1
  O  O294  1  0.38041286  0.62181869  0.63963324  1
  O  O295  1  0.87506685  0.12097900  0.14219740  1
  O  O296  1  0.88036067  0.12868487  0.63052482  1
  O  O297  1  0.88412117  0.62926639  0.12916310  1
  O  O298  1  0.86909857  0.63626778  0.63304117  1
  O  O299  1  0.23301625  0.24797737  0.10765742  1
  O  O300  1  0.23434303  0.26146975  0.60876758  1
  O  O301  1  0.25761612  0.75311901  0.11600137  1
  O  O302  1  0.25016841  0.75120571  0.62009271  1
  O  O303  1  0.74691378  0.26040902  0.13052607  1
  O  O304  1  0.75933920  0.26132156  0.61541199  1
  O  O305  1  0.76052062  0.75555630  0.11828425  1
  O  O306  1  0.75699797  0.75364703  0.61932290  1
  O  O307  1  0.23292024  0.24757937  0.39035019  1
  O  O308  1  0.23607923  0.23483073  0.87586123  1
  O  O309  1  0.24353817  0.75680318  0.37722137  1
  O  O310  1  0.24205892  0.74803016  0.88027846  1
  O  O311  1  0.74710707  0.24278041  0.38162001  1
  O  O312  1  0.75223290  0.23199406  0.87810192  1
  O  O313  1  0.75214099  0.73616340  0.37802519  1
  O  O314  1  0.75175424  0.74222342  0.88428135  1
  O  O315  1  0.00965949  0.10896135  -0.00469380  1
  O  O316  1  0.00473947  0.12030901  0.50973479  1
  O  O317  1  -0.00204140  0.62042151  0.01190964  1
  O  O318  1  0.00498132  0.62899865  0.49763141  1
  O  O319  1  0.50928167  0.11367486  0.00921982  1
  O  O320  1  0.49774138  0.11290471  0.50492453  1
  O  O321  1  0.51056501  0.62213766  0.00995203  1
  O  O322  1  0.50947451  0.62217343  0.50473055  1
  O  O323  1  0.50193754  0.38441086  0.49464767  1
  O  O324  1  0.50520784  0.39104594  0.99865773  1
  O  O325  1  0.49323145  0.87828015  0.50617465  1
  O  O326  1  0.49579873  0.88495538  0.99596099  1
  O  O327  1  1.00035990  0.38486918  0.49873136  1
  O  O328  1  1.00009055  0.38609050  1.00671646  1
  O  O329  1  0.99388735  0.87648266  0.48780313  1
  O  O330  1  0.99845162  0.88307256  0.99162848  1
  O  O331  1  0.50015585  0.48858605  0.38211786  1
  O  O332  1  0.50738842  0.51317983  0.89506218  1
  O  O333  1  0.49939945  0.99202707  0.39363478  1
  O  O334  1  0.49019405  0.99388854  0.88268497  1
  O  O335  1  0.99026443  0.50450933  0.38682917  1
  O  O336  1  0.99087341  0.51003223  0.88724764  1
  O  O337  1  0.99647897  0.99211958  0.38111222  1
  O  O338  1  0.99729601  0.99034317  0.87876321  1
  O  O339  1  0.00973287  0.00090987  0.11619751  1
  O  O340  1  0.00054620  0.00338188  0.61922918  1
  O  O341  1  0.00674351  0.50810600  0.11616455  1
  O  O342  1  0.00451777  0.49993885  0.60770709  1
  O  O343  1  0.50405825  0.00644934  0.11543753  1
  O  O344  1  0.50573899  -0.00407492  0.61523118  1
  O  O345  1  0.51148388  0.50980929  0.11557648  1
  O  O346  1  0.51463201  0.50887262  0.61640409  1
  O  O347  1  0.24491391  0.38471942  0.25398146  1
  O  O348  1  0.21831736  0.38994801  0.76335134  1
  O  O349  1  0.24518969  0.86169419  0.25964508  1
  O  O350  1  0.25286461  0.87937803  0.73686177  1
  O  O351  1  0.74521643  0.38324492  0.24317616  1
  O  O352  1  0.76576128  0.39260649  0.76737757  1
  O  O353  1  0.74771402  0.88132222  0.24518492  1
  O  O354  1  0.74583854  0.87610836  0.74769443  1
  O  O355  1  0.23967382  0.12313214  0.25652452  1
  O  O356  1  0.25144963  0.11655921  0.75007489  1
  O  O357  1  0.25886053  0.61659937  0.25137167  1
  O  O358  1  0.26330339  0.63266732  0.75939650  1
  O  O359  1  0.75639464  0.11629417  0.26097957  1
  O  O360  1  0.75705930  0.11388719  0.75577747  1
  O  O361  1  0.75587892  0.61975959  0.25432965  1
  O  O362  1  0.76273206  0.63497286  0.76312835  1
  O  O363  1  0.37000697  0.12160456  0.36680868  1
  O  O364  1  0.36151787  0.12208879  0.85705040  1
  O  O365  1  0.37448905  0.62757850  0.35979299  1
  O  O366  1  0.36537264  0.63736051  0.86551694  1
  O  O367  1  0.86931902  0.11961651  0.36769787  1
  O  O368  1  0.87025094  0.11635565  0.86704201  1
  O  O369  1  0.86692412  0.61862902  0.36656127  1
  O  O370  1  0.86997678  0.62484080  0.86724661  1
  O  O371  1  0.12248525  0.38325680  0.13930277  1
  O  O372  1  0.11792330  0.38744238  0.63474860  1
  O  O373  1  0.13057150  0.89017671  0.12244361  1
  O  O374  1  0.13157096  0.88187284  0.61841660  1
  O  O375  1  0.63174604  0.38300494  0.12586224  1
  O  O376  1  0.63312293  0.39350737  0.62675692  1
  O  O377  1  0.63468301  0.87602392  0.13469714  1
  O  O378  1  0.63234552  0.87035935  0.63749976  1
  O  O379  1  0.12523287  0.26537572  0.26029210  1
  O  O380  1  0.12328443  0.25676657  0.75701830  1
  O  O381  1  0.12643659  0.74873161  0.25203992  1
  O  O382  1  0.11420252  0.74573897  0.75346666  1
  O  O383  1  0.63139235  0.24913452  0.26711914  1
  O  O384  1  0.63111157  0.23960247  0.75519135  1
  O  O385  1  0.63391024  0.76339052  0.24924751  1
  O  O386  1  0.61637955  0.75379130  0.75248703  1
  O  O387  1  0.37247328  0.24434940  0.24847097  1
  O  O388  1  0.35545686  0.23733839  0.73518747  1
  O  O389  1  0.37367143  0.74067173  0.23326004  1
  O  O390  1  0.38210692  0.74953733  0.74392079  1
  O  O391  1  0.87033605  0.23377295  0.25026410  1
  O  O392  1  0.87110362  0.23446658  0.73780033  1
  O  O393  1  0.88277389  0.74401221  0.24144488  1
  O  O394  1  0.88379965  0.74454146  0.74239233  1
  O  O395  1  0.39332395  0.51632741  0.49212401  1
  O  O396  1  0.39142998  0.50736001  1.00480540  1
  O  O397  1  0.39082604  0.98612099  0.51228463  1
  O  O398  1  0.38170833  0.99876524  0.99297776  1
  O  O399  1  0.88843611  0.50447394  0.49151687  1
  O  O400  1  0.88518451  0.49691607  0.99066535  1
  O  O401  1  0.87953532  0.99277579  0.49426980  1
  O  O402  1  0.88463515  0.99499764  0.99550711  1
  O  O403  1  0.11885188  0.00226106  -0.00016113  1
  O  O404  1  0.11496627  0.01027380  0.50892181  1
  O  O405  1  0.11944604  0.49239261  0.01113080  1
  O  O406  1  0.10807644  0.51049219  0.50001495  1
  O  O407  1  0.61604752  0.00324855  0.00218093  1
  O  O408  1  0.61412266  -0.00255223  0.50402244  1
  O  O409  1  0.62688320  0.51061006  0.01306889  1
  O  O410  1  0.61839980  0.51138283  0.50322566  1
  O  O411  1  0.39147145  0.35950736  0.13500013  1
  O  O412  1  0.36930895  0.40920576  0.62752899  1
  O  O413  1  0.37307911  0.86704726  0.11934155  1
  O  O414  1  0.36664722  0.86409595  0.61941837  1
  O  O415  1  0.86651426  0.37181170  0.12726575  1
  O  O416  1  0.88071129  0.36505896  0.63319645  1
  O  O417  1  0.87353535  0.87042998  0.11845169  1
  O  O418  1  0.86952532  0.86403313  0.61924255  1
  O  O419  1  0.12217591  0.13490799  0.38662139  1
  O  O420  1  0.12821187  0.12808589  0.87778307  1
  O  O421  1  0.12313895  0.62257572  0.38798056  1
  O  O422  1  0.13313321  0.63908025  0.87058519  1
  O  O423  1  0.63270674  0.12963249  0.37917701  1
  O  O424  1  0.63711283  0.10997369  0.88714870  1
  O  O425  1  0.63189158  0.62438778  0.37903399  1
  O  O426  1  0.63756796  0.62782173  0.89093752  1
