# generated using pymatgen
data_V85Zn86O256
_symmetry_space_group_name_H-M   'P 1'
_cell_length_a   16.92091863
_cell_length_b   16.92886198
_cell_length_c   16.93888149
_cell_angle_alpha   90.07851810
_cell_angle_beta   90.01691599
_cell_angle_gamma   90.02269327
_symmetry_Int_Tables_number   1
_chemical_formula_structural   V85Zn86O256
_chemical_formula_sum   'V85 Zn86 O256'
_cell_volume   4852.16957044
_cell_formula_units_Z   1
loop_
 _symmetry_equiv_pos_site_id
 _symmetry_equiv_pos_as_xyz
  1  'x, y, z'
loop_
 _atom_site_type_symbol
 _atom_site_label
 _atom_site_symmetry_multiplicity
 _atom_site_fract_x
 _atom_site_fract_y
 _atom_site_fract_z
 _atom_site_occupancy
  V  V0  1  0.62224312  0.61835653  0.49614409  1
  V  V1  1  0.75357327  0.49994087  0.74637673  1
  V  V2  1  0.50030340  0.74942240  0.74591047  1
  V  V3  1  0.63470999  0.24284873  0.38145450  1
  V  V4  1  0.12816777  0.63918726  -0.00011037  1
  V  V5  1  0.12272698  0.37786504  0.24891999  1
  V  V6  1  0.74741884  0.75525098  0.00267976  1
  V  V7  1  0.36635276  0.87355717  -0.00557214  1
  V  V8  1  0.50409801  0.87757016  0.38003211  1
  V  V9  1  0.87189820  0.62352965  0.26571598  1
  V  V10  1  0.63398434  -0.00129653  0.11771928  1
  V  V11  1  0.49778124  0.62667437  0.12278925  1
  V  V12  1  0.26059288  0.00296026  0.24549166  1
  V  V13  1  -0.00905911  0.25405674  0.24431719  1
  V  V14  1  0.24822534  0.24759560  0.00130745  1
  V  V15  1  0.37493927  0.49750427  0.87520057  1
  V  V16  1  0.38322667  0.00788922  0.37755171  1
  V  V17  1  0.49711273  0.87510403  0.87024674  1
  V  V18  1  0.50127791  0.49874356  0.00098668  1
  V  V19  1  0.37746601  0.50105809  0.37580670  1
  V  V20  1  0.86871163  0.75579450  0.12775670  1
  V  V21  1  -0.00282549  0.49627527  0.00081741  1
  V  V22  1  0.64055664  0.35312794  0.22435375  1
  V  V23  1  0.37523678  0.62155080  0.74849675  1
  V  V24  1  0.74807273  0.00242750  0.25740770  1
  V  V25  1  0.36682139  0.75210337  0.12173165  1
  V  V26  1  0.12546672  0.00397615  0.12506024  1
  V  V27  1  0.88671228  0.12981710  0.74304816  1
  V  V28  1  0.87393872  0.50158287  0.87375126  1
  V  V29  1  0.49209286  0.24592622  0.25525283  1
  V  V30  1  0.12249791  0.25337168  0.86600409  1
  V  V31  1  0.25649298  0.12929182  0.36710674  1
  V  V32  1  0.63740640  0.50662608  0.12460986  1
  V  V33  1  0.50196084  0.75071969  0.24820524  1
  V  V34  1  0.62795394  0.24369469  0.88380309  1
  V  V35  1  0.12666013  0.87674434  0.25031170  1
  V  V36  1  0.86837324  0.12878502  0.25461303  1
  V  V37  1  0.37994116  0.37940155  0.50285258  1
  V  V38  1  0.63134881  0.74501778  0.37584384  1
  V  V39  1  0.50846682  0.37785072  0.37725369  1
  V  V40  1  0.00564039  0.86143509  0.87309255  1
  V  V41  1  -0.00282369  0.62602922  0.12683845  1
  V  V42  1  0.24894172  0.63725044  0.88017926  1
  V  V43  1  0.75135490  0.62673293  0.86884375  1
  V  V44  1  0.75017430  0.50333340  0.26937499  1
  V  V45  1  -0.00072008  0.75192767  0.25188695  1
  V  V46  1  0.74598870  0.87050281  0.63361211  1
  V  V47  1  0.86324982  0.36162416  0.00853188  1
  V  V48  1  0.74356408  -0.00118309  0.75147045  1
  V  V49  1  -0.00532308  0.38521967  0.37268309  1
  V  V50  1  0.25165964  0.37480002  0.12663020  1
  V  V51  1  0.37202235  0.87399584  0.49436364  1
  V  V52  1  0.75256588  0.36126563  0.62707387  1
  V  V53  1  -0.00382482  0.88355582  0.37688422  1
  V  V54  1  0.74876783  0.12702854  0.88607929  1
  V  V55  1  0.24492570  0.37497322  0.62699980  1
  V  V56  1  0.61856591  0.49563856  0.62097969  1
  V  V57  1  0.62410323  0.75442683  0.86964708  1
  V  V58  1  0.87790903  0.74630011  0.64197098  1
  V  V59  1  -0.00539211  0.50752701  0.49986335  1
  V  V60  1  0.61546717  -0.00656507  0.62102155  1
  V  V61  1  -0.00652672  0.13032532  0.12347238  1
  V  V62  1  0.12603923  0.50168074  0.12436498  1
  V  V63  1  0.62492701  0.36958727  0.75005676  1
  V  V64  1  0.49521072  0.23773206  0.74932538  1
  V  V65  1  0.75506168  0.74347499  0.50031301  1
  V  V66  1  0.37157226  0.74699607  0.61573743  1
  V  V67  1  0.50140423  0.37125018  0.87589328  1
  V  V68  1  0.24103964  0.49677331  0.75332992  1
  V  V69  1  0.00254842  0.37461342  0.86261002  1
  V  V70  1  0.12034721  0.11715912  0.49694291  1
  V  V71  1  -0.00020076  -0.00054151  -0.00052537  1
  V  V72  1  0.63127844  0.87442828  0.24408234  1
  V  V73  1  0.12550308  0.25304809  0.37256635  1
  V  V74  1  0.12998292  0.63311119  0.49992175  1
  V  V75  1  -0.00283932  0.62830355  0.63819615  1
  V  V76  1  0.37891347  0.37184357  0.00461297  1
  V  V77  1  0.87374998  0.37440902  0.49915669  1
  V  V78  1  0.24871786  0.87558570  0.62227868  1
  V  V79  1  0.37497591  0.00867744  0.86864121  1
  V  V80  1  0.49801857  0.12290554  0.12925740  1
  V  V81  1  0.25199320  0.01219697  0.74465232  1
  V  V82  1  0.87683053  0.00010019  0.87355629  1
  V  V83  1  0.36757509  0.24113578  0.62913401  1
  V  V84  1  0.50340122  0.00466350  -0.00121707  1
  Zn  Zn85  1  0.25209928  0.50257816  0.25316416  1
  Zn  Zn86  1  0.24664652  0.87369731  0.11915598  1
  Zn  Zn87  1  0.12410107  0.12732276  -0.00292125  1
  Zn  Zn88  1  0.87083928  0.87750398  0.00516972  1
  Zn  Zn89  1  0.37448702  0.62417584  0.25055840  1
  Zn  Zn90  1  0.49121293  0.11442004  0.62116555  1
  Zn  Zn91  1  0.25030777  0.25215473  0.49910882  1
  Zn  Zn92  1  0.87501713  0.87644872  0.50338121  1
  Zn  Zn93  1  0.13278134  0.75622990  0.38019030  1
  Zn  Zn94  1  0.11869854  0.86390044  0.74906138  1
  Zn  Zn95  1  0.76136178  0.23616351  0.49942910  1
  Zn  Zn96  1  -0.01204885  0.00682133  0.51380654  1
  Zn  Zn97  1  0.91268340  0.24204289  0.62564575  1
  Zn  Zn98  1  0.62350950  0.62663782  -0.00413239  1
  Zn  Zn99  1  0.49765092  0.61752102  0.62066607  1
  Zn  Zn100  1  0.25129572  0.13040482  0.86759448  1
  Zn  Zn101  1  0.12192922  0.50096812  0.62822743  1
  Zn  Zn102  1  0.37355102  0.24283459  0.13045496  1
  Zn  Zn103  1  0.11887367  0.00081882  0.63341361  1
  Zn  Zn104  1  0.25575149  0.63414482  0.37665819  1
  Zn  Zn105  1  0.86815373  0.00636337  0.38235940  1
  Zn  Zn106  1  0.62404537  0.11585533  0.49922958  1
  Zn  Zn107  1  0.18377444  0.18792130  0.18752403  1
  Zn  Zn108  1  0.12549189  0.21170009  0.66643550  1
  Zn  Zn109  1  0.18951585  0.68686349  0.19328223  1
  Zn  Zn110  1  0.18521870  0.68782897  0.68659549  1
  Zn  Zn111  1  0.68083386  0.18190341  0.18638904  1
  Zn  Zn112  1  0.68663729  0.17843260  0.69340042  1
  Zn  Zn113  1  0.68969158  0.68366027  0.18927697  1
  Zn  Zn114  1  0.68500008  0.68382236  0.68613030  1
  Zn  Zn115  1  0.31376451  0.31955042  0.31358704  1
  Zn  Zn116  1  0.31015628  0.31179551  0.81189001  1
  Zn  Zn117  1  0.31190485  0.81164793  0.31032855  1
  Zn  Zn118  1  0.28326996  0.79706263  0.79372643  1
  Zn  Zn119  1  0.81183470  0.31704223  0.31086119  1
  Zn  Zn120  1  0.81611704  0.30958984  0.81571577  1
  Zn  Zn121  1  0.81138828  0.81472795  0.31337877  1
  Zn  Zn122  1  0.81563004  0.81623566  0.81549166  1
  Zn  Zn123  1  0.18842626  0.44382563  0.44143809  1
  Zn  Zn124  1  0.18748867  0.43699938  0.93913352  1
  Zn  Zn125  1  0.19378275  0.93777994  0.43235311  1
  Zn  Zn126  1  0.18666906  0.94059619  0.93314641  1
  Zn  Zn127  1  0.68626626  0.42878572  0.43996656  1
  Zn  Zn128  1  0.68716785  0.43572007  0.93825464  1
  Zn  Zn129  1  0.69074540  0.93196632  0.44200513  1
  Zn  Zn130  1  0.68651913  0.93499442  0.93391481  1
  Zn  Zn131  1  0.31633012  0.06250378  0.05883945  1
  Zn  Zn132  1  0.30582174  0.06182429  0.55406583  1
  Zn  Zn133  1  0.31232427  0.56249412  0.06235696  1
  Zn  Zn134  1  0.31198205  0.55809306  0.56200130  1
  Zn  Zn135  1  0.81412282  0.06380845  0.06602722  1
  Zn  Zn136  1  0.80653346  0.06267398  0.56381310  1
  Zn  Zn137  1  0.81427970  0.56897383  0.05913903  1
  Zn  Zn138  1  0.81132216  0.56264715  0.56269420  1
  Zn  Zn139  1  0.44554302  0.43491514  0.19128958  1
  Zn  Zn140  1  0.43501054  0.43052087  0.69031728  1
  Zn  Zn141  1  0.44087482  0.93486724  0.18634211  1
  Zn  Zn142  1  0.42975856  0.93229344  0.69055658  1
  Zn  Zn143  1  0.92834997  0.43984383  0.18480979  1
  Zn  Zn144  1  0.93514855  0.43917257  0.68363401  1
  Zn  Zn145  1  0.93515162  0.94047969  0.18970320  1
  Zn  Zn146  1  0.93705824  0.93572586  0.69005841  1
  Zn  Zn147  1  0.06221643  0.06445762  0.31090041  1
  Zn  Zn148  1  0.06841971  0.05882403  0.81264841  1
  Zn  Zn149  1  0.06273745  0.56606150  0.31402142  1
  Zn  Zn150  1  0.06437775  0.56698489  0.81819746  1
  Zn  Zn151  1  0.56357742  0.06393920  0.31033307  1
  Zn  Zn152  1  0.56490357  0.06171071  0.80937936  1
  Zn  Zn153  1  0.56314487  0.56158830  0.31022102  1
  Zn  Zn154  1  0.56430979  0.56201162  0.80985717  1
  Zn  Zn155  1  0.44290808  0.18864717  0.44667502  1
  Zn  Zn156  1  0.44007687  0.18694755  0.94150766  1
  Zn  Zn157  1  0.44390805  0.68785419  0.43732572  1
  Zn  Zn158  1  0.43343585  0.68772658  0.93674928  1
  Zn  Zn159  1  0.93912940  0.19253169  0.43379923  1
  Zn  Zn160  1  0.93882578  0.18717621  0.93224234  1
  Zn  Zn161  1  0.94367221  0.69596679  0.44114664  1
  Zn  Zn162  1  0.93367853  0.68324143  0.94132174  1
  Zn  Zn163  1  0.05987340  0.31448130  0.05792621  1
  Zn  Zn164  1  0.06498966  0.31975482  0.55311289  1
  Zn  Zn165  1  0.05725745  0.81661068  0.06544215  1
  Zn  Zn166  1  0.05792452  0.81634301  0.56483539  1
  Zn  Zn167  1  0.57646343  0.30626115  0.07080008  1
  Zn  Zn168  1  0.55812382  0.30723819  0.56344820  1
  Zn  Zn169  1  0.56007408  0.81514528  0.05807663  1
  Zn  Zn170  1  0.56290259  0.81285755  0.56198690  1
  O  O171  1  0.11199885  0.11986784  0.12445145  1
  O  O172  1  0.13693015  0.11993021  0.59992684  1
  O  O173  1  0.11940429  0.61797012  0.12180961  1
  O  O174  1  0.11758790  0.62543227  0.61716565  1
  O  O175  1  0.61186007  0.10965319  0.12633439  1
  O  O176  1  0.62406829  0.10149929  0.63290666  1
  O  O177  1  0.61620414  0.62110335  0.12195941  1
  O  O178  1  0.62395178  0.61247268  0.61766642  1
  O  O179  1  0.38348654  0.38319039  0.38247700  1
  O  O180  1  0.38085195  0.37856010  0.88398434  1
  O  O181  1  0.38337979  0.88145677  0.37837472  1
  O  O182  1  0.38190757  0.88439781  0.88104945  1
  O  O183  1  0.88238569  0.37055730  0.38729706  1
  O  O184  1  0.88158918  0.38486552  0.88090264  1
  O  O185  1  0.88324585  0.87902830  0.37519930  1
  O  O186  1  0.88308357  0.88675516  0.87853435  1
  O  O187  1  0.26160348  0.00864833  0.36499321  1
  O  O188  1  0.25899809  0.00204901  0.86562826  1
  O  O189  1  0.26329793  0.50188725  0.37473178  1
  O  O190  1  0.25726844  0.50091257  0.87042916  1
  O  O191  1  0.74644468  -0.00481213  0.36157906  1
  O  O192  1  0.75689915  0.00189011  0.86992512  1
  O  O193  1  0.74644409  0.49947849  0.36748259  1
  O  O194  1  0.75426797  0.50634784  0.86876034  1
  O  O195  1  0.24145599  0.49323345  0.12543829  1
  O  O196  1  0.24995582  0.49484166  0.63668072  1
  O  O197  1  0.24529030  1.00240571  0.13035648  1
  O  O198  1  0.24608082  0.99466111  0.62748474  1
  O  O199  1  0.73935653  0.50815774  0.12390167  1
  O  O200  1  0.74448375  0.49052846  0.63205018  1
  O  O201  1  0.73885910  1.00192912  0.13179702  1
  O  O202  1  0.74307708  0.98740200  0.63419708  1
  O  O203  1  -0.00022783  0.37295380  0.25398036  1
  O  O204  1  -0.00283518  0.38551466  0.76383076  1
  O  O205  1  0.00702559  0.87306037  0.25416569  1
  O  O206  1  0.00052346  0.87326204  0.76838758  1
  O  O207  1  0.51466373  0.36319541  0.25540694  1
  O  O208  1  0.50529267  0.36585230  0.75849320  1
  O  O209  1  0.51101984  0.87044586  0.25833529  1
  O  O210  1  0.49162540  0.86433466  0.76274462  1
  O  O211  1  0.50093535  0.13327506  0.24311343  1
  O  O212  1  0.49961944  0.13451410  0.74477835  1
  O  O213  1  0.49810900  0.63234643  0.24084531  1
  O  O214  1  0.49254627  0.63015428  0.74690678  1
  O  O215  1  0.99423129  0.13555375  0.24311935  1
  O  O216  1  0.98515987  0.11679561  0.75624507  1
  O  O217  1  0.99312018  0.63071313  0.24560494  1
  O  O218  1  1.00566342  0.62195905  0.73775096  1
  O  O219  1  0.36851174  0.25653660  0.00327359  1
  O  O220  1  0.37125665  0.26286751  0.50750541  1
  O  O221  1  0.38571242  0.76271775  0.00970381  1
  O  O222  1  0.38290401  0.76000725  0.50421843  1
  O  O223  1  0.87864324  0.26279373  -0.00701736  1
  O  O224  1  0.87943020  0.25747050  0.50787960  1
  O  O225  1  0.86593791  0.74922931  0.01015334  1
  O  O226  1  0.86633553  0.75222916  0.50713173  1
  O  O227  1  0.12727535  0.24437286  0.48253407  1
  O  O228  1  0.13367871  0.25001143  0.99416051  1
  O  O229  1  0.11747411  0.73595445  0.50134190  1
  O  O230  1  0.12067901  0.73789070  1.01126559  1
  O  O231  1  0.62748337  0.25740305  0.48625984  1
  O  O232  1  0.61834946  0.24939992  0.98254452  1
  O  O233  1  0.63085807  0.74279234  0.49311774  1
  O  O234  1  0.62957789  0.74880548  0.99021779  1
  O  O235  1  0.50199727  0.23981774  0.13551025  1
  O  O236  1  0.48683972  0.25185494  0.63521789  1
  O  O237  1  0.49649727  0.74184701  0.12687747  1
  O  O238  1  0.49153126  0.74978375  0.63168734  1
  O  O239  1  1.00604915  0.24368678  0.13337893  1
  O  O240  1  1.02476891  0.25235100  0.63039677  1
  O  O241  1  0.99093166  0.74533681  0.13254972  1
  O  O242  1  0.98539459  0.74545977  0.62533007  1
  O  O243  1  0.00661036  0.26340480  0.36520447  1
  O  O244  1  0.01352691  0.25862173  0.87723476  1
  O  O245  1  0.00587324  0.76400161  0.36735203  1
  O  O246  1  -0.00830930  0.76349881  0.88495238  1
  O  O247  1  0.50392834  0.26014443  0.37121959  1
  O  O248  1  0.50387624  0.25131555  0.86745421  1
  O  O249  1  0.51101052  0.75758996  0.36818610  1
  O  O250  1  0.50447717  0.75486910  0.86858675  1
  O  O251  1  0.24083846  0.12897966  0.48116237  1
  O  O252  1  0.24966323  0.13862479  1.00038194  1
  O  O253  1  0.23272959  0.61783489  0.50121602  1
  O  O254  1  0.23871998  0.61623572  0.99263664  1
  O  O255  1  0.73757143  0.12716834  0.50511369  1
  O  O256  1  0.75565414  0.12034390  0.98584882  1
  O  O257  1  0.74017118  0.63619645  0.50597629  1
  O  O258  1  0.74804153  0.63468306  0.98525042  1
  O  O259  1  0.25683577  0.36623831  0.00697517  1
  O  O260  1  0.25885812  0.37590964  0.50710575  1
  O  O261  1  0.26225573  0.88188897  0.00010821  1
  O  O262  1  0.26155591  0.87995074  0.50666004  1
  O  O263  1  0.76404632  0.37608033  -0.00489764  1
  O  O264  1  0.76028419  0.36972160  0.50870367  1
  O  O265  1  0.75242092  0.85970165  -0.00718901  1
  O  O266  1  0.74919765  0.86040403  0.51418453  1
  O  O267  1  0.12198730  0.49684223  0.23822027  1
  O  O268  1  0.13783333  0.50362155  0.75209494  1
  O  O269  1  0.13455901  0.99659158  0.24435001  1
  O  O270  1  0.13877935  0.98863690  0.75273797  1
  O  O271  1  0.63942801  0.50115530  0.24335286  1
  O  O272  1  0.63519616  0.49098868  0.74522602  1
  O  O273  1  0.63024033  0.99310073  0.24261969  1
  O  O274  1  0.63797910  0.99629800  0.74692925  1
  O  O275  1  0.36527525  -0.00614221  0.25510588  1
  O  O276  1  0.36976779  0.00249229  0.75874488  1
  O  O277  1  0.37687257  0.49818326  0.26124452  1
  O  O278  1  0.37055200  0.50435202  0.75620825  1
  O  O279  1  0.86345671  0.00907862  0.24935885  1
  O  O280  1  0.86589384  0.00419732  0.75782933  1
  O  O281  1  0.85917275  0.50729435  0.24811818  1
  O  O282  1  0.86114688  0.49536818  0.75668257  1
  O  O283  1  0.11856833  0.37180151  0.37010325  1
  O  O284  1  0.11606078  0.36525095  0.88273378  1
  O  O285  1  0.12008858  0.87926556  0.36267498  1
  O  O286  1  0.10804047  0.87547473  0.88163267  1
  O  O287  1  0.62139732  0.36557237  0.36638133  1
  O  O288  1  0.62117590  0.36717083  0.86837207  1
  O  O289  1  0.61989489  0.86864957  0.36936268  1
  O  O290  1  0.61610665  0.86178412  0.87461689  1
  O  O291  1  0.39119516  0.12432792  0.12058705  1
  O  O292  1  0.36916452  0.13830869  0.61603379  1
  O  O293  1  0.38142231  0.63397654  0.12342216  1
  O  O294  1  0.37732870  0.63016918  0.62638344  1
  O  O295  1  0.88656997  0.12345438  0.13520243  1
  O  O296  1  0.87358984  0.12607941  0.63916238  1
  O  O297  1  0.88065184  0.63412185  0.13192187  1
  O  O298  1  0.88134712  0.63723744  0.62224281  1
  O  O299  1  0.25108184  0.25584520  0.12070475  1
  O  O300  1  0.25089861  0.25975462  0.62381143  1
  O  O301  1  0.26336776  0.75227902  0.12814573  1
  O  O302  1  0.26631544  0.75674773  0.62271627  1
  O  O303  1  0.67832145  0.28694594  0.14497308  1
  O  O304  1  0.74378554  0.25888671  0.62888566  1
  O  O305  1  0.75547132  0.74204930  0.11489916  1
  O  O306  1  0.75687290  0.75106398  0.62289367  1
  O  O307  1  0.24330860  0.24596850  0.36992120  1
  O  O308  1  0.24282171  0.25180896  0.88486829  1
  O  O309  1  0.24639185  0.74878322  0.37312687  1
  O  O310  1  0.27379165  0.73355898  0.88891775  1
  O  O311  1  0.73754058  0.25405278  0.37519881  1
  O  O312  1  0.74020291  0.23941351  0.86764205  1
  O  O313  1  0.73947343  0.75577391  0.38458550  1
  O  O314  1  0.74328890  0.74457144  0.87557521  1
  O  O315  1  -0.00178569  0.11661878  0.00652641  1
  O  O316  1  0.01606846  0.12298917  0.48619410  1
  O  O317  1  0.00607702  0.61360148  0.00461968  1
  O  O318  1  0.00527686  0.62143740  0.50787437  1
  O  O319  1  0.50003518  0.11007201  0.00468988  1
  O  O320  1  0.51091673  0.12903347  0.51053474  1
  O  O321  1  0.50074690  0.61878146  0.00561177  1
  O  O322  1  0.51710801  0.62669061  0.50351181  1
  O  O323  1  0.49322347  0.37178413  0.49045750  1
  O  O324  1  0.49686724  0.37774434  0.99644533  1
  O  O325  1  0.49526181  0.87196829  0.48533044  1
  O  O326  1  0.49361287  0.88365951  0.98791067  1
  O  O327  1  0.99427204  0.38582458  0.49105576  1
  O  O328  1  0.99383273  0.38692046  0.99270511  1
  O  O329  1  0.99858140  0.87735959  0.48835102  1
  O  O330  1  0.99527113  0.88671186  0.99593774  1
  O  O331  1  0.49777984  0.48518412  0.36798773  1
  O  O332  1  0.49678930  0.49289310  0.87984679  1
  O  O333  1  0.49114931  0.99264882  0.36581181  1
  O  O334  1  0.49613873  0.99404360  0.87752408  1
  O  O335  1  1.00119754  0.49101628  0.37947803  1
  O  O336  1  0.99300815  0.49753374  0.88207990  1
  O  O337  1  0.99659127  0.99081559  0.37038600  1
  O  O338  1  0.99394224  0.99700204  0.88391989  1
  O  O339  1  0.00354363  0.00720601  0.11889538  1
  O  O340  1  0.00765616  -0.01070652  0.62371220  1
  O  O341  1  0.00420635  0.50475046  0.11866009  1
  O  O342  1  0.00022431  0.50949008  0.61787198  1
  O  O343  1  0.50628402  0.00243618  0.11705352  1
  O  O344  1  0.51250306  -0.00705413  0.63631200  1
  O  O345  1  0.49977611  0.51608626  0.12185465  1
  O  O346  1  0.51517331  0.49498473  0.63306576  1
  O  O347  1  0.24110738  0.37835690  0.24322121  1
  O  O348  1  0.25789796  0.38607902  0.74074722  1
  O  O349  1  0.24254625  0.88539481  0.24497937  1
  O  O350  1  0.26929508  0.88944317  0.72770231  1
  O  O351  1  0.74306778  0.38931864  0.25167950  1
  O  O352  1  0.74662039  0.37906760  0.74472111  1
  O  O353  1  0.73772526  0.88113375  0.25000084  1
  O  O354  1  0.75388217  0.88036842  0.74158094  1
  O  O355  1  0.24735029  0.11904217  0.25824031  1
  O  O356  1  0.24588281  0.11196496  0.74752358  1
  O  O357  1  0.25629182  0.62002036  0.25501715  1
  O  O358  1  0.25787234  0.61560104  0.75987200  1
  O  O359  1  0.75667726  0.11787059  0.24273623  1
  O  O360  1  0.75962479  0.11362900  0.75895798  1
  O  O361  1  0.75668748  0.61316580  0.25258310  1
  O  O362  1  0.74409391  0.61558785  0.76064337  1
  O  O363  1  0.36979914  0.11927718  0.37972202  1
  O  O364  1  0.37325932  0.11244003  0.88214582  1
  O  O365  1  0.38157841  0.61159618  0.37813383  1
  O  O366  1  0.37178092  0.61346486  0.87107581  1
  O  O367  1  0.88002162  0.12575809  0.35916445  1
  O  O368  1  0.87049798  0.11485746  0.86862179  1
  O  O369  1  0.88285722  0.63169885  0.36442151  1
  O  O370  1  0.86739817  0.61137116  0.87772799  1
  O  O371  1  0.12844369  0.38272793  0.12851646  1
  O  O372  1  0.14107561  0.38318886  0.61637989  1
  O  O373  1  0.12449695  0.88470475  0.13402887  1
  O  O374  1  0.13729187  0.87164474  0.62597912  1
  O  O375  1  0.59824998  0.40321966  0.13380137  1
  O  O376  1  0.63214254  0.37789398  0.62920654  1
  O  O377  1  0.61650827  0.88321328  0.13410749  1
  O  O378  1  0.63155398  0.88048458  0.62784850  1
  O  O379  1  0.11440878  0.25672841  0.25677280  1
  O  O380  1  0.14021389  0.25549772  0.76855907  1
  O  O381  1  0.11769090  0.76184501  0.24659519  1
  O  O382  1  0.17246858  0.76489177  0.76416359  1
  O  O383  1  0.61395615  0.24844687  0.26802671  1
  O  O384  1  0.61488695  0.25334645  0.75371390  1
  O  O385  1  0.62418757  0.75555902  0.25579434  1
  O  O386  1  0.60928007  0.74355366  0.75412320  1
  O  O387  1  0.38819729  0.25732751  0.25031561  1
  O  O388  1  0.38149931  0.25439198  0.74125590  1
  O  O389  1  0.38609812  0.75318176  0.23880406  1
  O  O390  1  0.38175420  0.74052485  0.74122155  1
  O  O391  1  0.88302937  0.24738607  0.25079118  1
  O  O392  1  0.87555905  0.23403637  0.74949817  1
  O  O393  1  0.87606647  0.74308323  0.24556403  1
  O  O394  1  0.86896167  0.74554593  0.74039031  1
  O  O395  1  0.37626642  0.48827136  0.49473349  1
  O  O396  1  0.38144639  0.49197107  0.99577316  1
  O  O397  1  0.37315989  0.99062590  0.48663963  1
  O  O398  1  0.38393069  0.99195374  0.99257325  1
  O  O399  1  0.88573616  0.49278029  0.50539926  1
  O  O400  1  0.88129728  0.49717798  0.99304445  1
  O  O401  1  0.87269193  0.99551011  0.49830331  1
  O  O402  1  0.88169309  0.99870514  0.99445484  1
  O  O403  1  0.11762275  0.00429602  0.00614436  1
  O  O404  1  0.12587688  0.01366942  0.48871525  1
  O  O405  1  0.11723866  0.50200446  0.01135188  1
  O  O406  1  0.11072736  0.51009353  0.50172241  1
  O  O407  1  0.61762152  -0.01001018  0.00747877  1
  O  O408  1  0.62601316  -0.00839005  0.51765696  1
  O  O409  1  0.61926406  0.50343535  0.00664595  1
  O  O410  1  0.63356900  0.50506444  0.50905957  1
  O  O411  1  0.37208100  0.37388717  0.11928063  1
  O  O412  1  0.36724593  0.36994792  0.61809812  1
  O  O413  1  0.37595814  0.86881359  0.11491820  1
  O  O414  1  0.37458790  0.86821121  0.61043242  1
  O  O415  1  0.87808681  0.37461751  0.10796517  1
  O  O416  1  0.86969708  0.36869938  0.61772406  1
  O  O417  1  0.87800186  0.86038803  0.12676506  1
  O  O418  1  0.86676015  0.86003665  0.62745002  1
  O  O419  1  0.13217092  0.13504254  0.37422694  1
  O  O420  1  0.12710643  0.13877704  0.87734557  1
  O  O421  1  0.12282899  0.62752487  0.38997783  1
  O  O422  1  0.13540555  0.62410387  0.88749641  1
  O  O423  1  0.62020626  0.13979596  0.37659014  1
  O  O424  1  0.63529190  0.13118805  0.86895059  1
  O  O425  1  0.62132620  0.63418620  0.38085963  1
  O  O426  1  0.63104768  0.63585317  0.87410631  1
