# generated using pymatgen
data_V85Zn86O256
_symmetry_space_group_name_H-M   'P 1'
_cell_length_a   16.94215639
_cell_length_b   16.93970783
_cell_length_c   16.94463122
_cell_angle_alpha   90.04273587
_cell_angle_beta   90.04588761
_cell_angle_gamma   89.95694054
_symmetry_Int_Tables_number   1
_chemical_formula_structural   V85Zn86O256
_chemical_formula_sum   'V85 Zn86 O256'
_cell_volume   4863.02319221
_cell_formula_units_Z   1
loop_
 _symmetry_equiv_pos_site_id
 _symmetry_equiv_pos_as_xyz
  1  'x, y, z'
loop_
 _atom_site_type_symbol
 _atom_site_label
 _atom_site_symmetry_multiplicity
 _atom_site_fract_x
 _atom_site_fract_y
 _atom_site_fract_z
 _atom_site_occupancy
  V  V0  1  0.25102123  0.49904910  0.25180199  1
  V  V1  1  0.12310631  0.12665055  -0.00011140  1
  V  V2  1  0.12625207  0.88125197  0.74799743  1
  V  V3  1  -0.01244567  0.37404969  0.87515703  1
  V  V4  1  0.86278695  0.24645265  0.62106565  1
  V  V5  1  0.38546603  0.13063184  0.23646499  1
  V  V6  1  0.12445489  0.37337187  0.25544082  1
  V  V7  1  -0.00104899  0.75063462  0.74895910  1
  V  V8  1  0.24856155  0.00315557  0.74305276  1
  V  V9  1  0.12923656  0.63434814  0.49931056  1
  V  V10  1  0.50144771  0.00727728  0.00489760  1
  V  V11  1  0.86619166  0.62146232  0.75103048  1
  V  V12  1  0.24890957  0.37249598  0.62518466  1
  V  V13  1  0.50157920  0.75327156  0.74741562  1
  V  V14  1  0.50787277  0.87679469  0.87343529  1
  V  V15  1  0.50531363  0.61697127  0.12437251  1
  V  V16  1  0.62130504  0.00699545  0.12843583  1
  V  V17  1  0.62588270  0.75124229  0.37607054  1
  V  V18  1  0.12163390  0.49986677  0.12232136  1
  V  V19  1  0.24087520  0.25038645  0.49458845  1
  V  V20  1  0.49958131  0.62217366  0.62295270  1
  V  V21  1  0.37716397  0.62200703  0.74964076  1
  V  V22  1  -0.00293589  0.12558413  0.12882460  1
  V  V23  1  0.75750781  0.24912285  0.00001531  1
  V  V24  1  0.24623913  0.12716092  0.36833110  1
  V  V25  1  0.91237547  0.64047618  0.28431260  1
  V  V26  1  0.12046555  0.37541935  0.75080339  1
  V  V27  1  0.88042540  -0.01441858  0.37936182  1
  V  V28  1  0.64496692  -0.00596058  0.62944649  1
  V  V29  1  0.87366181  0.26295960  0.12759127  1
  V  V30  1  -0.00374107  0.00170276  0.00215672  1
  V  V31  1  0.00513231  0.12461799  0.61751718  1
  V  V32  1  0.74607864  0.74762843  -0.00281810  1
  V  V33  1  0.25097682  0.49843559  0.75165146  1
  V  V34  1  0.74862327  0.61018540  0.36653726  1
  V  V35  1  0.37974764  0.49586414  0.88841528  1
  V  V36  1  0.62334837  0.61529359  -0.00785817  1
  V  V37  1  0.50144610  0.36955388  0.36942642  1
  V  V38  1  0.50141834  0.00384877  0.50594517  1
  V  V39  1  0.25281587  0.62312181  0.87303815  1
  V  V40  1  0.42909319  0.31506962  0.05734013  1
  V  V41  1  0.87683974  0.87094641  0.00644409  1
  V  V42  1  -0.00077599  0.37825494  0.37796718  1
  V  V43  1  0.49658865  0.37209278  0.86905023  1
  V  V44  1  0.12132552  0.25266334  0.87470523  1
  V  V45  1  0.37908111  0.24492630  0.62953746  1
  V  V46  1  0.37408237  0.37168263  0.49913273  1
  V  V47  1  0.25407004  0.75014114  -0.00073294  1
  V  V48  1  0.24593787  0.87569387  0.61710931  1
  V  V49  1  -0.00513938  0.63809633  0.11831945  1
  V  V50  1  -0.00444088  0.62671388  0.62851334  1
  V  V51  1  0.86370351  0.37497713  0.50355350  1
  V  V52  1  0.24796787  0.12542594  0.87330238  1
  V  V53  1  0.63260152  0.24710962  0.37634741  1
  V  V54  1  0.75297376  0.00151774  0.25229219  1
  V  V55  1  0.00549080  -0.01502971  0.49779650  1
  V  V56  1  0.49905329  0.87597571  0.37519893  1
  V  V57  1  -0.00762233  0.24153725  0.74726308  1
  V  V58  1  0.25102695  0.63308959  0.38115395  1
  V  V59  1  0.81599651  0.80490439  0.67121768  1
  V  V60  1  0.74391261  0.49695678  0.73389730  1
  V  V61  1  -0.00234346  0.49969634  0.49636374  1
  V  V62  1  0.62168591  0.24673238  0.86861297  1
  V  V63  1  0.12441213  0.50100686  0.62655336  1
  V  V64  1  0.37522433  -0.00072155  0.87188885  1
  V  V65  1  0.37814533  0.87428527  -0.00001632  1
  V  V66  1  0.86127470  0.50130849  0.87728752  1
  V  V67  1  0.00104376  0.25122830  0.25764360  1
  V  V68  1  0.75886762  0.76087338  0.49703381  1
  V  V69  1  0.63518845  0.12702121  0.50168745  1
  V  V70  1  0.64600445  0.37983588  0.24795775  1
  V  V71  1  0.24954708  0.25408754  0.00396056  1
  V  V72  1  0.87478723  0.00455036  0.86400390  1
  V  V73  1  0.74952298  0.87215733  0.12548379  1
  V  V74  1  -0.00800493  0.49385037  0.00093720  1
  V  V75  1  0.50368168  0.49751215  0.50508108  1
  V  V76  1  0.62368056  0.37451836  0.73651390  1
  V  V77  1  0.12589920  0.74974512  0.87242472  1
  V  V78  1  0.37156585  0.75130626  0.61882259  1
  V  V79  1  0.37742385  0.63030436  0.25034783  1
  V  V80  1  0.37504481  0.49727527  0.37569192  1
  V  V81  1  0.75410142  0.12190856  0.86185703  1
  V  V82  1  0.62839237  0.62134528  0.50442484  1
  V  V83  1  0.37221449  0.87673021  0.49580224  1
  V  V84  1  0.25189060  0.37469520  0.12173482  1
  Zn  Zn85  1  0.00132271  0.87799624  0.87543192  1
  Zn  Zn86  1  0.62648779  0.74482017  0.87160243  1
  Zn  Zn87  1  0.25140752  0.87862625  0.12954795  1
  Zn  Zn88  1  0.12552892  0.62232129  -0.00456221  1
  Zn  Zn89  1  0.04813219  0.78067340  0.32156809  1
  Zn  Zn90  1  0.87707928  0.12478920  0.25576319  1
  Zn  Zn91  1  0.37510381  0.00622375  0.37399873  1
  Zn  Zn92  1  0.25168144  -0.00199384  0.24654783  1
  Zn  Zn93  1  0.63840705  0.87495896  0.74556450  1
  Zn  Zn94  1  0.12328733  0.12426204  0.49489693  1
  Zn  Zn95  1  0.62720105  0.12474733  0.00137246  1
  Zn  Zn96  1  0.50341281  0.24921247  0.23731040  1
  Zn  Zn97  1  0.50186279  0.75009349  0.24920119  1
  Zn  Zn98  1  0.10893302  0.88523199  0.24228559  1
  Zn  Zn99  1  0.38272787  0.12786489  0.75163766  1
  Zn  Zn100  1  0.80380123  0.41745139  0.06611216  1
  Zn  Zn101  1  0.62332881  0.87632066  0.25037421  1
  Zn  Zn102  1  0.50727138  0.12676033  0.63287127  1
  Zn  Zn103  1  0.37981944  0.74811999  0.12374699  1
  Zn  Zn104  1  0.75663524  0.12578907  0.37945299  1
  Zn  Zn105  1  0.12986169  0.00230551  0.12598121  1
  Zn  Zn106  1  0.64261224  0.50262234  0.13190362  1
  Zn  Zn107  1  0.18616736  0.18776434  0.18790295  1
  Zn  Zn108  1  0.18541008  0.18852140  0.68532897  1
  Zn  Zn109  1  0.18589803  0.68469384  0.18333762  1
  Zn  Zn110  1  0.18853149  0.68948488  0.68552779  1
  Zn  Zn111  1  0.68993270  0.18904957  0.18908733  1
  Zn  Zn112  1  0.68470863  0.18561419  0.68792297  1
  Zn  Zn113  1  0.68754878  0.69022053  0.18694395  1
  Zn  Zn114  1  0.68146359  0.67969464  0.68906558  1
  Zn  Zn115  1  0.31496683  0.30641782  0.30911524  1
  Zn  Zn116  1  0.31130780  0.31291087  0.81384528  1
  Zn  Zn117  1  0.23053355  0.80896303  0.31454921  1
  Zn  Zn118  1  0.31502402  0.81411771  0.81023663  1
  Zn  Zn119  1  0.81826667  0.31161058  0.32011597  1
  Zn  Zn120  1  0.80742408  0.31055325  0.80624846  1
  Zn  Zn121  1  0.81725803  0.80834061  0.30815646  1
  Zn  Zn122  1  0.81638436  0.81323710  0.83397230  1
  Zn  Zn123  1  0.18475933  0.44090914  0.43835692  1
  Zn  Zn124  1  0.18537949  0.43584010  0.93743679  1
  Zn  Zn125  1  0.18037611  0.93855285  0.42804349  1
  Zn  Zn126  1  0.18734607  0.93830430  0.93844867  1
  Zn  Zn127  1  0.68356444  0.43546051  0.43859564  1
  Zn  Zn128  1  0.68239559  0.43580092  0.92955819  1
  Zn  Zn129  1  0.68768570  0.94009597  0.43784102  1
  Zn  Zn130  1  0.68834574  0.93989209  0.93790071  1
  Zn  Zn131  1  0.31459419  0.06510279  0.06090354  1
  Zn  Zn132  1  0.30899076  0.06335829  0.55865954  1
  Zn  Zn133  1  0.31178866  0.56394431  0.06456440  1
  Zn  Zn134  1  0.31350492  0.55965946  0.56302320  1
  Zn  Zn135  1  0.81294740  0.06536771  0.06350085  1
  Zn  Zn136  1  0.82068933  0.06139379  0.56025996  1
  Zn  Zn137  1  0.80949539  0.57790505  0.06749175  1
  Zn  Zn138  1  0.81282961  0.56381038  0.55964069  1
  Zn  Zn139  1  0.44504229  0.44497890  0.19138244  1
  Zn  Zn140  1  0.43749240  0.43340056  0.68895910  1
  Zn  Zn141  1  0.42877554  0.93870090  0.19078695  1
  Zn  Zn142  1  0.43784010  0.93981778  0.68602174  1
  Zn  Zn143  1  0.93261361  0.45393181  0.19948433  1
  Zn  Zn144  1  0.93307325  0.43588657  0.68533068  1
  Zn  Zn145  1  0.93934420  0.93043717  0.19377232  1
  Zn  Zn146  1  0.94482974  0.94277534  0.68459173  1
  Zn  Zn147  1  0.06443274  0.06030814  0.31504765  1
  Zn  Zn148  1  0.06047223  0.06354966  0.81211530  1
  Zn  Zn149  1  0.06666564  0.56873560  0.31301095  1
  Zn  Zn150  1  0.05830010  0.56173555  0.81502186  1
  Zn  Zn151  1  0.56111042  0.06290532  0.31390236  1
  Zn  Zn152  1  0.56552890  0.06148242  0.80739606  1
  Zn  Zn153  1  0.56397405  0.56017395  0.31575048  1
  Zn  Zn154  1  0.56075101  0.55587355  0.81189991  1
  Zn  Zn155  1  0.43741794  0.18620026  0.43682890  1
  Zn  Zn156  1  0.44080802  0.18278882  0.92746643  1
  Zn  Zn157  1  0.43563231  0.68856177  0.43636873  1
  Zn  Zn158  1  0.44346017  0.68515077  0.93615981  1
  Zn  Zn159  1  0.93439348  0.18646928  0.43724122  1
  Zn  Zn160  1  0.93226880  0.18815953  0.94010474  1
  Zn  Zn161  1  0.93184514  0.68666502  0.45285032  1
  Zn  Zn162  1  0.93670689  0.68568070  0.93800913  1
  Zn  Zn163  1  0.05946403  0.31437456  0.06488005  1
  Zn  Zn164  1  0.05958990  0.31190365  0.56411613  1
  Zn  Zn165  1  0.07089442  0.81895683  0.05983591  1
  Zn  Zn166  1  0.06238513  0.81066908  0.56525101  1
  Zn  Zn167  1  0.59225508  0.31952594  0.05686452  1
  Zn  Zn168  1  0.56161586  0.30786638  0.55711907  1
  Zn  Zn169  1  0.56394315  0.81025956  0.06544446  1
  Zn  Zn170  1  0.56559532  0.81413774  0.56101087  1
  O  O171  1  0.11185236  0.12923608  0.11726983  1
  O  O172  1  0.10983325  0.12969942  0.62241595  1
  O  O173  1  0.12328503  0.61102856  0.11745523  1
  O  O174  1  0.12044482  0.61827971  0.62247172  1
  O  O175  1  0.62991431  0.11141889  0.12375485  1
  O  O176  1  0.62633477  0.11416379  0.61913871  1
  O  O177  1  0.62115183  0.62348287  0.11714232  1
  O  O178  1  0.61526630  0.62687697  0.61197580  1
  O  O179  1  0.38225550  0.37644614  0.37941043  1
  O  O180  1  0.38717804  0.37976800  0.86833871  1
  O  O181  1  0.38165306  0.87768832  0.39127501  1
  O  O182  1  0.38453961  0.87956663  0.88127993  1
  O  O183  1  0.88830004  0.37226680  0.38977314  1
  O  O184  1  0.88266994  0.38147081  0.86763605  1
  O  O185  1  0.87255271  0.88624094  0.37277977  1
  O  O186  1  0.87937641  0.88794676  0.88925174  1
  O  O187  1  0.25409993  0.01751769  0.37621475  1
  O  O188  1  0.25372101  0.00394740  0.86530769  1
  O  O189  1  0.25910515  0.50087986  0.37045358  1
  O  O190  1  0.25560089  0.50246114  0.86921928  1
  O  O191  1  0.76008421  -0.00139271  0.36875378  1
  O  O192  1  0.75788039  0.01367916  0.88027332  1
  O  O193  1  0.74527926  0.51204440  0.37992047  1
  O  O194  1  0.75929743  0.49531329  0.86639734  1
  O  O195  1  0.24219427  0.49438659  0.12964026  1
  O  O196  1  0.24614673  0.49195277  0.63237129  1
  O  O197  1  0.24816794  1.00099521  0.12283528  1
  O  O198  1  0.25324648  0.99382845  0.63630604  1
  O  O199  1  0.75701551  0.49940475  0.12451530  1
  O  O200  1  0.75204618  0.50032807  0.63452079  1
  O  O201  1  0.74513950  0.99248899  0.13091652  1
  O  O202  1  0.74359479  0.99910665  0.62115171  1
  O  O203  1  0.00387276  0.37526502  0.25924115  1
  O  O204  1  0.00245292  0.36832495  0.75641332  1
  O  O205  1  -0.00300714  0.85773042  0.25217879  1
  O  O206  1  0.01018997  0.86919555  0.74954415  1
  O  O207  1  0.50062658  0.37202419  0.26244378  1
  O  O208  1  0.51171394  0.37665491  0.75650068  1
  O  O209  1  0.49623667  0.87460291  0.26543605  1
  O  O210  1  0.49870199  0.86793758  0.75669686  1
  O  O211  1  0.49117228  0.13001331  0.25112758  1
  O  O212  1  0.49588757  0.12243325  0.74588764  1
  O  O213  1  0.49503648  0.62342630  0.24576973  1
  O  O214  1  0.49637719  0.63043034  0.74357512  1
  O  O215  1  1.00255886  0.13569113  0.24476178  1
  O  O216  1  1.00180238  0.13678549  0.74393278  1
  O  O217  1  1.01109921  0.62684291  0.22600830  1
  O  O218  1  0.99148099  0.63005879  0.74625099  1
  O  O219  1  0.37081703  0.24975185  -0.00028992  1
  O  O220  1  0.36547644  0.25495484  0.50822825  1
  O  O221  1  0.37055229  0.75670465  -0.00574158  1
  O  O222  1  0.38148451  0.75836051  0.51254100  1
  O  O223  1  0.86998084  0.25237277  0.01189831  1
  O  O224  1  0.87940842  0.26267681  0.51003139  1
  O  O225  1  0.86570735  0.76078598  -0.00849133  1
  O  O226  1  0.85877657  0.74943964  0.50870731  1
  O  O227  1  0.13806133  0.25228964  0.50400955  1
  O  O228  1  0.12940177  0.24759905  0.99410692  1
  O  O229  1  0.12022098  0.73357355  0.50328154  1
  O  O230  1  0.13544132  0.75077022  0.98481432  1
  O  O231  1  0.62351232  0.23933062  0.49164462  1
  O  O232  1  0.63481385  0.24373439  0.98538755  1
  O  O233  1  0.63062916  0.74226420  0.49271099  1
  O  O234  1  0.63081726  0.74298332  0.99694002  1
  O  O235  1  0.49678121  0.26393508  0.11364099  1
  O  O236  1  0.48175103  0.24887789  0.61783614  1
  O  O237  1  0.49959323  0.73819890  0.13022764  1
  O  O238  1  0.49395570  0.74645406  0.63048810  1
  O  O239  1  0.99347713  0.24695521  0.13468741  1
  O  O240  1  0.99354274  0.24521441  0.63164067  1
  O  O241  1  1.01092627  0.73482805  0.10596180  1
  O  O242  1  1.00501618  0.73521784  0.63337100  1
  O  O243  1  -0.00242288  0.25835279  0.36367503  1
  O  O244  1  -0.00209702  0.25622075  0.86799735  1
  O  O245  1  -0.01283417  0.68923819  0.35501705  1
  O  O246  1  0.00927191  0.75117643  0.86876089  1
  O  O247  1  0.51142766  0.25747157  0.37698494  1
  O  O248  1  0.50971712  0.25659402  0.87597951  1
  O  O249  1  0.50813835  0.75756738  0.37661008  1
  O  O250  1  0.50111519  0.75907966  0.86485485  1
  O  O251  1  0.24651030  0.13353315  0.49065543  1
  O  O252  1  0.24433349  0.13357619  0.99281238  1
  O  O253  1  0.24065987  0.61430564  0.49444028  1
  O  O254  1  0.24984309  0.63174376  0.98989914  1
  O  O255  1  0.73878894  0.11832726  0.49883380  1
  O  O256  1  0.75047868  0.13541148  0.99268456  1
  O  O257  1  0.74191182  0.63120635  0.49525197  1
  O  O258  1  0.73547879  0.63640928  1.00260424  1
  O  O259  1  0.24711362  0.36687766  0.00645750  1
  O  O260  1  0.25409237  0.36996051  0.50418902  1
  O  O261  1  0.26153768  0.86707543  -0.00470828  1
  O  O262  1  0.25620216  0.88589623  0.51121808  1
  O  O263  1  0.74301993  0.35781956  -0.00823191  1
  O  O264  1  0.76527947  0.37914046  0.49600349  1
  O  O265  1  0.75612178  0.87111226  0.00576461  1
  O  O266  1  0.74418815  0.85909620  0.49831735  1
  O  O267  1  0.12893366  0.49156348  0.24287873  1
  O  O268  1  0.12893922  0.49570048  0.74675801  1
  O  O269  1  0.13096568  1.00150693  0.24612596  1
  O  O270  1  0.13114389  0.98928419  0.75518024  1
  O  O271  1  0.62333839  0.48215496  0.25591454  1
  O  O272  1  0.63049798  0.48651084  0.75120397  1
  O  O273  1  0.63209907  0.99695188  0.24586761  1
  O  O274  1  0.62887792  0.99527122  0.73384993  1
  O  O275  1  0.37641207  0.01833425  0.25444530  1
  O  O276  1  0.36503665  -0.00048984  0.75532011  1
  O  O277  1  0.37076302  0.50604431  0.25689588  1
  O  O278  1  0.36902758  0.50429732  0.75495137  1
  O  O279  1  0.87037745  0.00117234  0.26031675  1
  O  O280  1  0.88282981  -0.00510420  0.76503166  1
  O  O281  1  0.89106077  0.54287381  0.25757103  1
  O  O282  1  0.86630716  0.50432249  0.75502663  1
  O  O283  1  0.11359140  0.38036061  0.36730571  1
  O  O284  1  0.11165603  0.37108303  0.87019318  1
  O  O285  1  0.13450142  0.86053190  0.36401360  1
  O  O286  1  0.12520207  0.86746734  0.86599442  1
  O  O287  1  0.62004618  0.36713281  0.36817455  1
  O  O288  1  0.61304306  0.36673252  0.86881312  1
  O  O289  1  0.61619814  0.86809947  0.37728800  1
  O  O290  1  0.61750166  0.87653799  0.86816647  1
  O  O291  1  0.37481817  0.12739149  0.13741511  1
  O  O292  1  0.37090411  0.13837151  0.62401058  1
  O  O293  1  0.38435531  0.62192983  0.13295025  1
  O  O294  1  0.37878688  0.63302730  0.62843146  1
  O  O295  1  0.88673666  0.13402327  0.12829581  1
  O  O296  1  0.88562186  0.14007412  0.61670066  1
  O  O297  1  0.89511846  0.63333677  0.11358854  1
  O  O298  1  0.88331959  0.61994708  0.63790678  1
  O  O299  1  0.24511392  0.25563731  0.11176045  1
  O  O300  1  0.25556420  0.25542213  0.61715972  1
  O  O301  1  0.25616583  0.74523796  0.10634840  1
  O  O302  1  0.26117470  0.76152942  0.63109154  1
  O  O303  1  0.76194182  0.24674807  0.11699542  1
  O  O304  1  0.76423601  0.24416486  0.62718971  1
  O  O305  1  0.74347902  0.76473000  0.11662554  1
  O  O306  1  0.74704609  0.74775339  0.61604573  1
  O  O307  1  0.25432354  0.24155489  0.38346849  1
  O  O308  1  0.24394359  0.24849866  0.88473791  1
  O  O309  1  0.26901861  0.73052255  0.38789474  1
  O  O310  1  0.24674264  0.74495249  0.87836442  1
  O  O311  1  0.73778810  0.24612203  0.37039542  1
  O  O312  1  0.74867413  0.23862580  0.87803699  1
  O  O313  1  0.74376078  0.74594312  0.38504644  1
  O  O314  1  0.74240260  0.75212743  0.88999152  1
  O  O315  1  0.00208041  0.12122634  0.00741722  1
  O  O316  1  0.00420811  0.12332044  0.50435662  1
  O  O317  1  0.00394713  0.61128348  0.00148243  1
  O  O318  1  0.00450498  0.61627398  0.51180380  1
  O  O319  1  0.50235802  0.11026477  -0.00580034  1
  O  O320  1  0.50938962  0.11746174  0.50356445  1
  O  O321  1  0.51478342  0.62931963  0.00813592  1
  O  O322  1  0.50488483  0.61646615  0.50243111  1
  O  O323  1  0.49662090  0.38029976  0.49061885  1
  O  O324  1  0.49440393  0.36608879  0.99608954  1
  O  O325  1  0.49433113  0.88119632  0.49380879  1
  O  O326  1  0.49671959  0.87904645  0.98989413  1
  O  O327  1  0.99860499  0.38210582  0.49472954  1
  O  O328  1  1.00111517  0.38511624  0.99091247  1
  O  O329  1  1.00341739  0.88568162  0.50363123  1
  O  O330  1  0.99365250  0.88435697  0.99915345  1
  O  O331  1  0.49414718  0.49177613  0.38487489  1
  O  O332  1  0.49107498  0.48737844  0.87365945  1
  O  O333  1  0.50080014  0.99273224  0.38787467  1
  O  O334  1  0.49717994  0.99172167  0.88005429  1
  O  O335  1  1.00438187  0.49615692  0.38842479  1
  O  O336  1  0.98914262  0.49229166  0.88071584  1
  O  O337  1  0.99009493  1.00194654  0.38507977  1
  O  O338  1  0.99229818  1.00281835  0.88405969  1
  O  O339  1  -0.00178553  0.01028595  0.11888282  1
  O  O340  1  -0.00791402  0.01032322  0.60702083  1
  O  O341  1  0.00476794  0.50305654  0.11618957  1
  O  O342  1  0.00472131  0.50849633  0.62304352  1
  O  O343  1  0.50833320  -0.00928454  0.11582587  1
  O  O344  1  0.50421206  -0.00002324  0.61390225  1
  O  O345  1  0.50999543  0.51292911  0.12716349  1
  O  O346  1  0.49038302  0.50379655  0.61198515  1
  O  O347  1  0.24352071  0.37767616  0.24435835  1
  O  O348  1  0.24083735  0.37879124  0.74640287  1
  O  O349  1  0.27421314  0.88312917  0.24331207  1
  O  O350  1  0.24544049  0.88245762  0.74219187  1
  O  O351  1  0.74425116  0.37544600  0.25787938  1
  O  O352  1  0.73326995  0.38171874  0.75264911  1
  O  O353  1  0.75134165  0.88313025  0.24210576  1
  O  O354  1  0.75962046  0.85738325  0.73979717  1
  O  O355  1  0.25887843  0.13139193  0.25807671  1
  O  O356  1  0.24775463  0.11745013  0.75446354  1
  O  O357  1  0.25816506  0.61593717  0.25803303  1
  O  O358  1  0.25718166  0.62000577  0.75427423  1
  O  O359  1  0.75208541  0.11038400  0.24980669  1
  O  O360  1  0.75128154  0.12667722  0.76320271  1
  O  O361  1  0.73414596  0.62350796  0.26835601  1
  O  O362  1  0.75551103  0.61534488  0.74796521  1
  O  O363  1  0.36481035  0.12740809  0.36952467  1
  O  O364  1  0.36473361  0.11766883  0.87209869  1
  O  O365  1  0.37381575  0.61432065  0.37029952  1
  O  O366  1  0.37413625  0.61621588  0.86869475  1
  O  O367  1  0.87281612  0.11462372  0.37341068  1
  O  O368  1  0.86379507  0.11938584  0.87728293  1
  O  O369  1  0.85527449  0.62775930  0.38096608  1
  O  O370  1  0.88023875  0.61487163  0.86181214  1
  O  O371  1  0.12787028  0.38555929  0.13101913  1
  O  O372  1  0.12855154  0.38079742  0.63150359  1
  O  O373  1  0.13381954  0.88245348  0.12438138  1
  O  O374  1  0.13519072  0.86834298  0.63559508  1
  O  O375  1  0.62936165  0.37992193  0.14301340  1
  O  O376  1  0.61762074  0.36700666  0.63780299  1
  O  O377  1  0.63285965  0.88521926  0.12733885  1
  O  O378  1  0.62517859  0.88941809  0.62454827  1
  O  O379  1  0.11652903  0.26639211  0.24237299  1
  O  O380  1  0.11559930  0.25595620  0.75589696  1
  O  O381  1  0.14277437  0.75475468  0.25562220  1
  O  O382  1  0.12349499  0.75694905  0.75869981  1
  O  O383  1  0.62270903  0.26097729  0.25425582  1
  O  O384  1  0.63165902  0.26007130  0.76002763  1
  O  O385  1  0.62458146  0.75453338  0.26483175  1
  O  O386  1  0.61386336  0.75277347  0.74930966  1
  O  O387  1  0.38351085  0.23822369  0.24964366  1
  O  O388  1  0.36484082  0.24953326  0.73317871  1
  O  O389  1  0.37672349  0.73243883  0.24936602  1
  O  O390  1  0.38474944  0.74551782  0.74178565  1
  O  O391  1  0.88317404  0.24828763  0.24517834  1
  O  O392  1  0.88185571  0.25854337  0.73362084  1
  O  O393  1  0.86371633  0.72114506  0.24838649  1
  O  O394  1  0.87288865  0.74638040  0.74554906  1
  O  O395  1  0.38065360  0.49077351  0.49485408  1
  O  O396  1  0.36998438  0.50163232  0.98722007  1
  O  O397  1  0.38339877  0.99399040  0.50107462  1
  O  O398  1  0.38255227  0.99304634  0.99278422  1
  O  O399  1  0.88626256  0.48718600  0.50986262  1
  O  O400  1  0.87691778  0.49903993  0.99289719  1
  O  O401  1  0.88509013  0.99909909  0.48684736  1
  O  O402  1  0.88469971  0.99804476  0.99587701  1
  O  O403  1  0.11163715  0.00792764  -0.00342623  1
  O  O404  1  0.10910067  0.00323017  0.49314122  1
  O  O405  1  0.11558765  0.49850797  0.00647201  1
  O  O406  1  0.11517437  0.50398560  0.51009537  1
  O  O407  1  0.61758311  0.00036647  0.00806073  1
  O  O408  1  0.62026621  0.00568801  0.50888361  1
  O  O409  1  0.63140872  0.51290818  0.00032467  1
  O  O410  1  0.61459265  0.50685435  0.49715795  1
  O  O411  1  0.37543148  0.37794014  0.12088643  1
  O  O412  1  0.36863089  0.36550329  0.62032924  1
  O  O413  1  0.38028164  0.87035638  0.10811651  1
  O  O414  1  0.36943168  0.86938807  0.61708863  1
  O  O415  1  0.88405255  0.36766170  0.13350790  1
  O  O416  1  0.87967968  0.36370687  0.61201539  1
  O  O417  1  0.86609794  0.88347531  0.11239822  1
  O  O418  1  0.87595202  0.86857756  0.62584148  1
  O  O419  1  0.14138071  0.12943246  0.37272783  1
  O  O420  1  0.12795731  0.13381811  0.87978038  1
  O  O421  1  0.13973616  0.61641921  0.38681069  1
  O  O422  1  0.13227135  0.63226033  0.87284088  1
  O  O423  1  0.62732384  0.13072299  0.38258766  1
  O  O424  1  0.63674332  0.12949532  0.87452106  1
  O  O425  1  0.62934762  0.63109904  0.38627239  1
  O  O426  1  0.61617330  0.62466563  0.88798501  1
