# generated using pymatgen
data_V85Zn86O256
_symmetry_space_group_name_H-M   'P 1'
_cell_length_a   16.94020015
_cell_length_b   16.94981866
_cell_length_c   16.93077227
_cell_angle_alpha   89.98897490
_cell_angle_beta   90.03371238
_cell_angle_gamma   89.98550471
_symmetry_Int_Tables_number   1
_chemical_formula_structural   V85Zn86O256
_chemical_formula_sum   'V85 Zn86 O256'
_cell_volume   4861.38777392
_cell_formula_units_Z   1
loop_
 _symmetry_equiv_pos_site_id
 _symmetry_equiv_pos_as_xyz
  1  'x, y, z'
loop_
 _atom_site_type_symbol
 _atom_site_label
 _atom_site_symmetry_multiplicity
 _atom_site_fract_x
 _atom_site_fract_y
 _atom_site_fract_z
 _atom_site_occupancy
  V  V0  1  -0.00912147  0.49402162  0.49954238  1
  V  V1  1  0.49668887  0.12286330  0.62640199  1
  V  V2  1  0.25931477  0.62233533  0.86830557  1
  V  V3  1  0.12255048  -0.00078766  0.11448806  1
  V  V4  1  0.49419111  0.13394680  0.13500431  1
  V  V5  1  0.37671083  0.75023434  0.12342591  1
  V  V6  1  0.12799514  0.62782188  0.49431516  1
  V  V7  1  0.11845191  0.37530234  0.25509060  1
  V  V8  1  0.25159740  0.74470165  -0.00168591  1
  V  V9  1  0.50137136  0.88281094  0.86787242  1
  V  V10  1  0.24818803  0.49890435  0.25616253  1
  V  V11  1  -0.00158926  0.87193344  0.37856851  1
  V  V12  1  0.24090366  0.37530314  0.12060560  1
  V  V13  1  0.75154427  0.62363273  0.37332806  1
  V  V14  1  0.37230386  0.12157122  0.76662503  1
  V  V15  1  0.87362147  0.87486095  0.50216247  1
  V  V16  1  0.25467116  -0.00015682  0.76373982  1
  V  V17  1  0.00101203  0.62343400  0.62497848  1
  V  V18  1  0.37380447  0.25679861  0.12031093  1
  V  V19  1  0.49082182  0.00654068  -0.00229402  1
  V  V20  1  0.87247047  0.12045299  0.74833003  1
  V  V21  1  0.25975015  0.50021320  0.74521116  1
  V  V22  1  0.62585534  0.75923138  0.86750230  1
  V  V23  1  -0.00510857  0.75030022  0.24989078  1
  V  V24  1  0.74393885  0.00441498  0.25325142  1
  V  V25  1  0.37651794  0.61709471  0.25582164  1
  V  V26  1  0.01008692  0.61924297  0.11849249  1
  V  V27  1  0.37298705  0.37508530  0.49370745  1
  V  V28  1  0.62137329  0.24791945  0.36940335  1
  V  V29  1  0.87867229  -0.00648946  0.89081842  1
  V  V30  1  0.49974398  0.24991557  0.75248982  1
  V  V31  1  0.91729322  0.80738798  0.06709217  1
  V  V32  1  0.49451036  0.50201988  0.49729465  1
  V  V33  1  0.87616257  0.24557097  0.11824648  1
  V  V34  1  0.86568879  0.00163010  0.37782597  1
  V  V35  1  0.36886741  0.75037963  0.60837381  1
  V  V36  1  0.62716162  0.12386422  0.49777471  1
  V  V37  1  0.75259121  0.49193985  0.75385748  1
  V  V38  1  0.75110270  0.25082719  0.49310064  1
  V  V39  1  0.12681210  0.36760971  0.75278820  1
  V  V40  1  0.62591859  0.49786612  0.12411003  1
  V  V41  1  0.50129095  0.37761428  0.36660848  1
  V  V42  1  0.62941334  0.25211117  0.87084666  1
  V  V43  1  0.74863772  0.75313785  0.00308268  1
  V  V44  1  0.49979655  0.75094089  0.24737604  1
  V  V45  1  0.75210648  0.36774876  0.12132859  1
  V  V46  1  0.00180876  0.75230954  0.75057125  1
  V  V47  1  0.62407838  0.62634789  -0.00111574  1
  V  V48  1  0.62380833  0.74986206  0.37426875  1
  V  V49  1  0.49430974  0.62181129  0.12076706  1
  V  V50  1  0.12712243  0.74481338  0.87394443  1
  V  V51  1  0.12598236  0.88008596  0.74628077  1
  V  V52  1  0.00283782  0.11857662  0.12134786  1
  V  V53  1  0.74792431  0.37145393  0.62194800  1
  V  V54  1  0.87670358  0.25163343  0.62345171  1
  V  V55  1  0.12702289  0.13228535  -0.01001349  1
  V  V56  1  0.87513671  0.75014078  0.62656118  1
  V  V57  1  0.87327513  0.12803208  0.25309864  1
  V  V58  1  0.01582847  0.12097184  0.62479928  1
  V  V59  1  0.75248164  0.12874458  0.87990818  1
  V  V60  1  0.49418764  0.87358630  0.38069563  1
  V  V61  1  0.00337963  0.24813685  0.75789174  1
  V  V62  1  0.37577830  0.87840673  -0.00482625  1
  V  V63  1  0.61968129  0.00374663  0.12566594  1
  V  V64  1  0.37308893  -0.00152223  0.38376426  1
  V  V65  1  0.25530978  0.00294614  0.25045837  1
  V  V66  1  0.62126714  0.62390711  0.50660193  1
  V  V67  1  0.74550219  0.87463483  0.63422237  1
  V  V68  1  0.87457348  0.62538251  0.24218375  1
  V  V69  1  0.12870181  0.87561201  0.25083519  1
  V  V70  1  0.62076941  0.49502080  0.62599518  1
  V  V71  1  0.88452205  0.49843611  0.88476123  1
  V  V72  1  0.62311004  -0.00374511  0.63297190  1
  V  V73  1  0.74712762  0.87682246  0.12212778  1
  V  V74  1  0.49513175  0.75396426  0.74173505  1
  V  V75  1  0.12549569  0.49713086  0.62379359  1
  V  V76  1  0.24729578  0.36145271  0.61712489  1
  V  V77  1  -0.00843649  0.36704354  0.37786149  1
  V  V78  1  0.25157203  0.88333519  0.61217639  1
  V  V79  1  0.56677968  0.41853975  0.81036250  1
  V  V80  1  0.62486247  0.13302967  0.00171927  1
  V  V81  1  0.87605177  0.62140176  0.74976989  1
  V  V82  1  0.36221824  0.14940449  0.27238464  1
  V  V83  1  0.74975286  0.74940334  0.50153062  1
  V  V84  1  0.37743226  0.38570884  -0.01491638  1
  Zn  Zn85  1  -0.00152651  0.87354259  0.89024072  1
  Zn  Zn86  1  0.25653003  0.23199812  0.46986103  1
  Zn  Zn87  1  0.03129984  0.21379434  0.27965206  1
  Zn  Zn88  1  0.13489566  0.75541229  0.38141344  1
  Zn  Zn89  1  0.12837471  0.13475418  0.47339724  1
  Zn  Zn90  1  0.38124787  0.62531062  0.74127483  1
  Zn  Zn91  1  0.00584841  0.37220192  0.88418514  1
  Zn  Zn92  1  0.00405090  -0.00095396  0.51007067  1
  Zn  Zn93  1  0.62162389  0.87694480  0.25124478  1
  Zn  Zn94  1  0.25396808  0.87492397  0.12438071  1
  Zn  Zn95  1  0.75298452  0.62527336  0.87584489  1
  Zn  Zn96  1  0.74616330  -0.00432352  0.75646541  1
  Zn  Zn97  1  0.75046964  0.49680728  0.24926403  1
  Zn  Zn98  1  0.87256416  0.49892536  0.37608808  1
  Zn  Zn99  1  0.49270513  0.50147827  -0.01560467  1
  Zn  Zn100  1  0.37302502  0.24512419  0.62227054  1
  Zn  Zn101  1  0.62312106  0.36923949  0.24540288  1
  Zn  Zn102  1  0.88278068  0.37357113  0.00293669  1
  Zn  Zn103  1  0.25881510  0.62529241  0.38024694  1
  Zn  Zn104  1  0.05063792  0.48116522  0.02514098  1
  Zn  Zn105  1  0.49662020  -0.00395174  0.50278248  1
  Zn  Zn106  1  0.25309354  0.24573105  -0.01721868  1
  Zn  Zn107  1  0.19351046  0.19203668  0.30073877  1
  Zn  Zn108  1  0.18591783  0.18300533  0.80962081  1
  Zn  Zn109  1  0.19068391  0.69031762  0.19443168  1
  Zn  Zn110  1  0.19113548  0.69108859  0.68275283  1
  Zn  Zn111  1  0.68953171  0.18788343  0.18759912  1
  Zn  Zn112  1  0.68661653  0.18578820  0.68900364  1
  Zn  Zn113  1  0.68614760  0.68801122  0.18562536  1
  Zn  Zn114  1  0.68768939  0.68469551  0.68971582  1
  Zn  Zn115  1  0.32287109  0.32505449  0.30483834  1
  Zn  Zn116  1  0.31592121  0.31371894  0.80690010  1
  Zn  Zn117  1  0.31228588  0.80976426  0.31621643  1
  Zn  Zn118  1  0.31477341  0.81558526  0.81035492  1
  Zn  Zn119  1  0.81182947  0.31364777  0.30944384  1
  Zn  Zn120  1  0.81707938  0.31260914  0.81415978  1
  Zn  Zn121  1  0.81045633  0.81287348  0.30955816  1
  Zn  Zn122  1  0.81469456  0.81269102  0.81517825  1
  Zn  Zn123  1  0.18195346  0.43549669  0.43526132  1
  Zn  Zn124  1  0.19597675  0.43015358  0.92734370  1
  Zn  Zn125  1  0.18563134  0.95168387  0.43758290  1
  Zn  Zn126  1  0.18589237  0.93085801  0.93622865  1
  Zn  Zn127  1  0.68641475  0.43560457  0.43865786  1
  Zn  Zn128  1  0.69821825  0.44076971  0.94618919  1
  Zn  Zn129  1  0.68278409  0.93543750  0.44228801  1
  Zn  Zn130  1  0.68524423  0.94298705  0.94049470  1
  Zn  Zn131  1  0.30777635  0.06656870  0.06673767  1
  Zn  Zn132  1  0.30191078  0.06691283  0.56774217  1
  Zn  Zn133  1  0.25696143  0.53996507  0.03995549  1
  Zn  Zn134  1  0.31186258  0.56299523  0.56427391  1
  Zn  Zn135  1  0.80772873  0.06475548  0.06467798  1
  Zn  Zn136  1  0.81003821  0.06359649  0.56309311  1
  Zn  Zn137  1  0.81233244  0.56541292  0.06533557  1
  Zn  Zn138  1  0.80947959  0.56139088  0.56461197  1
  Zn  Zn139  1  0.43568842  0.44025702  0.18206514  1
  Zn  Zn140  1  0.43396737  0.43696935  0.67512028  1
  Zn  Zn141  1  0.43563701  0.94027044  0.18949833  1
  Zn  Zn142  1  0.42997072  0.93643399  0.68530047  1
  Zn  Zn143  1  0.93638965  0.43892851  0.19039514  1
  Zn  Zn144  1  0.93789837  0.43257045  0.68846641  1
  Zn  Zn145  1  0.93916216  0.94486466  0.19523068  1
  Zn  Zn146  1  0.93669693  0.93947986  0.69116765  1
  Zn  Zn147  1  0.06835491  0.04471222  0.33105916  1
  Zn  Zn148  1  0.05610880  0.05343360  0.81084875  1
  Zn  Zn149  1  0.06155947  0.55575765  0.31013727  1
  Zn  Zn150  1  0.06829727  0.56020269  0.81319323  1
  Zn  Zn151  1  0.55503836  0.06547544  0.31426349  1
  Zn  Zn152  1  0.56213229  0.06447338  0.81343307  1
  Zn  Zn153  1  0.56385786  0.56164133  0.31200274  1
  Zn  Zn154  1  0.56553810  0.58313292  0.80793961  1
  Zn  Zn155  1  0.44112127  0.19132002  0.44126390  1
  Zn  Zn156  1  0.44107078  0.19641213  0.93845753  1
  Zn  Zn157  1  0.43893994  0.68642624  0.43764607  1
  Zn  Zn158  1  0.43693437  0.69017168  0.93203997  1
  Zn  Zn159  1  0.93302044  0.18263337  0.44220919  1
  Zn  Zn160  1  0.94156716  0.18096066  0.93904810  1
  Zn  Zn161  1  0.93880902  0.68489994  0.43738221  1
  Zn  Zn162  1  0.94306270  0.67939508  0.93396733  1
  Zn  Zn163  1  0.05962872  0.30144250  0.06951438  1
  Zn  Zn164  1  0.06980155  0.30193310  0.55583045  1
  Zn  Zn165  1  0.08082310  0.80227399  0.06764877  1
  Zn  Zn166  1  0.06570376  0.81303550  0.56532156  1
  Zn  Zn167  1  0.55799821  0.31663361  0.05573949  1
  Zn  Zn168  1  0.56203210  0.31237251  0.56155514  1
  Zn  Zn169  1  0.56246336  0.81592395  0.05986637  1
  Zn  Zn170  1  0.56120431  0.81277927  0.56247725  1
  O  O171  1  0.11432110  0.11370461  0.11641815  1
  O  O172  1  0.11121102  0.12331110  0.62975579  1
  O  O173  1  0.10777277  0.63655426  0.13130097  1
  O  O174  1  0.12098221  0.61728285  0.61702759  1
  O  O175  1  0.61504002  0.12659946  0.11885087  1
  O  O176  1  0.61505082  0.11851546  0.62162459  1
  O  O177  1  0.61649976  0.62214916  0.11459504  1
  O  O178  1  0.63317543  0.61489598  0.61393941  1
  O  O179  1  0.38522670  0.37813441  0.38565091  1
  O  O180  1  0.37116845  0.37803571  0.88588683  1
  O  O181  1  0.38360366  0.88432025  0.36776176  1
  O  O182  1  0.38556065  0.87100124  0.88788752  1
  O  O183  1  0.88640510  0.38125267  0.36907175  1
  O  O184  1  0.88051851  0.38336684  0.87899713  1
  O  O185  1  0.87636785  0.87525366  0.38408545  1
  O  O186  1  0.87475227  0.88903198  0.87531713  1
  O  O187  1  0.26006640  -0.00409719  0.35950425  1
  O  O188  1  0.25126729  -0.00904115  0.86304111  1
  O  O189  1  0.24621890  0.50288545  0.36110546  1
  O  O190  1  0.24845553  0.51008680  0.85681689  1
  O  O191  1  0.75663545  -0.00972379  0.36825644  1
  O  O192  1  0.75668749  0.00935352  0.87551804  1
  O  O193  1  0.74868692  0.51238181  0.37517739  1
  O  O194  1  0.75847834  0.50100093  0.86719296  1
  O  O195  1  0.25730002  0.47995804  0.13621517  1
  O  O196  1  0.24073872  0.49243551  0.62660773  1
  O  O197  1  0.24256245  0.99659881  0.13479315  1
  O  O198  1  0.25453933  0.98648790  0.63785656  1
  O  O199  1  0.74188539  0.49406871  0.12490351  1
  O  O200  1  0.74173841  0.49177463  0.63085349  1
  O  O201  1  0.74087438  0.99483361  0.13161745  1
  O  O202  1  0.74238577  0.99119469  0.62708571  1
  O  O203  1  0.00575110  0.38035372  0.26240778  1
  O  O204  1  0.00983009  0.36349306  0.74687481  1
  O  O205  1  0.00443875  0.86726785  0.25532047  1
  O  O206  1  0.00874401  0.86798981  0.74803667  1
  O  O207  1  0.50189631  0.38453739  0.26251086  1
  O  O208  1  0.49856213  0.36863759  0.74565751  1
  O  O209  1  0.50074395  0.86734716  0.25613511  1
  O  O210  1  0.49478708  0.87234324  0.76157192  1
  O  O211  1  0.48793270  0.12561899  0.23788599  1
  O  O212  1  0.49463357  0.13083583  0.74513737  1
  O  O213  1  0.49601144  0.62842408  0.24128790  1
  O  O214  1  0.49885085  0.64639618  0.74517671  1
  O  O215  1  0.98527208  0.11421104  0.24088666  1
  O  O216  1  0.99290705  0.12886116  0.74317169  1
  O  O217  1  0.99433521  0.63191456  0.24445438  1
  O  O218  1  0.99748950  0.63044778  0.74306368  1
  O  O219  1  0.37420875  0.26159257  0.00503617  1
  O  O220  1  0.37102910  0.25938634  0.50226857  1
  O  O221  1  0.37404896  0.75838888  0.00460777  1
  O  O222  1  0.37707857  0.75077585  0.50898994  1
  O  O223  1  0.88151198  0.24668239  0.01483532  1
  O  O224  1  0.86155818  0.24220941  0.51054722  1
  O  O225  1  0.86529462  0.74482873  -0.00196756  1
  O  O226  1  0.86992222  0.75282219  0.50723185  1
  O  O227  1  0.14366362  0.24815825  0.49403499  1
  O  O228  1  0.12625189  0.23463474  1.00041867  1
  O  O229  1  0.11705613  0.73138240  0.50029026  1
  O  O230  1  0.13977706  0.74991386  0.98796175  1
  O  O231  1  0.63101935  0.24348466  0.49403115  1
  O  O232  1  0.61647134  0.24136103  0.98646584  1
  O  O233  1  0.62898859  0.74078655  0.49713653  1
  O  O234  1  0.62930824  0.74569294  0.99184245  1
  O  O235  1  0.48906606  0.24471292  0.11564170  1
  O  O236  1  0.50285940  0.24162411  0.63553765  1
  O  O237  1  0.49870237  0.74302895  0.12732037  1
  O  O238  1  0.48363618  0.76511368  0.63078443  1
  O  O239  1  0.99193839  0.23288977  0.13500175  1
  O  O240  1  0.99257337  0.24176987  0.63240745  1
  O  O241  1  0.99074674  0.74828846  0.12972404  1
  O  O242  1  0.99362643  0.74460679  0.63058374  1
  O  O243  1  -0.01581948  0.26357828  0.37583503  1
  O  O244  1  -0.00783972  0.25054799  0.86152730  1
  O  O245  1  0.00175427  0.75871938  0.36883844  1
  O  O246  1  0.00851471  0.74985857  0.86875453  1
  O  O247  1  0.51051322  0.26373412  0.38173555  1
  O  O248  1  0.51002617  0.25119314  0.86109408  1
  O  O249  1  0.50359040  0.75528662  0.36803050  1
  O  O250  1  0.50763620  0.76058735  0.86732534  1
  O  O251  1  0.24331964  0.11980704  0.49290137  1
  O  O252  1  0.23178451  0.12524375  1.00343298  1
  O  O253  1  0.23164018  0.61379728  0.49768320  1
  O  O254  1  0.26368068  0.63930161  0.98610739  1
  O  O255  1  0.73538091  0.13455669  0.50735121  1
  O  O256  1  0.73654328  0.12269566  0.99374544  1
  O  O257  1  0.74423749  0.62985793  0.49329976  1
  O  O258  1  0.74108136  0.63492847  1.00096065  1
  O  O259  1  0.25879206  0.36946574  0.00810965  1
  O  O260  1  0.25838426  0.37930038  0.50153584  1
  O  O261  1  0.26000417  0.86467957  -0.00057395  1
  O  O262  1  0.23879964  0.88512362  0.51301100  1
  O  O263  1  0.75991286  0.37609224  0.01612399  1
  O  O264  1  0.74745869  0.36716692  0.51254103  1
  O  O265  1  0.74579398  0.87189913  0.01305189  1
  O  O266  1  0.75372026  0.86691988  0.50978357  1
  O  O267  1  0.13335071  0.48882917  0.24778578  1
  O  O268  1  0.13072009  0.49333009  0.73631440  1
  O  O269  1  0.13155440  0.98882968  0.24561709  1
  O  O270  1  0.13419099  0.98731544  0.75578071  1
  O  O271  1  0.62712780  0.50279159  0.23364331  1
  O  O272  1  0.62797498  0.49339109  0.74830066  1
  O  O273  1  0.62811354  1.00206779  0.24550620  1
  O  O274  1  0.62700225  1.00509093  0.73754738  1
  O  O275  1  0.36813261  0.00916916  0.25488524  1
  O  O276  1  0.36384438  0.00601908  0.75174943  1
  O  O277  1  0.36756348  0.50800157  0.24576489  1
  O  O278  1  0.36383376  0.50400065  0.73582346  1
  O  O279  1  0.86156001  0.00625455  0.25631276  1
  O  O280  1  0.87162930  0.01100743  0.75800572  1
  O  O281  1  0.87032527  0.51179208  0.25341711  1
  O  O282  1  0.86929721  0.50254241  0.75495023  1
  O  O283  1  0.10919889  0.37774223  0.36675113  1
  O  O284  1  0.12330333  0.37832690  0.85645771  1
  O  O285  1  0.11499139  0.87398072  0.36798879  1
  O  O286  1  0.12000898  0.86291347  0.86790184  1
  O  O287  1  0.61872214  0.36751580  0.37349058  1
  O  O288  1  0.63429667  0.36901469  0.87709346  1
  O  O289  1  0.61889955  0.86603312  0.37291413  1
  O  O290  1  0.61591488  0.86963178  0.88159507  1
  O  O291  1  0.37841772  0.14072675  0.12400587  1
  O  O292  1  0.38701584  0.12267810  0.63177686  1
  O  O293  1  0.38909009  0.63027078  0.13128378  1
  O  O294  1  0.36728364  0.64469687  0.62361672  1
  O  O295  1  0.87829787  0.12712229  0.13109170  1
  O  O296  1  0.87278080  0.13354851  0.63442629  1
  O  O297  1  0.88225323  0.62572378  0.13685398  1
  O  O298  1  0.87966354  0.62921345  0.63074972  1
  O  O299  1  0.26655334  0.26336853  0.12022044  1
  O  O300  1  0.25265275  0.26314293  0.62908341  1
  O  O301  1  0.25708018  0.75011155  0.11552552  1
  O  O302  1  0.26098190  0.76416722  0.62568148  1
  O  O303  1  0.76050953  0.25516845  0.12831398  1
  O  O304  1  0.75304787  0.25598965  0.62097575  1
  O  O305  1  0.74451783  0.75884830  0.11293724  1
  O  O306  1  0.75425002  0.75535175  0.62233466  1
  O  O307  1  0.28970461  0.22614128  0.35028007  1
  O  O308  1  0.24862448  0.25192537  0.87000926  1
  O  O309  1  0.24432861  0.73722355  0.36389169  1
  O  O310  1  0.24612021  0.74641239  0.87752042  1
  O  O311  1  0.74278572  0.25788874  0.38780413  1
  O  O312  1  0.74593204  0.23781228  0.87056951  1
  O  O313  1  0.74489530  0.74088364  0.37922357  1
  O  O314  1  0.74321023  0.75282601  0.88535279  1
  O  O315  1  0.01256542  0.12359505  0.00846796  1
  O  O316  1  -0.00013493  0.12886934  0.51744071  1
  O  O317  1  -0.00064399  0.62574561  0.01716357  1
  O  O318  1  0.00634872  0.61552891  0.50641564  1
  O  O319  1  0.50372702  0.12093389  0.00569452  1
  O  O320  1  0.50909547  0.12406496  0.51116719  1
  O  O321  1  0.50473763  0.62196897  0.00176316  1
  O  O322  1  0.51139050  0.61675054  0.49510288  1
  O  O323  1  0.49329153  0.38259697  0.49496282  1
  O  O324  1  0.48365746  0.38368487  0.99864512  1
  O  O325  1  0.50403100  0.87618816  0.48498160  1
  O  O326  1  0.49464956  0.88560355  0.99276183  1
  O  O327  1  1.00389059  0.37973936  0.48756707  1
  O  O328  1  1.00325949  0.37791510  1.00340677  1
  O  O329  1  0.99534262  0.87655453  0.49445800  1
  O  O330  1  0.99113638  0.85523822  1.00967711  1
  O  O331  1  0.51141037  0.49152464  0.38761349  1
  O  O332  1  0.51680965  0.49433562  0.86518091  1
  O  O333  1  0.49309587  0.98883834  0.37488645  1
  O  O334  1  0.50586025  0.99409432  0.88505705  1
  O  O335  1  0.99616610  0.49239584  0.38470414  1
  O  O336  1  0.99363833  0.49805198  0.87381242  1
  O  O337  1  0.97754124  0.97957062  0.36300076  1
  O  O338  1  0.98386232  0.99396750  0.87705911  1
  O  O339  1  0.00921933  0.00607045  0.12843862  1
  O  O340  1  -0.00552276  0.01503036  0.62629421  1
  O  O341  1  0.00075732  0.51363725  0.12627671  1
  O  O342  1  0.00593731  0.50165383  0.62049357  1
  O  O343  1  0.50230541  0.01075024  0.11888430  1
  O  O344  1  0.50486468  0.00397000  0.62449101  1
  O  O345  1  0.50745644  0.50846168  0.11894087  1
  O  O346  1  0.51394407  0.49650094  0.61727118  1
  O  O347  1  0.24420564  0.38093402  0.24229487  1
  O  O348  1  0.24492181  0.38257673  0.73799805  1
  O  O349  1  0.24304749  0.88006234  0.24667184  1
  O  O350  1  0.24513508  0.88349744  0.74585682  1
  O  O351  1  0.74491223  0.37757786  0.23804759  1
  O  O352  1  0.75598558  0.38494917  0.74037599  1
  O  O353  1  0.74650685  0.88307159  0.23941957  1
  O  O354  1  0.75349480  0.87490503  0.73824039  1
  O  O355  1  0.26174678  0.11650971  0.24113029  1
  O  O356  1  0.25644471  0.10883749  0.75122496  1
  O  O357  1  0.26028436  0.61405450  0.24388472  1
  O  O358  1  0.25107063  0.61713319  0.75030001  1
  O  O359  1  0.75402932  0.11024665  0.24624438  1
  O  O360  1  0.75678882  0.12221184  0.75926073  1
  O  O361  1  0.75678463  0.62759597  0.25597793  1
  O  O362  1  0.75502154  0.61056066  0.75072974  1
  O  O363  1  0.39676427  0.11329622  0.36674020  1
  O  O364  1  0.38363857  0.12747423  0.86555671  1
  O  O365  1  0.37934198  0.62584490  0.35998545  1
  O  O366  1  0.36414912  0.63216793  0.86341980  1
  O  O367  1  0.87733739  0.11196486  0.36853842  1
  O  O368  1  0.86919102  0.11706847  0.87123211  1
  O  O369  1  0.86689281  0.62541984  0.36646716  1
  O  O370  1  0.87415488  0.61646346  0.86649513  1
  O  O371  1  0.13785256  0.37098369  0.12622197  1
  O  O372  1  0.12972017  0.38016193  0.62883414  1
  O  O373  1  0.12875878  0.88170405  0.13359182  1
  O  O374  1  0.13831269  0.86908401  0.63453532  1
  O  O375  1  0.62996964  0.38119391  0.12213258  1
  O  O376  1  0.63389879  0.38254365  0.62308197  1
  O  O377  1  0.62981978  0.88410880  0.12678647  1
  O  O378  1  0.63345267  0.88339481  0.61934833  1
  O  O379  1  0.12626534  0.27001665  0.24245530  1
  O  O380  1  0.11560368  0.25504873  0.74687565  1
  O  O381  1  0.11321851  0.76176883  0.24816285  1
  O  O382  1  0.12253679  0.75878819  0.75370349  1
  O  O383  1  0.62907104  0.24759888  0.26508494  1
  O  O384  1  0.61959903  0.24777444  0.76188493  1
  O  O385  1  0.61636060  0.74930060  0.25542481  1
  O  O386  1  0.62085018  0.74769133  0.76143297  1
  O  O387  1  0.38241913  0.25116745  0.23163162  1
  O  O388  1  0.38459244  0.24170225  0.74489691  1
  O  O389  1  0.38275458  0.74309392  0.24056095  1
  O  O390  1  0.38298480  0.75321748  0.74078333  1
  O  O391  1  0.86788213  0.23286140  0.24686020  1
  O  O392  1  0.87989185  0.23861570  0.74448195  1
  O  O393  1  0.88724582  0.74485203  0.25467236  1
  O  O394  1  0.87999866  0.74298677  0.74661817  1
  O  O395  1  0.38844585  0.49643158  0.50715352  1
  O  O396  1  0.36789969  0.48813860  1.00058322  1
  O  O397  1  0.37580507  1.00415721  0.48616996  1
  O  O398  1  0.38359797  0.99564069  1.00685702  1
  O  O399  1  0.88707561  0.50412335  0.50185605  1
  O  O400  1  0.87123739  0.50313892  0.98758550  1
  O  O401  1  0.87524690  0.99537228  0.49267413  1
  O  O402  1  0.87070639  1.00371608  0.98919123  1
  O  O403  1  0.13039011  -0.00020733  0.01105214  1
  O  O404  1  0.10073905  0.02100226  0.45272631  1
  O  O405  1  0.15349722  0.50698375  -0.00246085  1
  O  O406  1  0.11426211  0.50467313  0.50906720  1
  O  O407  1  0.61381902  0.01309805  0.00619465  1
  O  O408  1  0.62294676  0.00851043  0.51027750  1
  O  O409  1  0.62454051  0.51012580  0.00717947  1
  O  O410  1  0.62019868  0.50533854  0.50870021  1
  O  O411  1  0.37124199  0.36851619  0.11809765  1
  O  O412  1  0.36624755  0.37217876  0.61009959  1
  O  O413  1  0.37753111  0.86982953  0.11338257  1
  O  O414  1  0.36002084  0.86858699  0.62301114  1
  O  O415  1  0.87139104  0.36322863  0.12905250  1
  O  O416  1  0.86796315  0.35911368  0.62995267  1
  O  O417  1  0.86688870  0.87737118  0.12862822  1
  O  O418  1  0.86821981  0.87103134  0.62062723  1
  O  O419  1  0.10367081  0.14862461  0.35202194  1
  O  O420  1  0.11819462  0.11844192  0.88563109  1
  O  O421  1  0.11809431  0.62204861  0.38937162  1
  O  O422  1  0.13859319  0.63867714  0.86341503  1
  O  O423  1  0.61566176  0.13267113  0.38652407  1
  O  O424  1  0.63235097  0.13148324  0.88135700  1
  O  O425  1  0.63236209  0.62990497  0.38284047  1
  O  O426  1  0.63012482  0.63674125  0.88626051  1
