# generated using pymatgen
data_V85Zn86O256
_symmetry_space_group_name_H-M   'P 1'
_cell_length_a   16.95746988
_cell_length_b   16.93714708
_cell_length_c   16.94346835
_cell_angle_alpha   89.97544929
_cell_angle_beta   89.96504927
_cell_angle_gamma   90.00435410
_symmetry_Int_Tables_number   1
_chemical_formula_structural   V85Zn86O256
_chemical_formula_sum   'V85 Zn86 O256'
_cell_volume   4866.35185956
_cell_formula_units_Z   1
loop_
 _symmetry_equiv_pos_site_id
 _symmetry_equiv_pos_as_xyz
  1  'x, y, z'
loop_
 _atom_site_type_symbol
 _atom_site_label
 _atom_site_symmetry_multiplicity
 _atom_site_fract_x
 _atom_site_fract_y
 _atom_site_fract_z
 _atom_site_occupancy
  V  V0  1  0.62829217  0.62469476  0.50124533  1
  V  V1  1  0.12354532  0.37847472  0.23670318  1
  V  V2  1  0.75294467  0.12837225  0.88725000  1
  V  V3  1  0.62724418  0.24936412  0.88421735  1
  V  V4  1  0.62034924  0.11927487  0.00612327  1
  V  V5  1  0.00168013  0.37433925  0.37331350  1
  V  V6  1  0.37419743  0.62570548  0.75051095  1
  V  V7  1  0.13496533  0.86837648  0.24933921  1
  V  V8  1  0.87820171  0.50322917  0.36969075  1
  V  V9  1  0.61866247  0.37735574  0.24631455  1
  V  V10  1  0.87017645  0.36710416  -0.00021572  1
  V  V11  1  0.14067794  -0.00248409  0.13215614  1
  V  V12  1  0.74631085  0.36286576  0.12228079  1
  V  V13  1  0.24840711  0.24704808  0.49632547  1
  V  V14  1  -0.00376959  0.62501116  0.12978921  1
  V  V15  1  0.49213420  0.24599618  0.24845955  1
  V  V16  1  0.12625393  0.62768388  -0.00352786  1
  V  V17  1  0.62172944  0.74712463  0.88391920  1
  V  V18  1  0.62730453  0.50080162  0.62434056  1
  V  V19  1  0.74807974  -0.00017693  0.75384165  1
  V  V20  1  0.87813953  0.37394401  0.50773832  1
  V  V21  1  0.37167396  0.50206812  0.87496019  1
  V  V22  1  0.00055288  0.64195561  0.62905072  1
  V  V23  1  0.37127402  0.24928224  0.12658820  1
  V  V24  1  0.75024407  0.87432268  0.12727363  1
  V  V25  1  -0.00294832  0.24619916  0.73574970  1
  V  V26  1  0.87542495  0.86820121  0.00322167  1
  V  V27  1  0.38243220  0.24069757  0.61977820  1
  V  V28  1  0.75366642  0.50206451  0.24697812  1
  V  V29  1  0.50142683  0.50855823  -0.00157186  1
  V  V30  1  0.50083571  0.75272593  0.75125348  1
  V  V31  1  0.62081056  0.00317336  0.61429851  1
  V  V32  1  0.24352782  0.76071795  0.00015031  1
  V  V33  1  0.24797998  0.75739638  0.48918548  1
  V  V34  1  0.50094999  0.50624925  0.49577311  1
  V  V35  1  0.50054432  0.88040926  0.88173509  1
  V  V36  1  0.24821290  0.50984288  0.24585236  1
  V  V37  1  0.87833759  0.12678808  0.74291705  1
  V  V38  1  0.37651991  -0.00121654  0.87494418  1
  V  V39  1  0.00031292  0.00044987  0.50704105  1
  V  V40  1  0.75238361  0.50159808  0.75050986  1
  V  V41  1  0.12660658  0.50413441  0.62888040  1
  V  V42  1  0.88100748  0.50098621  0.87543863  1
  V  V43  1  0.25189393  0.37496234  0.62166246  1
  V  V44  1  0.37415902  0.37793966  0.49916412  1
  V  V45  1  0.37383253  0.75856014  0.62262121  1
  V  V46  1  0.74498805  0.62397720  0.88275526  1
  V  V47  1  0.12568804  0.37319746  0.74577856  1
  V  V48  1  0.49241315  0.11666895  0.12614001  1
  V  V49  1  0.25236593  0.11254048  0.36052770  1
  V  V50  1  0.12500801  0.24719116  0.87039169  1
  V  V51  1  0.25274040  0.88118455  0.63483526  1
  V  V52  1  0.43813113  -0.06997763  0.41950765  1
  V  V53  1  0.13105518  0.62957858  0.48900655  1
  V  V54  1  0.86867829  -0.00187768  0.37765791  1
  V  V55  1  0.62571550  0.50927305  0.11938600  1
  V  V56  1  0.37969261  0.11788045  0.74205343  1
  V  V57  1  0.87876128  0.63786891  0.74733065  1
  V  V58  1  0.12787573  0.00186574  0.63420669  1
  V  V59  1  0.49976966  0.37264261  0.87362702  1
  V  V60  1  0.25024945  0.11698990  0.86750911  1
  V  V61  1  0.00888478  0.49800959  0.00372074  1
  V  V62  1  0.49301260  0.62978937  0.12812003  1
  V  V63  1  0.00317779  0.50469099  0.50100534  1
  V  V64  1  0.75481574  0.62151640  0.37428691  1
  V  V65  1  0.75423481  0.86894394  0.62891519  1
  V  V66  1  0.49435197  0.37916924  0.37018457  1
  V  V67  1  0.75845043  0.36536460  0.62899575  1
  V  V68  1  0.12048934  0.24736391  0.37172704  1
  V  V69  1  0.87116303  0.12468549  0.25564083  1
  V  V70  1  0.00514467  0.86848786  0.37246581  1
  V  V71  1  0.62554142  0.74926921  0.37348483  1
  V  V72  1  0.62611162  0.37351549  0.75272118  1
  V  V73  1  0.00008887  0.37272222  0.87326931  1
  V  V74  1  0.37620108  0.88187098  0.01477264  1
  V  V75  1  0.75290920  0.74706162  0.50574684  1
  V  V76  1  0.87941778  0.86682021  0.50502881  1
  V  V77  1  0.87850295  -0.00124334  0.87921007  1
  V  V78  1  0.12054939  0.12361616  0.50362875  1
  V  V79  1  -0.00175203  0.11894736  0.12458112  1
  V  V80  1  0.50078845  0.62842424  0.62317265  1
  V  V81  1  0.24830184  0.24896969  -0.00425928  1
  V  V82  1  0.62266158  0.87918953  0.25606055  1
  V  V83  1  0.37385937  0.37516051  -0.00304644  1
  V  V84  1  0.00540357  0.86264062  0.87045285  1
  Zn  Zn85  1  0.50595507  0.24374940  0.74229738  1
  Zn  Zn86  1  0.86962757  0.24364246  0.12246238  1
  Zn  Zn87  1  0.12492155  0.86193841  0.75244066  1
  Zn  Zn88  1  0.74472124  0.23436167  0.50041297  1
  Zn  Zn89  1  0.49632204  0.74917785  0.25335106  1
  Zn  Zn90  1  -0.00214421  0.74574891  0.25653564  1
  Zn  Zn91  1  0.12331103  0.12051237  -0.00069169  1
  Zn  Zn92  1  0.61882640  -0.00412478  0.12427460  1
  Zn  Zn93  1  0.24350987  0.37910744  0.11968762  1
  Zn  Zn94  1  0.87012009  0.74289191  0.14008792  1
  Zn  Zn95  1  0.74993283  -0.00063576  0.25353732  1
  Zn  Zn96  1  -0.00330146  0.24937883  0.24652230  1
  Zn  Zn97  1  0.74538080  0.74360315  0.00578671  1
  Zn  Zn98  1  0.00402711  -0.00512754  0.00310600  1
  Zn  Zn99  1  0.62472680  0.87572359  0.75128126  1
  Zn  Zn100  1  0.36729025  0.75781715  0.12938376  1
  Zn  Zn101  1  0.36293204  0.51715506  0.37813052  1
  Zn  Zn102  1  0.24043508  0.63194012  0.87060023  1
  Zn  Zn103  1  0.56311379  0.15999410  0.55668234  1
  Zn  Zn104  1  0.25187890  0.49931205  0.74826767  1
  Zn  Zn105  1  0.62547618  0.24267767  0.38744454  1
  Zn  Zn106  1  0.35723505  0.64344512  0.25971738  1
  Zn  Zn107  1  0.18275674  0.18927862  0.18486585  1
  Zn  Zn108  1  0.19214428  0.18569080  0.68473128  1
  Zn  Zn109  1  0.17906657  0.68987389  0.17780274  1
  Zn  Zn110  1  0.19124718  0.68901969  0.68320342  1
  Zn  Zn111  1  0.66106242  0.16335030  0.22472572  1
  Zn  Zn112  1  0.69280566  0.18599282  0.69596189  1
  Zn  Zn113  1  0.68815453  0.68672853  0.18825016  1
  Zn  Zn114  1  0.68789096  0.68908820  0.69425711  1
  Zn  Zn115  1  0.30653477  0.31710298  0.31150033  1
  Zn  Zn116  1  0.31426438  0.30818971  0.80625908  1
  Zn  Zn117  1  0.32785895  0.83940872  0.31176552  1
  Zn  Zn118  1  0.31002885  0.81375997  0.81519896  1
  Zn  Zn119  1  0.81040407  0.30915877  0.31478002  1
  Zn  Zn120  1  0.81331370  0.30884145  0.81420398  1
  Zn  Zn121  1  0.81526003  0.80945533  0.31327567  1
  Zn  Zn122  1  0.81118390  0.81250514  0.81808801  1
  Zn  Zn123  1  0.18672498  0.44036211  0.43311949  1
  Zn  Zn124  1  0.18688227  0.43779294  0.93295480  1
  Zn  Zn125  1  0.18806266  0.93539473  0.43802118  1
  Zn  Zn126  1  0.18652534  0.93911878  0.94055058  1
  Zn  Zn127  1  0.70028120  0.40929374  0.42581788  1
  Zn  Zn128  1  0.68774110  0.43860827  0.93968574  1
  Zn  Zn129  1  0.68680465  0.93358973  0.44031530  1
  Zn  Zn130  1  0.68756863  0.93690774  0.94172429  1
  Zn  Zn131  1  0.31252128  0.06478731  0.05861913  1
  Zn  Zn132  1  0.31682638  0.05496528  0.54519503  1
  Zn  Zn133  1  0.30780866  0.56621436  0.06625210  1
  Zn  Zn134  1  0.31302528  0.56813580  0.56042299  1
  Zn  Zn135  1  0.81231028  0.05764751  0.06566693  1
  Zn  Zn136  1  0.80761639  0.05652598  0.56551613  1
  Zn  Zn137  1  0.81696781  0.55622537  0.06253281  1
  Zn  Zn138  1  0.81809830  0.55991853  0.56438975  1
  Zn  Zn139  1  0.42826869  0.44298273  0.18356608  1
  Zn  Zn140  1  0.43892816  0.43595447  0.68573147  1
  Zn  Zn141  1  0.43720932  0.94543654  0.21718800  1
  Zn  Zn142  1  0.44002781  0.93830210  0.68934938  1
  Zn  Zn143  1  0.93644150  0.43692668  0.18404004  1
  Zn  Zn144  1  0.94265204  0.44461905  0.68997825  1
  Zn  Zn145  1  0.93821906  0.93546520  0.18978747  1
  Zn  Zn146  1  0.93752104  0.93722978  0.68957186  1
  Zn  Zn147  1  0.05958939  0.05759887  0.31356179  1
  Zn  Zn148  1  0.05930756  0.06152271  0.81352582  1
  Zn  Zn149  1  0.06793167  0.55930616  0.30929996  1
  Zn  Zn150  1  0.06160987  0.68453303  0.81337743  1
  Zn  Zn151  1  0.56213421  0.07612290  0.38167562  1
  Zn  Zn152  1  0.56178099  0.06273329  0.81304493  1
  Zn  Zn153  1  0.56165715  0.56626819  0.31275816  1
  Zn  Zn154  1  0.56141262  0.56346403  0.81264730  1
  Zn  Zn155  1  0.42990318  0.18822969  0.42820530  1
  Zn  Zn156  1  0.43880573  0.18491015  0.93757097  1
  Zn  Zn157  1  0.41975039  0.71794601  0.42229159  1
  Zn  Zn158  1  0.43071639  0.69312573  0.94148761  1
  Zn  Zn159  1  0.90818042  0.16645560  0.46478617  1
  Zn  Zn160  1  0.94126462  0.18583379  0.93671503  1
  Zn  Zn161  1  0.94005133  0.68751809  0.43824615  1
  Zn  Zn162  1  0.93203819  0.68440393  0.94441617  1
  Zn  Zn163  1  0.05686938  0.30433414  0.05921598  1
  Zn  Zn164  1  0.06207779  0.31346818  0.55902967  1
  Zn  Zn165  1  0.06259428  0.81235245  0.06542246  1
  Zn  Zn166  1  0.06948693  0.81562959  0.56411344  1
  Zn  Zn167  1  0.56033431  0.31295053  0.06198866  1
  Zn  Zn168  1  0.56509697  0.32459909  0.56083691  1
  Zn  Zn169  1  0.56226566  0.81497138  0.06325389  1
  Zn  Zn170  1  0.56131913  0.82127976  0.55683721  1
  O  O171  1  0.11675026  0.11373895  0.12503251  1
  O  O172  1  0.13247892  0.11880508  0.61122715  1
  O  O173  1  0.10990158  0.62498604  0.10720104  1
  O  O174  1  0.11967422  0.61828095  0.61896496  1
  O  O175  1  0.61302524  0.12249088  0.12348200  1
  O  O176  1  0.63318797  0.11025611  0.63264149  1
  O  O177  1  0.62020130  0.61325162  0.12504067  1
  O  O178  1  0.62067275  0.62014909  0.62362782  1
  O  O179  1  0.38286256  0.37930493  0.38029899  1
  O  O180  1  0.37918223  0.38137611  0.87615589  1
  O  O181  1  0.39392834  0.83022464  0.40546275  1
  O  O182  1  0.38162910  0.88323784  0.87968796  1
  O  O183  1  0.88721381  0.38550483  0.37982547  1
  O  O184  1  0.87707798  0.38145287  0.88013169  1
  O  O185  1  0.88240997  0.88054195  0.38551760  1
  O  O186  1  0.88185844  0.88017944  0.88194232  1
  O  O187  1  0.24068486  0.01382846  0.37637285  1
  O  O188  1  0.25453456  0.01147149  0.87653521  1
  O  O189  1  0.24884586  0.49440337  0.35582627  1
  O  O190  1  0.26279007  0.50222933  0.87138082  1
  O  O191  1  0.76557683  -0.00681883  0.37750292  1
  O  O192  1  0.75897833  0.00394533  0.87226431  1
  O  O193  1  0.75931978  0.49815957  0.36684342  1
  O  O194  1  0.75614496  0.50375493  0.86716851  1
  O  O195  1  0.25145052  0.49441247  0.13707628  1
  O  O196  1  0.24507978  0.49389766  0.62277397  1
  O  O197  1  0.23908092  1.00677200  0.12681679  1
  O  O198  1  0.24227188  0.99095768  0.61319162  1
  O  O199  1  0.74275109  0.49553042  0.12982676  1
  O  O200  1  0.74827663  0.49874536  0.63963573  1
  O  O201  1  0.74804283  0.98488303  0.12756132  1
  O  O202  1  0.74488726  0.99168768  0.63651396  1
  O  O203  1  0.00500963  0.37507433  0.25648680  1
  O  O204  1  0.00539273  0.36844977  0.75507430  1
  O  O205  1  0.00561571  0.87494264  0.26033626  1
  O  O206  1  -0.00215546  0.87628550  0.76719238  1
  O  O207  1  0.50015180  0.37851312  0.25332376  1
  O  O208  1  0.50939176  0.37321202  0.75531244  1
  O  O209  1  0.52227076  0.86469939  0.23885254  1
  O  O210  1  0.50108500  0.86814767  0.76283775  1
  O  O211  1  0.49402939  0.14454079  0.24108311  1
  O  O212  1  0.48507261  0.12680537  0.75416733  1
  O  O213  1  0.50363115  0.62795121  0.23770046  1
  O  O214  1  0.49221815  0.63110462  0.74434774  1
  O  O215  1  0.99044114  0.12422733  0.24210348  1
  O  O216  1  0.99023243  0.13444212  0.75720851  1
  O  O217  1  1.00870386  0.62100639  0.23252392  1
  O  O218  1  0.99046180  0.62520039  0.74251701  1
  O  O219  1  0.36643846  0.25582403  0.00082736  1
  O  O220  1  0.37006305  0.25607222  0.50543798  1
  O  O221  1  0.36768834  0.76409388  0.00743860  1
  O  O222  1  0.35613359  0.73266022  0.51957128  1
  O  O223  1  0.87893362  0.26337748  -0.00205004  1
  O  O224  1  0.88371692  0.27370698  0.49915253  1
  O  O225  1  0.86751168  0.76053140  0.00036699  1
  O  O226  1  0.87013852  0.75989664  0.49878444  1
  O  O227  1  0.12659921  0.24204932  0.49348061  1
  O  O228  1  0.13246446  0.24708718  0.98995107  1
  O  O229  1  0.13599726  0.73899315  0.50544686  1
  O  O230  1  0.13570371  0.74714843  0.99991190  1
  O  O231  1  0.62752342  0.24691446  0.50577709  1
  O  O232  1  0.62148506  0.24183067  0.99058878  1
  O  O233  1  0.63419533  0.74530322  0.49616347  1
  O  O234  1  0.62523539  0.75045610  0.98770642  1
  O  O235  1  0.48828931  0.24852602  0.12834002  1
  O  O236  1  0.49486035  0.24611014  0.61966486  1
  O  O237  1  0.50189813  0.73494169  0.11889815  1
  O  O238  1  0.49390288  0.74990491  0.62843187  1
  O  O239  1  0.99478561  0.23446054  0.12590032  1
  O  O240  1  1.00316539  0.25371753  0.63654688  1
  O  O241  1  0.99532364  0.73390585  0.11947933  1
  O  O242  1  1.00287148  0.74113902  0.62182216  1
  O  O243  1  0.01066726  0.26015158  0.37512218  1
  O  O244  1  0.00910432  0.25485971  0.86921514  1
  O  O245  1  0.00151819  0.76439639  0.38040722  1
  O  O246  1  -0.00479964  0.75925337  0.87857565  1
  O  O247  1  0.49845934  0.26428790  0.36325704  1
  O  O248  1  0.50787103  0.25657620  0.87355918  1
  O  O249  1  0.52412067  0.73846199  0.37365424  1
  O  O250  1  0.50413884  0.75502456  0.87197555  1
  O  O251  1  0.23941056  0.13162348  0.48979345  1
  O  O252  1  0.24911114  0.13650093  0.98800816  1
  O  O253  1  0.23650578  0.63407971  0.50408915  1
  O  O254  1  0.24089019  0.63108978  0.99674578  1
  O  O255  1  0.79908485  0.13723388  0.49215953  1
  O  O256  1  0.74491383  0.12182397  0.99263541  1
  O  O257  1  0.74752258  0.62685777  0.49857690  1
  O  O258  1  0.75568646  0.62062071  0.98615209  1
  O  O259  1  0.25331834  0.36474225  -0.00351739  1
  O  O260  1  0.25435099  0.36939472  0.50187476  1
  O  O261  1  0.25782171  0.86757180  -0.00351809  1
  O  O262  1  0.24046459  0.86152280  0.51125833  1
  O  O263  1  0.75865119  0.38135334  0.00917396  1
  O  O264  1  0.76449614  0.39046802  0.51963529  1
  O  O265  1  0.75631641  0.87166298  0.00831478  1
  O  O266  1  0.75908446  0.86813223  0.50977590  1
  O  O267  1  0.13423925  0.48927124  0.24946546  1
  O  O268  1  0.12954215  0.49265343  0.73422817  1
  O  O269  1  0.11957184  0.99146718  0.23741561  1
  O  O270  1  0.12048737  1.00304421  0.73583913  1
  O  O271  1  0.62820193  0.49269527  0.24060449  1
  O  O272  1  0.63349225  0.49521845  0.74738323  1
  O  O273  1  0.63150635  0.98272085  0.24695719  1
  O  O274  1  0.63958421  0.99908309  0.75270425  1
  O  O275  1  0.38104775  -0.05821823  0.31188035  1
  O  O276  1  0.37621102  0.00650546  0.76029287  1
  O  O277  1  0.35730530  0.50053811  0.25239036  1
  O  O278  1  0.37796307  0.50736034  0.75679536  1
  O  O279  1  0.87512351  0.00517663  0.26028261  1
  O  O280  1  0.86662169  0.00352305  0.76068260  1
  O  O281  1  0.86576789  0.49338906  0.25742656  1
  O  O282  1  0.86915614  0.50567155  0.75955640  1
  O  O283  1  0.11409351  0.37101157  0.36943404  1
  O  O284  1  0.12119113  0.36903475  0.86429281  1
  O  O285  1  0.11766476  0.88290395  0.36001056  1
  O  O286  1  0.10754249  0.88238261  0.87478390  1
  O  O287  1  0.60619844  0.38259704  0.36192187  1
  O  O288  1  0.62254521  0.36773373  0.87279841  1
  O  O289  1  0.63857092  0.86419048  0.36292014  1
  O  O290  1  0.61738668  0.86897633  0.87622297  1
  O  O291  1  0.37877727  0.13978338  0.11657609  1
  O  O292  1  0.36840619  0.12975374  0.62720755  1
  O  O293  1  0.38250565  0.62593149  0.13208021  1
  O  O294  1  0.38239089  0.62978270  0.63438971  1
  O  O295  1  0.88107925  0.12353253  0.13315089  1
  O  O296  1  0.87323460  0.11463330  0.64498340  1
  O  O297  1  0.89020556  0.62482278  0.11674696  1
  O  O298  1  0.88786227  0.61812280  0.63573414  1
  O  O299  1  0.25339803  0.25114048  0.11314542  1
  O  O300  1  0.25843424  0.25528732  0.61507601  1
  O  O301  1  0.25121416  0.74576169  0.10575456  1
  O  O302  1  0.25836397  0.76102608  0.62236910  1
  O  O303  1  0.74784001  0.26333790  0.13039821  1
  O  O304  1  0.75030299  0.26300886  0.62809627  1
  O  O305  1  0.75166021  0.75750582  0.12302521  1
  O  O306  1  0.74492259  0.75921955  0.62177745  1
  O  O307  1  0.23373044  0.25259394  0.37938474  1
  O  O308  1  0.24525308  0.24339780  0.87747788  1
  O  O309  1  0.25119626  0.75845886  0.39207482  1
  O  O310  1  0.26072924  0.74571339  0.89337443  1
  O  O311  1  0.73419467  0.29433923  0.39485987  1
  O  O312  1  0.74115872  0.23937965  0.87323921  1
  O  O313  1  0.74667395  0.74007780  0.38497342  1
  O  O314  1  0.74008560  0.74039950  0.87666386  1
  O  O315  1  0.00202383  0.11963888  0.00794713  1
  O  O316  1  0.00670496  0.11366552  0.49825667  1
  O  O317  1  0.00349292  0.61486940  0.00277409  1
  O  O318  1  0.01057368  0.62319297  0.50790570  1
  O  O319  1  0.50830665  0.13015776  0.01267337  1
  O  O320  1  0.50586485  0.12138302  0.47158846  1
  O  O321  1  0.49104284  0.61280832  0.00442555  1
  O  O322  1  0.50921133  0.61938080  0.50706228  1
  O  O323  1  0.49524678  0.38599275  0.49093433  1
  O  O324  1  0.49340501  0.38492796  0.99297117  1
  O  O325  1  0.50267932  0.88786046  0.49120408  1
  O  O326  1  0.49152031  0.87202416  0.98957945  1
  O  O327  1  1.00007695  0.38605302  0.49243030  1
  O  O328  1  0.99482616  0.38016950  0.99374200  1
  O  O329  1  0.99592118  0.87836783  0.49728235  1
  O  O330  1  0.99223755  0.87398476  0.99106425  1
  O  O331  1  0.49950066  0.49841558  0.38608474  1
  O  O332  1  0.49146893  0.49565469  0.88001121  1
  O  O333  1  0.51407850  0.97915613  0.36561429  1
  O  O334  1  0.49192732  0.99102247  0.87252278  1
  O  O335  1  0.99602528  0.49539831  0.37818178  1
  O  O336  1  0.98717886  0.49120794  0.88189055  1
  O  O337  1  0.99356909  0.98921064  0.38752780  1
  O  O338  1  0.98819145  0.99398428  0.87852078  1
  O  O339  1  0.00042931  0.00914522  0.12349171  1
  O  O340  1  0.00918114  -0.00841782  0.61412682  1
  O  O341  1  -0.00588545  0.50796369  0.11301173  1
  O  O342  1  0.01131789  0.50638525  0.61861144  1
  O  O343  1  0.49203729  0.01475984  0.14091505  1
  O  O344  1  0.52267004  -0.00524397  0.63281599  1
  O  O345  1  0.50461817  0.50738187  0.11676571  1
  O  O346  1  0.50525317  0.50413371  0.61465596  1
  O  O347  1  0.23716761  0.37937102  0.24340566  1
  O  O348  1  0.24465706  0.37457855  0.74012777  1
  O  O349  1  0.23302852  0.86729214  0.25028343  1
  O  O350  1  0.24834506  0.87525167  0.73962359  1
  O  O351  1  0.73901004  0.38471138  0.24221002  1
  O  O352  1  0.74799811  0.38244119  0.74743496  1
  O  O353  1  0.74419959  0.87363808  0.24259631  1
  O  O354  1  0.75093733  0.88192450  0.74621359  1
  O  O355  1  0.23634444  0.12740784  0.26187038  1
  O  O356  1  0.26467610  0.13279318  0.75859472  1
  O  O357  1  0.24074594  0.61435940  0.24231644  1
  O  O358  1  0.26412490  0.62185133  0.75052338  1
  O  O359  1  0.76882632  0.11819756  0.24101029  1
  O  O360  1  0.75802225  0.11775946  0.76543554  1
  O  O361  1  0.74457295  0.60879546  0.25595585  1
  O  O362  1  0.75621384  0.61696396  0.75864571  1
  O  O363  1  0.34981601  0.13632549  0.36850739  1
  O  O364  1  0.36980686  0.11834291  0.86862172  1
  O  O365  1  0.38383525  0.62728883  0.36899997  1
  O  O366  1  0.37781116  0.61737596  0.86670625  1
  O  O367  1  0.88849831  0.11319641  0.36012840  1
  O  O368  1  0.86881813  0.11616852  0.87541287  1
  O  O369  1  0.87243314  0.61023316  0.38204847  1
  O  O370  1  0.86942509  0.61611363  0.86948897  1
  O  O371  1  0.11954396  0.36774472  0.13392784  1
  O  O372  1  0.13096128  0.38221780  0.62557056  1
  O  O373  1  0.11903396  0.88847736  0.13512403  1
  O  O374  1  0.13308003  0.88432233  0.63115552  1
  O  O375  1  0.62826772  0.38636275  0.12619989  1
  O  O376  1  0.63606856  0.38327805  0.63360288  1
  O  O377  1  0.63367870  0.87475936  0.13146233  1
  O  O378  1  0.63731926  0.88462224  0.62826642  1
  O  O379  1  0.11958516  0.25888427  0.25673072  1
  O  O380  1  0.11929191  0.25225024  0.75184605  1
  O  O381  1  0.11549067  0.76430516  0.24046625  1
  O  O382  1  0.13006701  0.74819816  0.75369049  1
  O  O383  1  0.60865913  0.27088940  0.23724208  1
  O  O384  1  0.62466966  0.25420290  0.76229509  1
  O  O385  1  0.63074701  0.75670928  0.25908897  1
  O  O386  1  0.61725372  0.75309551  0.76139838  1
  O  O387  1  0.37880694  0.26389433  0.23641335  1
  O  O388  1  0.38002848  0.24364309  0.73344893  1
  O  O389  1  0.37890484  0.75706617  0.24330191  1
  O  O390  1  0.38001043  0.74320508  0.74295480  1
  O  O391  1  0.87571812  0.23872243  0.25182722  1
  O  O392  1  0.88473774  0.23981692  0.75635795  1
  O  O393  1  0.88384017  0.74681217  0.25318660  1
  O  O394  1  0.86789794  0.73649860  0.75409939  1
  O  O395  1  0.38306248  0.49705620  0.49940622  1
  O  O396  1  0.37830448  0.49559424  0.99184838  1
  O  O397  1  0.38000886  0.99081754  0.47774326  1
  O  O398  1  0.36891950  0.99459772  0.98593846  1
  O  O399  1  0.88525791  0.49456255  0.49286832  1
  O  O400  1  0.88240549  0.48856841  0.99209783  1
  O  O401  1  0.88329639  0.98674347  0.49782911  1
  O  O402  1  0.87459766  0.98708434  0.99365614  1
  O  O403  1  0.12419140  -0.00008056  0.01593701  1
  O  O404  1  0.11736527  0.00630556  0.50615173  1
  O  O405  1  0.11350450  0.50300430  -0.00594026  1
  O  O406  1  0.12422058  0.51109850  0.50665170  1
  O  O407  1  0.62603220  0.01427409  0.00358452  1
  O  O408  1  0.63501032  0.00366123  0.51384668  1
  O  O409  1  0.61341604  0.49703470  0.00615071  1
  O  O410  1  0.61840496  0.50367111  0.50694871  1
  O  O411  1  0.37230071  0.36643366  0.11183069  1
  O  O412  1  0.37303545  0.36644302  0.61739833  1
  O  O413  1  0.38497444  0.88625561  0.11579546  1
  O  O414  1  0.36973720  0.86768048  0.63021772  1
  O  O415  1  0.86542299  0.37172300  0.11709344  1
  O  O416  1  0.87007673  0.38535636  0.62178026  1
  O  O417  1  0.86933156  0.87186151  0.11858183  1
  O  O418  1  0.86468203  0.87952508  0.61941769  1
  O  O419  1  0.12452185  0.13236804  0.38267650  1
  O  O420  1  0.13370738  0.12824833  0.87378953  1
  O  O421  1  0.11886971  0.62325337  0.39090445  1
  O  O422  1  0.12248734  0.62247635  0.88962686  1
  O  O423  1  0.63639784  0.14240594  0.33580757  1
  O  O424  1  0.63046876  0.13016640  0.88466496  1
  O  O425  1  0.63704713  0.62631572  0.38231262  1
  O  O426  1  0.63355940  0.63211542  0.86960017  1
