# generated using pymatgen
data_V85Zn86O256
_symmetry_space_group_name_H-M   'P 1'
_cell_length_a   16.94511208
_cell_length_b   16.95154483
_cell_length_c   16.94421173
_cell_angle_alpha   89.94068405
_cell_angle_beta   90.00705250
_cell_angle_gamma   90.04239285
_symmetry_Int_Tables_number   1
_chemical_formula_structural   V85Zn86O256
_chemical_formula_sum   'V85 Zn86 O256'
_cell_volume   4867.15013724
_cell_formula_units_Z   1
loop_
 _symmetry_equiv_pos_site_id
 _symmetry_equiv_pos_as_xyz
  1  'x, y, z'
loop_
 _atom_site_type_symbol
 _atom_site_label
 _atom_site_symmetry_multiplicity
 _atom_site_fract_x
 _atom_site_fract_y
 _atom_site_fract_z
 _atom_site_occupancy
  V  V0  1  0.50059847  0.74621791  0.24460438  1
  V  V1  1  0.12172372  0.74532789  0.36866111  1
  V  V2  1  0.75847177  0.26760934  0.49667299  1
  V  V3  1  0.12373811  0.62586430  0.00793003  1
  V  V4  1  0.87986491  0.25261665  0.13221240  1
  V  V5  1  0.37453820  0.49930420  0.37540024  1
  V  V6  1  0.75031500  0.75120675  0.00138083  1
  V  V7  1  0.62411457  0.12497153  0.49870003  1
  V  V8  1  0.12101299  0.62017164  0.50071823  1
  V  V9  1  0.12751695  0.12408488  0.50138239  1
  V  V10  1  0.10687737  0.36091469  0.76354829  1
  V  V11  1  0.87529795  0.38034604  0.00215879  1
  V  V12  1  0.74388354  0.25087710  -0.00255260  1
  V  V13  1  0.62384123  0.87613731  0.25179158  1
  V  V14  1  0.49808429  0.12728344  0.12338294  1
  V  V15  1  0.25052277  0.36736004  0.63079599  1
  V  V16  1  0.75741480  0.62750849  0.37318848  1
  V  V17  1  0.12383249  0.87397162  0.24870187  1
  V  V18  1  0.49695674  0.37242278  0.37289005  1
  V  V19  1  0.25786572  -0.00309056  0.25113929  1
  V  V20  1  0.12412195  0.49655030  0.62786085  1
  V  V21  1  0.25542949  0.11795940  0.37602732  1
  V  V22  1  0.37462996  0.61581371  0.75124794  1
  V  V23  1  0.24950536  0.74805733  0.50125243  1
  V  V24  1  0.74507214  0.37563453  0.12660659  1
  V  V25  1  0.49425348  0.49841333  0.00498635  1
  V  V26  1  0.62158440  0.12685109  -0.00501412  1
  V  V27  1  0.80181904  0.32097984  0.67218341  1
  V  V28  1  -0.00975466  0.13463846  0.62401747  1
  V  V29  1  0.75151706  0.87188087  0.62335894  1
  V  V30  1  0.62101303  0.75301331  0.87307253  1
  V  V31  1  0.36887980  0.12378476  0.74832373  1
  V  V32  1  0.61636010  -0.00106773  0.62344615  1
  V  V33  1  -0.00654533  0.36831924  0.37230668  1
  V  V34  1  0.74980626  0.50417834  0.74761635  1
  V  V35  1  0.48888150  -0.00914276  -0.01381186  1
  V  V36  1  0.25414216  0.10779080  0.87333644  1
  V  V37  1  0.75587683  0.50636861  0.24959798  1
  V  V38  1  0.62031195  0.24994210  0.37025629  1
  V  V39  1  0.25682971  0.75082040  -0.00205085  1
  V  V40  1  0.36989316  0.25856498  0.12453074  1
  V  V41  1  0.00059871  0.50170494  0.00355189  1
  V  V42  1  0.37275006  0.48866979  0.88074734  1
  V  V43  1  0.61920228  0.50766905  0.12857857  1
  V  V44  1  0.75716608  0.00615068  0.74740303  1
  V  V45  1  0.47227338  0.78072469  0.76884212  1
  V  V46  1  0.50814679  0.36776979  0.87989177  1
  V  V47  1  0.24765729  0.48313534  0.24233010  1
  V  V48  1  0.87915466  0.87713506  -0.00564914  1
  V  V49  1  0.37652082  0.62457129  0.24024507  1
  V  V50  1  0.75144854  0.87787282  0.12406268  1
  V  V51  1  0.87476867  0.63355171  0.74486485  1
  V  V52  1  0.37630725  0.37300714  0.50787587  1
  V  V53  1  0.00531365  0.12658187  0.13268816  1
  V  V54  1  0.49941604  0.62756817  0.63219013  1
  V  V55  1  0.76053017  0.74780051  0.50388663  1
  V  V56  1  0.13020445  0.12727177  -0.00451424  1
  V  V57  1  0.75175932  0.00401513  0.24945082  1
  V  V58  1  0.37369908  0.87995979  0.49888781  1
  V  V59  1  0.61793021  0.62692796  0.00308993  1
  V  V60  1  0.24624616  0.49429919  0.75301368  1
  V  V61  1  0.12572000  0.25302862  0.36787508  1
  V  V62  1  0.25437704  0.24824737  0.50220981  1
  V  V63  1  0.25797122  0.87312770  0.12079772  1
  V  V64  1  0.11620490  0.75065692  0.87705627  1
  V  V65  1  0.24674076  0.88108631  0.62812815  1
  V  V66  1  -0.00173360  0.75462866  0.74384958  1
  V  V67  1  0.49394575  0.13629103  0.62468275  1
  V  V68  1  0.62351935  0.62960455  0.50222742  1
  V  V69  1  0.00215923  -0.00081246  0.50128492  1
  V  V70  1  0.00148054  -0.00129846  -0.00504639  1
  V  V71  1  0.62523692  0.49393532  0.62729216  1
  V  V72  1  0.62017851  0.37515689  0.25047936  1
  V  V73  1  -0.00744998  0.49126913  0.50103127  1
  V  V74  1  0.38228286  0.12494915  0.25161707  1
  V  V75  1  0.88086986  0.50689448  0.87590948  1
  V  V76  1  0.25274787  0.62164446  0.37366489  1
  V  V77  1  0.25405725  0.26205162  -0.00781943  1
  V  V78  1  0.12305574  0.88085489  0.75452098  1
  V  V79  1  0.87723205  0.87425462  0.50446135  1
  V  V80  1  0.75300258  0.12636447  0.37669524  1
  V  V81  1  0.49431078  0.87991245  0.37378375  1
  V  V82  1  0.74868953  0.12771613  0.87002951  1
  V  V83  1  0.62736289  0.87619966  0.75296484  1
  V  V84  1  -0.00224411  0.86914196  0.37084074  1
  Zn  Zn85  1  0.87809412  0.00018625  0.87020994  1
  Zn  Zn86  1  0.06843752  0.31542939  0.20292057  1
  Zn  Zn87  1  0.92582067  0.17237336  0.78347455  1
  Zn  Zn88  1  0.12598303  0.48182107  0.12602881  1
  Zn  Zn89  1  0.49778521  0.50372116  0.50208924  1
  Zn  Zn90  1  -0.00546198  0.62744464  0.62175570  1
  Zn  Zn91  1  0.87458497  0.49891605  0.37789723  1
  Zn  Zn92  1  0.37168259  0.74561949  0.62361974  1
  Zn  Zn93  1  0.38221781  0.75020941  0.11604844  1
  Zn  Zn94  1  0.87775429  0.00280747  0.37376992  1
  Zn  Zn95  1  -0.00950906  0.62655249  0.14289309  1
  Zn  Zn96  1  0.12628822  0.00369965  0.63100666  1
  Zn  Zn97  1  0.62301902  0.75029553  0.37731624  1
  Zn  Zn98  1  0.62227357  0.00267485  0.12243997  1
  Zn  Zn99  1  0.88069175  0.74569899  0.14146423  1
  Zn  Zn100  1  0.24795422  0.62214477  0.87569349  1
  Zn  Zn101  1  0.49501531  0.00167212  0.49570085  1
  Zn  Zn102  1  0.74774983  0.62661364  0.87578170  1
  Zn  Zn103  1  0.12647750  -0.00100134  0.12395696  1
  Zn  Zn104  1  0.62929908  0.36770862  0.75385764  1
  Zn  Zn105  1  0.88185387  0.12986514  0.25260755  1
  Zn  Zn106  1  0.50078952  0.25022142  0.75307575  1
  Zn  Zn107  1  0.19560610  0.18376335  0.18380105  1
  Zn  Zn108  1  0.18353437  0.18684610  0.69031836  1
  Zn  Zn109  1  0.18908467  0.68473043  0.18689138  1
  Zn  Zn110  1  0.18567159  0.68638757  0.68962295  1
  Zn  Zn111  1  0.68597816  0.18844420  0.18657596  1
  Zn  Zn112  1  0.67743237  0.18612067  0.68979256  1
  Zn  Zn113  1  0.68911876  0.69009450  0.18707665  1
  Zn  Zn114  1  0.68575626  0.68907180  0.68885846  1
  Zn  Zn115  1  0.31712299  0.30498968  0.31453033  1
  Zn  Zn116  1  0.31659804  0.30587706  0.81183052  1
  Zn  Zn117  1  0.31355721  0.80970400  0.31281852  1
  Zn  Zn118  1  0.30361304  0.80920669  0.81178750  1
  Zn  Zn119  1  0.81161116  0.31703417  0.31310749  1
  Zn  Zn120  1  0.85627528  0.29727608  0.84260094  1
  Zn  Zn121  1  0.80617821  0.81846477  0.31979782  1
  Zn  Zn122  1  0.81104026  0.81360310  0.81496971  1
  Zn  Zn123  1  0.18638382  0.43340556  0.43521298  1
  Zn  Zn124  1  0.18197373  0.43628693  0.93625711  1
  Zn  Zn125  1  0.18730251  0.93650521  0.43726228  1
  Zn  Zn126  1  0.18594676  0.93513367  0.93858894  1
  Zn  Zn127  1  0.68235041  0.44364141  0.43645465  1
  Zn  Zn128  1  0.68885327  0.44147237  0.93743465  1
  Zn  Zn129  1  0.68504293  0.93845023  0.43672889  1
  Zn  Zn130  1  0.68270677  0.94205647  0.93590814  1
  Zn  Zn131  1  0.31506079  0.05964485  0.06208263  1
  Zn  Zn132  1  0.31546329  0.06090522  0.56723644  1
  Zn  Zn133  1  0.30940710  0.56185355  0.06312533  1
  Zn  Zn134  1  0.31043602  0.55778586  0.56392010  1
  Zn  Zn135  1  0.81490517  0.06521407  0.06273948  1
  Zn  Zn136  1  0.81186221  0.06134840  0.56060740  1
  Zn  Zn137  1  0.81115872  0.57041213  0.06751278  1
  Zn  Zn138  1  0.81235016  0.56171952  0.56465829  1
  Zn  Zn139  1  0.43643367  0.43780717  0.18954589  1
  Zn  Zn140  1  0.44050703  0.43556619  0.69026638  1
  Zn  Zn141  1  0.43853748  0.94056044  0.18296022  1
  Zn  Zn142  1  0.42542531  0.93356480  0.70072232  1
  Zn  Zn143  1  0.93743311  0.44493714  0.18722485  1
  Zn  Zn144  1  0.93880797  0.44360909  0.68986383  1
  Zn  Zn145  1  0.93664201  0.93692592  0.18411270  1
  Zn  Zn146  1  0.94083571  0.93790016  0.68558431  1
  Zn  Zn147  1  0.06833278  0.05888932  0.31433468  1
  Zn  Zn148  1  0.06870846  0.06457319  0.81449614  1
  Zn  Zn149  1  0.06805893  0.55055023  0.31483225  1
  Zn  Zn150  1  0.06150253  0.56523863  0.81396076  1
  Zn  Zn151  1  0.56293847  0.06085369  0.31135619  1
  Zn  Zn152  1  0.56325675  0.06577097  0.81094060  1
  Zn  Zn153  1  0.56219688  0.56402629  0.31618621  1
  Zn  Zn154  1  0.56168057  0.55972241  0.81648215  1
  Zn  Zn155  1  0.43696016  0.18765130  0.43849264  1
  Zn  Zn156  1  0.43070548  0.18358838  0.93864536  1
  Zn  Zn157  1  0.43792939  0.69152336  0.43455472  1
  Zn  Zn158  1  0.43621173  0.68038740  0.93551404  1
  Zn  Zn159  1  0.93715125  0.18922195  0.44082490  1
  Zn  Zn160  1  0.93575791  0.18447683  0.95158905  1
  Zn  Zn161  1  0.93482240  0.68673256  0.30427736  1
  Zn  Zn162  1  0.93810881  0.68925962  0.94287127  1
  Zn  Zn163  1  0.06326574  0.31200283  0.03819954  1
  Zn  Zn164  1  0.06546772  0.31182012  0.56139575  1
  Zn  Zn165  1  0.06203325  0.81100443  0.06625024  1
  Zn  Zn166  1  0.06349305  0.81005400  0.56306402  1
  Zn  Zn167  1  0.55752609  0.31156384  0.06287667  1
  Zn  Zn168  1  0.56651408  0.31196675  0.55754321  1
  Zn  Zn169  1  0.56349695  0.81687135  0.06442011  1
  Zn  Zn170  1  0.55839509  0.80973602  0.56869388  1
  O  O171  1  0.12172746  0.12238186  0.11740293  1
  O  O172  1  0.12020116  0.12205151  0.61681351  1
  O  O173  1  0.12612721  0.62231643  0.11264222  1
  O  O174  1  0.12843464  0.61077236  0.61940583  1
  O  O175  1  0.61482015  0.12645862  0.11938594  1
  O  O176  1  0.61778592  0.11652098  0.61683581  1
  O  O177  1  0.62690848  0.61586295  0.11907925  1
  O  O178  1  0.61647901  0.62058905  0.62282436  1
  O  O179  1  0.38082556  0.37643824  0.38414266  1
  O  O180  1  0.38312884  0.38541048  0.87300518  1
  O  O181  1  0.38204236  0.86914739  0.38484037  1
  O  O182  1  0.40459446  0.85849982  0.80178677  1
  O  O183  1  0.88877629  0.37490861  0.37736542  1
  O  O184  1  0.85939500  0.39531972  0.89582620  1
  O  O185  1  0.88263084  0.87933006  0.38781241  1
  O  O186  1  0.86650336  0.88121820  0.89012434  1
  O  O187  1  0.24763674  0.01056507  0.36944100  1
  O  O188  1  0.25122407  0.00889788  0.87619740  1
  O  O189  1  0.25612015  0.50221535  0.36831079  1
  O  O190  1  0.25691303  0.49880341  0.87171296  1
  O  O191  1  0.75056034  0.00958005  0.36828766  1
  O  O192  1  0.74793322  0.00868864  0.86377413  1
  O  O193  1  0.74899052  0.50907511  0.36849282  1
  O  O194  1  0.75365018  0.50497270  0.86290146  1
  O  O195  1  0.25091900  0.49782572  0.13851702  1
  O  O196  1  0.24303760  0.48648471  0.63016777  1
  O  O197  1  0.24898749  0.99147404  0.13258162  1
  O  O198  1  0.24553579  0.98516597  0.61931637  1
  O  O199  1  0.73814262  0.49584861  0.13183857  1
  O  O200  1  0.74079406  0.50837994  0.63802666  1
  O  O201  1  0.74904629  0.99661152  0.13215754  1
  O  O202  1  0.74079222  0.99379979  0.62828435  1
  O  O203  1  -0.00319397  0.37951468  0.26570153  1
  O  O204  1  0.00848605  0.37660309  0.74751467  1
  O  O205  1  0.01425082  0.88527495  0.25716091  1
  O  O206  1  0.00756698  0.86634479  0.74661756  1
  O  O207  1  0.50322372  0.37920971  0.26499755  1
  O  O208  1  0.50107842  0.37671704  0.76770387  1
  O  O209  1  0.50369751  0.87203933  0.25535474  1
  O  O210  1  0.52383572  0.87258450  0.72482005  1
  O  O211  1  0.48925508  0.11895544  0.24345340  1
  O  O212  1  0.49366889  0.12619434  0.74063697  1
  O  O213  1  0.49077694  0.63445087  0.25810354  1
  O  O214  1  0.48980589  0.62013468  0.74582467  1
  O  O215  1  1.00198352  0.11601972  0.23742689  1
  O  O216  1  1.00369190  0.11342688  0.73034407  1
  O  O217  1  1.01156880  0.62417765  0.25636750  1
  O  O218  1  0.99180931  0.63306166  0.74886067  1
  O  O219  1  0.36337051  0.24495988  0.01133246  1
  O  O220  1  0.36237614  0.25793293  0.49569352  1
  O  O221  1  0.36256030  0.74358681  -0.00299490  1
  O  O222  1  0.36480668  0.75552814  0.50194131  1
  O  O223  1  0.86720403  0.26217052  0.01426273  1
  O  O224  1  0.85640956  0.24873983  0.49745561  1
  O  O225  1  0.85891525  0.75766795  -0.00664733  1
  O  O226  1  0.86156643  0.75896723  0.50169562  1
  O  O227  1  0.13780513  0.24423420  0.49183675  1
  O  O228  1  0.14073142  0.23560001  1.00025016  1
  O  O229  1  0.12932526  0.74103886  0.49107887  1
  O  O230  1  0.13225927  0.74403061  0.99293789  1
  O  O231  1  0.63469267  0.24534316  0.48856856  1
  O  O232  1  0.63215437  0.23910655  1.00618143  1
  O  O233  1  0.63117311  0.74042858  0.50527892  1
  O  O234  1  0.62845342  0.74591489  0.99591522  1
  O  O235  1  0.48584653  0.23661784  0.11688954  1
  O  O236  1  0.50295418  0.23801294  0.61850871  1
  O  O237  1  0.49881696  0.75651388  0.13905810  1
  O  O238  1  0.49466977  0.74036577  0.64226217  1
  O  O239  1  0.99504298  0.24507913  0.12389423  1
  O  O240  1  1.00142477  0.23378247  0.61570028  1
  O  O241  1  0.99074922  0.73737815  0.10562310  1
  O  O242  1  1.00581356  0.74470036  0.63855474  1
  O  O243  1  0.00825445  0.25960758  0.38083050  1
  O  O244  1  -0.04269882  0.24728005  0.86293487  1
  O  O245  1  0.00877972  0.76277323  0.37652970  1
  O  O246  1  0.01118249  0.74644683  0.86896031  1
  O  O247  1  0.50893423  0.25875240  0.38060555  1
  O  O248  1  0.49437638  0.26658472  0.88550346  1
  O  O249  1  0.50207232  0.76105636  0.36459191  1
  O  O250  1  0.50656419  0.74544252  0.86686974  1
  O  O251  1  0.25048252  0.12933077  0.49486248  1
  O  O252  1  0.24673646  0.12320533  0.98977085  1
  O  O253  1  0.24264010  0.62884539  0.49645267  1
  O  O254  1  0.24152141  0.63169363  0.99854662  1
  O  O255  1  0.74463314  0.12757378  0.48851070  1
  O  O256  1  0.74323090  0.13199165  0.99548826  1
  O  O257  1  0.74460853  0.63208192  0.49761525  1
  O  O258  1  0.73713551  0.63482623  0.99954745  1
  O  O259  1  0.24778296  0.36057596  -0.00601058  1
  O  O260  1  0.25619393  0.36740986  0.50665493  1
  O  O261  1  0.24470672  0.86487467  0.00935583  1
  O  O262  1  0.25382659  0.86571970  0.50367228  1
  O  O263  1  0.75018854  0.37026786  0.00834107  1
  O  O264  1  0.74840232  0.36675572  0.49141145  1
  O  O265  1  0.75058320  0.87166926  0.00748725  1
  O  O266  1  0.75598915  0.87105772  0.50467373  1
  O  O267  1  0.14431664  0.49513099  0.24940460  1
  O  O268  1  0.12770429  0.49374403  0.74409659  1
  O  O269  1  0.13945814  0.99093505  0.24992677  1
  O  O270  1  0.12130435  0.98480640  0.75035810  1
  O  O271  1  0.62779861  0.49688464  0.24394357  1
  O  O272  1  0.63308533  0.49856659  0.74514420  1
  O  O273  1  0.63603550  0.99577540  0.24759165  1
  O  O274  1  0.63389558  0.99462130  0.74185889  1
  O  O275  1  0.36466483  0.00636894  0.24757148  1
  O  O276  1  0.37524799  0.02270019  0.74608676  1
  O  O277  1  0.36881812  0.50649112  0.25553743  1
  O  O278  1  0.36817210  0.50181251  0.75682462  1
  O  O279  1  0.86284074  0.00143839  0.25140410  1
  O  O280  1  0.86114612  -0.00719147  0.74861516  1
  O  O281  1  0.85859161  0.49572871  0.25448458  1
  O  O282  1  0.86909527  0.50889900  0.75818798  1
  O  O283  1  0.11665504  0.36236519  0.37645899  1
  O  O284  1  0.12142427  0.37492287  0.86243838  1
  O  O285  1  0.11992917  0.86621441  0.36936396  1
  O  O286  1  0.12991102  0.86409747  0.86613588  1
  O  O287  1  0.61566255  0.37019370  0.37292905  1
  O  O288  1  0.61168920  0.38206522  0.87567465  1
  O  O289  1  0.61873666  0.87233851  0.36804574  1
  O  O290  1  0.62796875  0.86793886  0.86408844  1
  O  O291  1  0.37996931  0.12897566  0.13258258  1
  O  O292  1  0.38128811  0.12636363  0.63295560  1
  O  O293  1  0.37294608  0.62735708  0.13727368  1
  O  O294  1  0.38209565  0.62062973  0.63119348  1
  O  O295  1  0.88513990  0.13612320  0.12549600  1
  O  O296  1  0.89035641  0.12149319  0.61861451  1
  O  O297  1  0.87280716  0.62976394  0.13546148  1
  O  O298  1  0.87580804  0.62227716  0.64040467  1
  O  O299  1  0.26290420  0.24353396  0.11272092  1
  O  O300  1  0.24441179  0.26025507  0.61762543  1
  O  O301  1  0.25158753  0.75542810  0.11566483  1
  O  O302  1  0.24514997  0.75342768  0.61204250  1
  O  O303  1  0.75495965  0.25522735  0.11689586  1
  O  O304  1  0.74114513  0.25789960  0.61139941  1
  O  O305  1  0.74910873  0.76090157  0.11651683  1
  O  O306  1  0.74456638  0.76378645  0.62003078  1
  O  O307  1  0.24444018  0.24026614  0.38164510  1
  O  O308  1  0.25890533  0.24129454  0.89026317  1
  O  O309  1  0.24300203  0.74443670  0.38541905  1
  O  O310  1  0.24036687  0.74630715  0.88196075  1
  O  O311  1  0.74453562  0.24589941  0.38160131  1
  O  O312  1  0.75872075  0.24499764  0.89117938  1
  O  O313  1  0.74395813  0.74459761  0.38681124  1
  O  O314  1  0.73653493  0.75086276  0.88350855  1
  O  O315  1  0.01034187  0.12153662  0.01122704  1
  O  O316  1  0.00572609  0.11674690  0.50419719  1
  O  O317  1  0.00695898  0.61217858  -0.00553448  1
  O  O318  1  0.01688501  0.61361589  0.50193698  1
  O  O319  1  0.50588554  0.12054898  0.00420697  1
  O  O320  1  0.50332180  0.12115830  0.50550418  1
  O  O321  1  0.51064110  0.61697679  -0.00160141  1
  O  O322  1  0.50621999  0.62944199  0.51006951  1
  O  O323  1  0.49141691  0.37667025  0.49336178  1
  O  O324  1  0.50408419  0.38674122  0.99165871  1
  O  O325  1  0.49065864  0.87111639  0.49433096  1
  O  O326  1  0.50633413  0.89215901  1.00341518  1
  O  O327  1  1.00684561  0.38174048  0.49017180  1
  O  O328  1  0.98720060  0.38946216  0.99835454  1
  O  O329  1  0.99458445  0.87816677  0.49527055  1
  O  O330  1  0.99081834  0.88552117  1.00503890  1
  O  O331  1  0.49314060  0.49244476  0.38044893  1
  O  O332  1  0.49319966  0.49320362  0.88562727  1
  O  O333  1  0.50408982  0.98505647  0.37641261  1
  O  O334  1  0.50584679  1.00338755  0.88722472  1
  O  O335  1  1.00167985  0.48514911  0.38446580  1
  O  O336  1  0.98586621  0.50409445  0.88000642  1
  O  O337  1  1.00257619  0.98862387  0.38441734  1
  O  O338  1  0.99737930  1.01123058  0.89011080  1
  O  O339  1  0.00227776  0.00804502  0.11494856  1
  O  O340  1  0.00368914  0.00260139  0.61093666  1
  O  O341  1  0.00398841  0.50588390  0.11682381  1
  O  O342  1  0.00899113  0.50176657  0.61808103  1
  O  O343  1  0.50071873  0.01272335  0.11694722  1
  O  O344  1  0.51010542  0.00466184  0.62426787  1
  O  O345  1  0.50769968  0.49530806  0.11833169  1
  O  O346  1  0.50585855  0.51112610  0.62453608  1
  O  O347  1  0.25990685  0.38549341  0.25500627  1
  O  O348  1  0.24729644  0.37610231  0.74422128  1
  O  O349  1  0.24377540  0.87958634  0.24790368  1
  O  O350  1  0.23605921  0.86426110  0.73720574  1
  O  O351  1  0.74042261  0.38460820  0.24669758  1
  O  O352  1  0.75094067  0.38266550  0.74114329  1
  O  O353  1  0.74356213  0.88489765  0.24487612  1
  O  O354  1  0.74341766  0.87949214  0.74123552  1
  O  O355  1  0.25860689  0.11521887  0.25675774  1
  O  O356  1  0.25660013  0.13037764  0.76126296  1
  O  O357  1  0.25881862  0.61885847  0.25655227  1
  O  O358  1  0.25567662  0.61275583  0.74972623  1
  O  O359  1  0.75029087  0.12071942  0.26013965  1
  O  O360  1  0.74476526  0.11780341  0.75587720  1
  O  O361  1  0.73732887  0.61749323  0.26178932  1
  O  O362  1  0.75592020  0.62179904  0.75285783  1
  O  O363  1  0.36713626  0.13126164  0.36553865  1
  O  O364  1  0.36254774  0.12410794  0.86637073  1
  O  O365  1  0.37019360  0.61886039  0.37057977  1
  O  O366  1  0.37280778  0.61040152  0.86656736  1
  O  O367  1  0.86785386  0.12485025  0.37167736  1
  O  O368  1  0.85986628  0.11850156  0.87450830  1
  O  O369  1  0.86030870  0.62395193  0.37570898  1
  O  O370  1  0.87023993  0.62120797  0.86864263  1
  O  O371  1  0.11723854  0.36886108  0.11946169  1
  O  O372  1  0.13183742  0.38243071  0.63084195  1
  O  O373  1  0.13408572  0.87423943  0.13490162  1
  O  O374  1  0.13065923  0.87540726  0.63137145  1
  O  O375  1  0.62565918  0.38177280  0.13124878  1
  O  O376  1  0.61699065  0.39174511  0.62334524  1
  O  O377  1  0.63690732  0.87956999  0.13223143  1
  O  O378  1  0.63518369  0.88257598  0.62435730  1
  O  O379  1  0.13037852  0.23958258  0.26283053  1
  O  O380  1  0.12209712  0.26279803  0.74758661  1
  O  O381  1  0.13462706  0.75710904  0.26233508  1
  O  O382  1  0.11691549  0.75303369  0.75804280  1
  O  O383  1  0.63052191  0.25705806  0.26300449  1
  O  O384  1  0.61491551  0.25646244  0.74606316  1
  O  O385  1  0.61802403  0.75755801  0.25163599  1
  O  O386  1  0.62309581  0.75790619  0.76046214  1
  O  O387  1  0.36802218  0.23747322  0.23637971  1
  O  O388  1  0.38404401  0.23464627  0.75319801  1
  O  O389  1  0.38187645  0.74017530  0.25013553  1
  O  O390  1  0.37049714  0.72758872  0.74677450  1
  O  O391  1  0.86791114  0.25150342  0.23613438  1
  O  O392  1  0.85243233  0.25550341  0.73215332  1
  O  O393  1  0.87804424  0.76772692  0.25412802  1
  O  O394  1  0.88410340  0.74548003  0.75824213  1
  O  O395  1  0.37403991  0.49007342  0.49367961  1
  O  O396  1  0.38461482  0.50655008  0.99500693  1
  O  O397  1  0.37543345  0.98421503  0.50357371  1
  O  O398  1  0.38902092  1.00178865  0.99798112  1
  O  O399  1  0.88959567  0.50656443  0.49969103  1
  O  O400  1  0.87826981  0.50013592  0.99748391  1
  O  O401  1  0.88350056  0.99297398  0.49608991  1
  O  O402  1  0.88224189  0.99373258  1.00038014  1
  O  O403  1  0.11964567  0.00864045  0.00174584  1
  O  O404  1  0.11825478  0.00607194  0.49939578  1
  O  O405  1  0.11717171  0.50681761  0.00054281  1
  O  O406  1  0.12319824  0.50248436  0.50813988  1
  O  O407  1  0.62164501  0.01486795  0.00270632  1
  O  O408  1  0.62243216  0.00629884  0.50705015  1
  O  O409  1  0.61908675  0.50909091  0.00836148  1
  O  O410  1  0.62402436  0.51402863  0.50942169  1
  O  O411  1  0.38119533  0.35682541  0.13023404  1
  O  O412  1  0.36830441  0.37969433  0.61570366  1
  O  O413  1  0.36151928  0.87005914  0.13278276  1
  O  O414  1  0.36424170  0.86809264  0.62008358  1
  O  O415  1  0.86810445  0.37463163  0.11875768  1
  O  O416  1  0.86705513  0.37851420  0.62445519  1
  O  O417  1  0.86295819  0.87548828  0.11476639  1
  O  O418  1  0.86740217  0.88119630  0.61261549  1
  O  O419  1  0.13353116  0.13019931  0.38215293  1
  O  O420  1  0.14115707  0.12343085  0.88101604  1
  O  O421  1  0.13306554  0.62890581  0.38299019  1
  O  O422  1  0.12690271  0.63195114  0.88492644  1
  O  O423  1  0.62982001  0.13268151  0.37748356  1
  O  O424  1  0.63681463  0.12563212  0.88236762  1
  O  O425  1  0.63101639  0.62704203  0.38812482  1
  O  O426  1  0.62478660  0.63371842  0.88363612  1
