# generated using pymatgen
data_V85Zn86O256
_symmetry_space_group_name_H-M   'P 1'
_cell_length_a   16.96270642
_cell_length_b   16.96399686
_cell_length_c   16.96360650
_cell_angle_alpha   90.00642836
_cell_angle_beta   89.95620382
_cell_angle_gamma   89.90998714
_symmetry_Int_Tables_number   1
_chemical_formula_structural   V85Zn86O256
_chemical_formula_sum   'V85 Zn86 O256'
_cell_volume   4881.36017079
_cell_formula_units_Z   1
loop_
 _symmetry_equiv_pos_site_id
 _symmetry_equiv_pos_as_xyz
  1  'x, y, z'
loop_
 _atom_site_type_symbol
 _atom_site_label
 _atom_site_symmetry_multiplicity
 _atom_site_fract_x
 _atom_site_fract_y
 _atom_site_fract_z
 _atom_site_occupancy
  V  V0  1  0.50115768  0.49997988  0.49945490  1
  V  V1  1  0.74801519  0.13007891  0.87554815  1
  V  V2  1  0.00607138  0.12474495  0.11617172  1
  V  V3  1  0.37548633  0.74955359  0.12307356  1
  V  V4  1  0.61131409  0.25326367  0.87575615  1
  V  V5  1  0.12554191  0.63031586  0.50324777  1
  V  V6  1  0.24897825  0.24656698  0.00140627  1
  V  V7  1  0.37825220  0.63454361  0.25236286  1
  V  V8  1  0.61827257  0.01864349  0.12461480  1
  V  V9  1  0.24813783  0.11246323  0.36293679  1
  V  V10  1  0.87473347  0.12353259  0.75075382  1
  V  V11  1  0.87689684  0.25377519  0.11654470  1
  V  V12  1  -0.00049214  0.50450872  0.49925367  1
  V  V13  1  0.12806376  -0.00712947  0.62447273  1
  V  V14  1  0.00222000  0.37828402  0.37443111  1
  V  V15  1  0.62478766  0.62695145  0.48636096  1
  V  V16  1  0.00025032  0.49371895  0.00014050  1
  V  V17  1  0.87191314  0.74394817  0.62217676  1
  V  V18  1  0.25486928  0.62463257  0.87776984  1
  V  V19  1  0.38734996  0.37027904  -0.00057453  1
  V  V20  1  0.70390675  0.82940094  0.07393235  1
  V  V21  1  0.00113218  0.24893900  0.75078368  1
  V  V22  1  0.37494370  0.37368218  0.50097673  1
  V  V23  1  0.50598907  -0.00021801  0.51663088  1
  V  V24  1  0.38102318  0.48964286  0.87425793  1
  V  V25  1  0.42263305  0.05637219  0.31690895  1
  V  V26  1  0.87787436  0.37728421  0.50087651  1
  V  V27  1  0.24886907  0.62919677  0.37687507  1
  V  V28  1  0.37536281  0.87824734  -0.01236662  1
  V  V29  1  0.75220028  0.49504147  0.75367866  1
  V  V30  1  -0.01187620  0.62587384  0.12768185  1
  V  V31  1  0.00228940  0.25021403  0.24810571  1
  V  V32  1  0.39199721  0.24455418  0.62885212  1
  V  V33  1  0.12848236  0.00131454  0.12087613  1
  V  V34  1  0.25029819  0.49730521  0.75135582  1
  V  V35  1  0.74045506  0.00368595  0.74382748  1
  V  V36  1  -0.00266107  0.12181897  0.62375708  1
  V  V37  1  -0.01119312  0.74834940  0.24571281  1
  V  V38  1  0.50189187  0.61903462  0.12503884  1
  V  V39  1  0.36727312  0.88167798  0.50202406  1
  V  V40  1  0.12790588  0.62392963  0.00183976  1
  V  V41  1  0.87308906  0.49431104  0.87381506  1
  V  V42  1  0.86934902  0.51311830  0.36770911  1
  V  V43  1  0.87759921  0.12543051  0.24868742  1
  V  V44  1  0.12757247  0.50159569  0.12486530  1
  V  V45  1  0.87572804  0.00051235  0.37661970  1
  V  V46  1  -0.00074285  0.37296472  0.87799588  1
  V  V47  1  -0.00163285  0.62594966  0.63630304  1
  V  V48  1  0.49910770  0.62851990  0.62251041  1
  V  V49  1  0.74219299  0.87634907  0.62620923  1
  V  V50  1  0.62352928  0.49441975  0.12058803  1
  V  V51  1  0.25011360  0.24582306  0.50129420  1
  V  V52  1  0.49660954  0.86338982  0.37221900  1
  V  V53  1  0.11466445  0.87511804  0.75394359  1
  V  V54  1  0.25307219  -0.00731764  0.74819068  1
  V  V55  1  0.88017069  0.86204394  0.00529943  1
  V  V56  1  0.12710417  0.24918906  0.37448798  1
  V  V57  1  0.12588322  0.37188561  0.75062262  1
  V  V58  1  0.12783635  0.37643089  0.25041077  1
  V  V59  1  0.12004626  0.75326441  0.87688336  1
  V  V60  1  0.25032640  0.36998916  0.62525607  1
  V  V61  1  0.62543328  0.86581005  0.25781406  1
  V  V62  1  0.50463393  0.36410081  0.37458961  1
  V  V63  1  0.62846470  0.36580824  0.25280557  1
  V  V64  1  0.81427120  0.67276034  0.80813658  1
  V  V65  1  0.25032854  0.11615045  0.87504900  1
  V  V66  1  0.74744531  0.25106520  -0.00252063  1
  V  V67  1  0.25490422  0.87946793  0.13098458  1
  V  V68  1  0.12547911  0.24281777  0.88072418  1
  V  V69  1  0.00006794  -0.00226075  -0.00871517  1
  V  V70  1  0.38405796  0.12058426  0.74701987  1
  V  V71  1  0.75111557  0.37501730  0.12479916  1
  V  V72  1  0.61166467  0.37232439  0.75074183  1
  V  V73  1  0.38277471  0.23683909  0.13128204  1
  V  V74  1  0.87440190  0.87796398  0.50080378  1
  V  V75  1  0.75212221  -0.00180740  0.24301950  1
  V  V76  1  0.12627794  0.87538112  0.24861601  1
  V  V77  1  0.74239261  0.25575095  0.49347087  1
  V  V78  1  0.50738568  0.75324897  0.75392054  1
  V  V79  1  0.37586251  0.62647809  0.75027654  1
  V  V80  1  0.74443925  0.74724962  0.48900240  1
  V  V81  1  0.25246228  0.50057148  0.24824739  1
  V  V82  1  0.12537606  0.49922507  0.62583725  1
  V  V83  1  0.12522026  0.12243618  0.50030321  1
  V  V84  1  0.37524485  0.49801118  0.37517923  1
  Zn  Zn85  1  -0.00003600  0.87370433  0.37277965  1
  Zn  Zn86  1  0.68847033  0.68430325  0.31452549  1
  Zn  Zn87  1  0.24805223  0.75766671  0.50705229  1
  Zn  Zn88  1  0.50103524  0.23624397  0.25277933  1
  Zn  Zn89  1  0.62260617  0.88030393  0.74820702  1
  Zn  Zn90  1  0.12326551  0.75250054  0.37332264  1
  Zn  Zn91  1  0.25408256  0.37280570  0.12394340  1
  Zn  Zn92  1  0.61399551  0.12854525  0.50599783  1
  Zn  Zn93  1  -0.01032278  0.75416209  0.75840556  1
  Zn  Zn94  1  0.25120569  0.75155816  0.00012055  1
  Zn  Zn95  1  0.75102391  0.51132998  0.24935990  1
  Zn  Zn96  1  0.62821558  0.50099365  0.62473759  1
  Zn  Zn97  1  0.49113285  0.01370442  -0.00334807  1
  Zn  Zn98  1  0.52290048  0.87064268  0.88277789  1
  Zn  Zn99  1  0.87632188  0.25408933  0.62459952  1
  Zn  Zn100  1  0.51214509  0.49931370  -0.00954566  1
  Zn  Zn101  1  0.87283797  -0.00962809  0.87573747  1
  Zn  Zn102  1  -0.00224928  -0.00151870  0.49865577  1
  Zn  Zn103  1  0.36854978  0.75805435  0.62675099  1
  Zn  Zn104  1  0.67125263  0.66944124  0.95320112  1
  Zn  Zn105  1  0.75278488  0.37864050  0.62557831  1
  Zn  Zn106  1  0.74840042  0.13695121  0.37424811  1
  Zn  Zn107  1  0.18910063  0.18705334  0.18371379  1
  Zn  Zn108  1  0.18955928  0.18203047  0.68846001  1
  Zn  Zn109  1  0.18632120  0.69085967  0.18737064  1
  Zn  Zn110  1  0.18808512  0.69173796  0.69062390  1
  Zn  Zn111  1  0.69316082  0.19097197  0.19404903  1
  Zn  Zn112  1  0.68542677  0.19588384  0.68147457  1
  Zn  Zn113  1  0.72264891  0.66108716  0.13669851  1
  Zn  Zn114  1  0.68227128  0.68814831  0.67540170  1
  Zn  Zn115  1  0.31359916  0.30893291  0.31331007  1
  Zn  Zn116  1  0.31498446  0.30572403  0.81228292  1
  Zn  Zn117  1  0.31230726  0.81745402  0.31677501  1
  Zn  Zn118  1  0.30967519  0.80924415  0.80919009  1
  Zn  Zn119  1  0.81878479  0.31950812  0.31088259  1
  Zn  Zn120  1  0.81418845  0.31356168  0.81184848  1
  Zn  Zn121  1  0.81385777  0.81734703  0.30806736  1
  Zn  Zn122  1  0.75870499  0.84333134  0.85836510  1
  Zn  Zn123  1  0.18872315  0.43997929  0.43861489  1
  Zn  Zn124  1  0.19132913  0.43269897  0.93820485  1
  Zn  Zn125  1  0.18404043  0.93843513  0.43492204  1
  Zn  Zn126  1  0.18820326  0.93506245  0.94070344  1
  Zn  Zn127  1  0.68873349  0.43946365  0.43482836  1
  Zn  Zn128  1  0.69047158  0.43049880  0.93703240  1
  Zn  Zn129  1  0.69011592  0.94117177  0.43429716  1
  Zn  Zn130  1  0.65786737  0.96379197  0.92381510  1
  Zn  Zn131  1  0.31221350  0.06101092  0.06205757  1
  Zn  Zn132  1  0.31409072  0.05929086  0.56227935  1
  Zn  Zn133  1  0.32032759  0.56033921  0.06093654  1
  Zn  Zn134  1  0.31238000  0.56503167  0.56414679  1
  Zn  Zn135  1  0.81375979  0.06149688  0.05970861  1
  Zn  Zn136  1  0.77716236  0.08288946  0.57730133  1
  Zn  Zn137  1  0.81289227  0.55236063  0.05210106  1
  Zn  Zn138  1  0.80964841  0.56273742  0.56095009  1
  Zn  Zn139  1  0.43933785  0.42953951  0.18608833  1
  Zn  Zn140  1  0.43673390  0.43944548  0.68370048  1
  Zn  Zn141  1  0.44518333  0.93411417  0.18412785  1
  Zn  Zn142  1  0.43620711  0.93589824  0.68768199  1
  Zn  Zn143  1  0.93697038  0.43839744  0.18745045  1
  Zn  Zn144  1  0.93753036  0.44017931  0.69079818  1
  Zn  Zn145  1  0.93947907  0.93602866  0.18174664  1
  Zn  Zn146  1  0.93124146  0.93816532  0.68835856  1
  Zn  Zn147  1  0.06272780  0.05928431  0.30810167  1
  Zn  Zn148  1  0.06559684  0.06272088  0.81086539  1
  Zn  Zn149  1  0.06150401  0.56666151  0.31259238  1
  Zn  Zn150  1  0.06560267  0.56280037  0.81588931  1
  Zn  Zn151  1  0.58420814  0.05999962  0.32415480  1
  Zn  Zn152  1  0.56259110  0.06488823  0.81645085  1
  Zn  Zn153  1  0.55963338  0.55075793  0.30620714  1
  Zn  Zn154  1  0.56871980  0.56384236  0.81225646  1
  Zn  Zn155  1  0.43764489  0.18531862  0.44543816  1
  Zn  Zn156  1  0.43011240  0.18622324  0.93018259  1
  Zn  Zn157  1  0.43450033  0.69255041  0.43908057  1
  Zn  Zn158  1  0.47428699  0.66845933  0.92617228  1
  Zn  Zn159  1  0.93599893  0.18803956  0.43720781  1
  Zn  Zn160  1  0.93568053  0.18429417  0.93759557  1
  Zn  Zn161  1  0.94067377  0.69206032  0.43747966  1
  Zn  Zn162  1  0.94157992  0.68569389  0.94506287  1
  Zn  Zn163  1  0.06768378  0.31366756  0.06315352  1
  Zn  Zn164  1  0.06099788  0.31090902  0.56187196  1
  Zn  Zn165  1  0.06048951  0.81344343  0.06276187  1
  Zn  Zn166  1  0.05896215  0.81227681  0.56615273  1
  Zn  Zn167  1  0.56004111  0.19020826  0.05783346  1
  Zn  Zn168  1  0.56584734  0.31777013  0.56565182  1
  Zn  Zn169  1  0.54389596  0.81455575  0.07442692  1
  Zn  Zn170  1  0.55872895  0.81272000  0.55848113  1
  O  O171  1  0.11765074  0.11516682  0.12926854  1
  O  O172  1  0.11649397  0.11477175  0.62179611  1
  O  O173  1  0.12294699  0.61829336  0.11882129  1
  O  O174  1  0.11815051  0.61974670  0.62002243  1
  O  O175  1  0.62145516  0.12328502  0.13396341  1
  O  O176  1  0.66780101  0.11874353  0.60481161  1
  O  O177  1  0.60761619  0.61116595  0.12881464  1
  O  O178  1  0.61137527  0.62162548  0.61406728  1
  O  O179  1  0.37892474  0.37909947  0.38275385  1
  O  O180  1  0.36805413  0.37710030  0.88535655  1
  O  O181  1  0.38401698  0.87479214  0.38425390  1
  O  O182  1  0.36751296  0.87279036  0.88810224  1
  O  O183  1  0.88668240  0.38621989  0.38116628  1
  O  O184  1  0.88801452  0.38177649  0.87069082  1
  O  O185  1  0.87642125  0.88322821  0.38280617  1
  O  O186  1  0.86350372  0.87600044  0.89509356  1
  O  O187  1  0.24473004  0.01356383  0.37282495  1
  O  O188  1  0.24092351  0.01073701  0.86926518  1
  O  O189  1  0.25473866  0.50960303  0.36901860  1
  O  O190  1  0.25699975  0.50413702  0.86988596  1
  O  O191  1  0.76394077  0.00429373  0.36624734  1
  O  O192  1  0.74830915  0.01617641  0.86616139  1
  O  O193  1  0.76573623  0.49850397  0.37240333  1
  O  O194  1  0.75984595  0.49621838  0.86968565  1
  O  O195  1  0.24703823  0.49933901  0.13354495  1
  O  O196  1  0.24526182  0.49242792  0.63099169  1
  O  O197  1  0.24130744  0.99205044  0.12200993  1
  O  O198  1  0.23798217  1.00487567  0.63414493  1
  O  O199  1  0.74719995  0.48797920  0.12614146  1
  O  O200  1  0.74993913  0.50001885  0.63777851  1
  O  O201  1  0.74607368  1.01242574  0.13982598  1
  O  O202  1  0.76750388  0.98539980  0.63400885  1
  O  O203  1  0.00787051  0.37058099  0.25446147  1
  O  O204  1  0.00781537  0.36909625  0.75550049  1
  O  O205  1  0.00608308  0.86375421  0.24561582  1
  O  O206  1  0.00999336  0.87442680  0.74939000  1
  O  O207  1  0.50769187  0.37218225  0.25994237  1
  O  O208  1  0.51317075  0.37980218  0.74741910  1
  O  O209  1  0.51497483  0.87777771  0.25700488  1
  O  O210  1  0.50260134  0.86454403  0.74995689  1
  O  O211  1  0.49119489  0.11754752  0.27047151  1
  O  O212  1  0.48300946  0.11663314  0.75323581  1
  O  O213  1  0.48503551  0.61358429  0.24198142  1
  O  O214  1  0.49725689  0.63337148  0.74149109  1
  O  O215  1  0.99663615  0.13022717  0.23885094  1
  O  O216  1  0.99476370  0.12867370  0.74413231  1
  O  O217  1  1.00683783  0.63827881  0.24143132  1
  O  O218  1  1.00581922  0.62478501  0.73833534  1
  O  O219  1  0.36985975  0.25770934  0.00574794  1
  O  O220  1  0.36792069  0.25313899  0.50985720  1
  O  O221  1  0.37146510  0.76256459  0.01100045  1
  O  O222  1  0.37318493  0.76611773  0.50141024  1
  O  O223  1  0.87205921  0.24798432  0.01241401  1
  O  O224  1  0.88584597  0.27053148  0.49998116  1
  O  O225  1  0.88534042  0.76205754  0.00604961  1
  O  O226  1  0.86824616  0.75591044  0.50586096  1
  O  O227  1  0.12942244  0.24268722  0.49401079  1
  O  O228  1  0.13379000  0.25158302  0.99145327  1
  O  O229  1  0.12425045  0.74037063  0.49945717  1
  O  O230  1  0.12855645  0.74370484  0.99428301  1
  O  O231  1  0.64027482  0.25586284  0.50097796  1
  O  O232  1  0.63233155  0.24999541  0.98389565  1
  O  O233  1  0.63283074  0.74137235  0.50224390  1
  O  O234  1  0.63771513  0.76818447  1.02167557  1
  O  O235  1  0.48709990  0.24662948  0.13053500  1
  O  O236  1  0.49113349  0.24892723  0.61877866  1
  O  O237  1  0.48381894  0.73601401  0.12952546  1
  O  O238  1  0.49427567  0.74354964  0.63145917  1
  O  O239  1  0.99619836  0.24534877  0.12693552  1
  O  O240  1  1.00165887  0.23705398  0.63079174  1
  O  O241  1  1.00500112  0.74006507  0.13561637  1
  O  O242  1  0.98993914  0.74313817  0.63191174  1
  O  O243  1  0.00831599  0.25608230  0.36872952  1
  O  O244  1  0.00748295  0.25260050  0.87336338  1
  O  O245  1  0.00319197  0.75094203  0.36091271  1
  O  O246  1  0.01554477  0.73737875  0.87238248  1
  O  O247  1  0.49061558  0.26103037  0.37545504  1
  O  O248  1  0.51354330  0.24890944  0.87245557  1
  O  O249  1  0.49995967  0.76373152  0.37690271  1
  O  O250  1  0.49268372  0.75837351  0.85817701  1
  O  O251  1  0.24350026  0.12798673  0.49293388  1
  O  O252  1  0.25859280  0.13580351  0.98850762  1
  O  O253  1  0.24142435  0.62106009  0.49152476  1
  O  O254  1  0.24981871  0.62343752  0.98945621  1
  O  O255  1  0.78108017  0.15520943  0.48936777  1
  O  O256  1  0.75840840  0.13860617  0.98871653  1
  O  O257  1  0.73699918  0.63420010  0.50349987  1
  O  O258  1  0.74401548  0.63436255  1.02823204  1
  O  O259  1  0.25491357  0.35953627  0.00065547  1
  O  O260  1  0.25517466  0.36835966  0.50475677  1
  O  O261  1  0.25921547  0.87354662  0.01235688  1
  O  O262  1  0.26321040  0.87792555  0.49160556  1
  O  O263  1  0.75078159  0.36010772  0.00927532  1
  O  O264  1  0.76030509  0.37213504  0.50013262  1
  O  O265  1  0.75806929  0.87978143  0.00306009  1
  O  O266  1  0.75821247  0.87001490  0.50505567  1
  O  O267  1  0.13599683  0.49860976  0.24757829  1
  O  O268  1  0.13084068  0.49290687  0.74566760  1
  O  O269  1  0.11551452  0.98476573  0.23620014  1
  O  O270  1  0.12926075  0.99249267  0.74399620  1
  O  O271  1  0.62720483  0.48590487  0.23870041  1
  O  O272  1  0.63352904  0.48974580  0.75378530  1
  O  O273  1  0.63377695  0.99633872  0.23975086  1
  O  O274  1  0.63774664  1.00437299  0.74545588  1
  O  O275  1  0.37606343  0.00211647  0.24825019  1
  O  O276  1  0.36568880  0.00886651  0.74312961  1
  O  O277  1  0.36453941  0.50269879  0.25401776  1
  O  O278  1  0.36842952  0.50245477  0.75565893  1
  O  O279  1  0.87182473  0.00613923  0.25257911  1
  O  O280  1  0.87014531  0.00884625  0.75703116  1
  O  O281  1  0.87712068  0.49893417  0.26465168  1
  O  O282  1  0.86838817  0.50033406  0.76216920  1
  O  O283  1  0.12182323  0.37125984  0.37043942  1
  O  O284  1  0.12036047  0.36428861  0.86995112  1
  O  O285  1  0.12124114  0.87444723  0.36449197  1
  O  O286  1  0.12942057  0.86416065  0.86861280  1
  O  O287  1  0.61482854  0.38168999  0.36720215  1
  O  O288  1  0.62758681  0.36337699  0.86400474  1
  O  O289  1  0.61625630  0.88337835  0.36370891  1
  O  O290  1  0.64538517  0.86702617  0.86474223  1
  O  O291  1  0.36982884  0.13884937  0.12374367  1
  O  O292  1  0.36795476  0.13258273  0.63669836  1
  O  O293  1  0.37277979  0.63036743  0.13686525  1
  O  O294  1  0.38743354  0.62015058  0.63178088  1
  O  O295  1  0.88313745  0.13230378  0.13347756  1
  O  O296  1  0.88111004  0.12684396  0.63618418  1
  O  O297  1  0.89055372  0.61237424  0.12177769  1
  O  O298  1  0.88351105  0.63568025  0.61637049  1
  O  O299  1  0.25711685  0.25046568  0.11646962  1
  O  O300  1  0.24946839  0.25449161  0.61774101  1
  O  O301  1  0.26013151  0.75573085  0.12445894  1
  O  O302  1  0.25699818  0.73607695  0.61825417  1
  O  O303  1  0.75833130  0.25278462  0.11870323  1
  O  O304  1  0.75945823  0.26108840  0.60914746  1
  O  O305  1  0.75790926  0.77352583  0.13408868  1
  O  O306  1  0.75709934  0.75529020  0.61618544  1
  O  O307  1  0.24481732  0.24273198  0.38245806  1
  O  O308  1  0.24225438  0.24138594  0.88017135  1
  O  O309  1  0.24723502  0.73790817  0.37890608  1
  O  O310  1  0.24145319  0.73912306  0.87548970  1
  O  O311  1  0.75969090  0.26038040  0.38895096  1
  O  O312  1  0.74895645  0.24896626  0.88207620  1
  O  O313  1  0.75368450  0.75235356  0.38501909  1
  O  O314  1  0.75403009  0.72522570  0.87038777  1
  O  O315  1  -0.00174317  0.12058594  0.01136150  1
  O  O316  1  0.00517556  0.12385668  0.50812645  1
  O  O317  1  0.00864756  0.61275971  0.00735176  1
  O  O318  1  0.00875395  0.62331596  0.50872560  1
  O  O319  1  0.49531397  0.12594920  -0.00527174  1
  O  O320  1  0.49678684  0.10579956  0.50048948  1
  O  O321  1  0.47204283  0.60835553  0.02221504  1
  O  O322  1  0.50290488  0.62183958  0.50410926  1
  O  O323  1  0.49600188  0.37989880  0.49446090  1
  O  O324  1  0.48478356  0.37645527  0.99756473  1
  O  O325  1  0.49330906  0.88358803  0.49069791  1
  O  O326  1  0.48458136  0.87454328  0.99796755  1
  O  O327  1  0.99845176  0.38579936  0.49525675  1
  O  O328  1  1.00761179  0.38675945  0.99578844  1
  O  O329  1  0.98611504  0.87432406  0.49918573  1
  O  O330  1  0.99079058  0.88383578  1.00155545  1
  O  O331  1  0.49118865  0.48980913  0.38078075  1
  O  O332  1  0.48342494  0.49918185  0.87360069  1
  O  O333  1  0.48859458  0.99568141  0.37068942  1
  O  O334  1  0.53992142  0.98619145  0.89320619  1
  O  O335  1  0.99631933  0.49756684  0.38082614  1
  O  O336  1  0.99757864  0.49449581  0.88138569  1
  O  O337  1  0.98836578  0.99779028  0.37431595  1
  O  O338  1  1.00333590  1.00802911  0.88887380  1
  O  O339  1  0.00682820  0.00864112  0.11620983  1
  O  O340  1  0.00392699  0.01003375  0.62548272  1
  O  O341  1  0.00772774  0.50249125  0.11886481  1
  O  O342  1  0.00459001  0.50823145  0.62008220  1
  O  O343  1  0.51657082  -0.00096901  0.11974256  1
  O  O344  1  0.50486143  -0.00580895  0.61516816  1
  O  O345  1  0.50802557  0.49910632  0.12444270  1
  O  O346  1  0.50173966  0.50762756  0.61571084  1
  O  O347  1  0.24597983  0.38436176  0.25123058  1
  O  O348  1  0.24472574  0.37659309  0.74518020  1
  O  O349  1  0.24318796  0.87063536  0.23905840  1
  O  O350  1  0.24099214  0.88754696  0.75535006  1
  O  O351  1  0.74413041  0.37607589  0.24460848  1
  O  O352  1  0.74669495  0.38542201  0.74909041  1
  O  O353  1  0.73835189  0.88768710  0.25875354  1
  O  O354  1  0.75215589  0.88701665  0.74143843  1
  O  O355  1  0.24544269  0.12921987  0.26488678  1
  O  O356  1  0.25217719  0.11216366  0.75632146  1
  O  O357  1  0.25420881  0.61865423  0.25837025  1
  O  O358  1  0.25315229  0.61765450  0.76187713  1
  O  O359  1  0.76286498  0.12209354  0.25516574  1
  O  O360  1  0.75990212  0.12399816  0.75272812  1
  O  O361  1  0.74241091  0.62408451  0.23967389  1
  O  O362  1  0.74806509  0.61878992  0.74860692  1
  O  O363  1  0.36296449  0.12197504  0.37675116  1
  O  O364  1  0.36139458  0.13079097  0.85679541  1
  O  O365  1  0.36849668  0.62029303  0.37062406  1
  O  O366  1  0.37072654  0.61599130  0.86943045  1
  O  O367  1  0.88199368  0.12002020  0.36045053  1
  O  O368  1  0.86650800  0.12845547  0.86314768  1
  O  O369  1  0.88133819  0.61071115  0.38252807  1
  O  O370  1  0.87833485  0.61931334  0.86997621  1
  O  O371  1  0.12995692  0.38290029  0.13350412  1
  O  O372  1  0.12909117  0.38001553  0.62946817  1
  O  O373  1  0.13484793  0.87910912  0.12871608  1
  O  O374  1  0.11903678  0.88616954  0.63220545  1
  O  O375  1  0.64083436  0.37684360  0.13519510  1
  O  O376  1  0.62888515  0.37974238  0.63888192  1
  O  O377  1  0.62823995  0.88148726  0.13423056  1
  O  O378  1  0.63942299  0.86885847  0.62463062  1
  O  O379  1  0.12110828  0.25610095  0.25385691  1
  O  O380  1  0.12048332  0.25285385  0.75705491  1
  O  O381  1  0.11920124  0.76177661  0.24967701  1
  O  O382  1  0.12304691  0.75946634  0.75794651  1
  O  O383  1  0.62062863  0.26095368  0.24945367  1
  O  O384  1  0.63104833  0.26527565  0.75648350  1
  O  O385  1  0.63107035  0.76728469  0.25245360  1
  O  O386  1  0.60907912  0.74746249  0.74256884  1
  O  O387  1  0.37619479  0.25455539  0.23467424  1
  O  O388  1  0.36933620  0.23561768  0.73915737  1
  O  O389  1  0.36755872  0.73817135  0.24739335  1
  O  O390  1  0.38259790  0.74282685  0.74688294  1
  O  O391  1  0.88333054  0.24386961  0.24232508  1
  O  O392  1  0.88442495  0.24382404  0.74803523  1
  O  O393  1  0.89005499  0.75487756  0.24985501  1
  O  O394  1  0.86865752  0.73738778  0.74698967  1
  O  O395  1  0.37956663  0.49360502  0.49562042  1
  O  O396  1  0.36762013  0.48110970  0.99137310  1
  O  O397  1  0.38526604  0.98944913  0.50253308  1
  O  O398  1  0.37542269  0.98256260  1.00628721  1
  O  O399  1  0.87921482  0.49374185  0.49277429  1
  O  O400  1  0.88717127  0.50014404  0.98467528  1
  O  O401  1  0.87453943  0.99223106  0.49086874  1
  O  O402  1  0.88681508  1.00323379  0.99436286  1
  O  O403  1  0.11635959  -0.00805216  0.01274872  1
  O  O404  1  0.12031600  0.00357294  0.50811869  1
  O  O405  1  0.12152816  0.50365462  0.00353497  1
  O  O406  1  0.12114847  0.51070545  0.50625787  1
  O  O407  1  0.64159385  0.00696439  0.02750958  1
  O  O408  1  0.60690770  -0.00788883  0.49529732  1
  O  O409  1  0.62592658  0.48617241  0.01445049  1
  O  O410  1  0.61945825  0.50801663  0.50020638  1
  O  O411  1  0.37326503  0.36669463  0.11237758  1
  O  O412  1  0.37026490  0.36533978  0.62093494  1
  O  O413  1  0.37095563  0.86662263  0.12559452  1
  O  O414  1  0.37765204  0.87587868  0.60734264  1
  O  O415  1  0.86490457  0.36527731  0.13333262  1
  O  O416  1  0.87860492  0.37829691  0.61494730  1
  O  O417  1  0.87231782  0.88912341  0.10452606  1
  O  O418  1  0.87121995  0.86217614  0.61907481  1
  O  O419  1  0.13154978  0.12757216  0.37841840  1
  O  O420  1  0.13264108  0.13669677  0.86983834  1
  O  O421  1  0.13247439  0.62563277  0.38506259  1
  O  O422  1  0.13613655  0.62761624  0.88211121  1
  O  O423  1  0.63815749  0.12388723  0.39367987  1
  O  O424  1  0.63901574  0.14413502  0.86115951  1
  O  O425  1  0.61627166  0.62174939  0.38166204  1
  O  O426  1  0.58398870  0.62621080  0.90199972  1
