# generated using pymatgen
data_V85Zn86O256
_symmetry_space_group_name_H-M   'P 1'
_cell_length_a   16.91769064
_cell_length_b   16.91593229
_cell_length_c   16.91418137
_cell_angle_alpha   90.00890434
_cell_angle_beta   89.92084442
_cell_angle_gamma   89.98087592
_symmetry_Int_Tables_number   1
_chemical_formula_structural   V85Zn86O256
_chemical_formula_sum   'V85 Zn86 O256'
_cell_volume   4840.47026318
_cell_formula_units_Z   1
loop_
 _symmetry_equiv_pos_site_id
 _symmetry_equiv_pos_as_xyz
  1  'x, y, z'
loop_
 _atom_site_type_symbol
 _atom_site_label
 _atom_site_symmetry_multiplicity
 _atom_site_fract_x
 _atom_site_fract_y
 _atom_site_fract_z
 _atom_site_occupancy
  V  V0  1  0.61718013  0.62611020  -0.00377156  1
  V  V1  1  0.62607024  0.37754395  0.25582008  1
  V  V2  1  0.86837399  0.00718335  0.37638572  1
  V  V3  1  0.74961165  0.37088247  0.62094754  1
  V  V4  1  0.75223401  0.62933434  0.36803852  1
  V  V5  1  0.87383316  0.12693561  0.74988668  1
  V  V6  1  0.00387559  0.37474690  0.37643470  1
  V  V7  1  0.25106560  0.49557758  0.75348146  1
  V  V8  1  0.62604012  0.62505662  0.49757385  1
  V  V9  1  0.24303919  0.62373299  0.38032365  1
  V  V10  1  0.86836298  0.13154915  0.24790143  1
  V  V11  1  0.43488459  0.43548735  -0.05989568  1
  V  V12  1  0.75394282  0.26150853  0.00036423  1
  V  V13  1  0.00225104  0.87902643  0.37099512  1
  V  V14  1  0.50815147  0.74594339  0.75503594  1
  V  V15  1  0.88354006  0.62744658  0.75075138  1
  V  V16  1  0.38445815  0.87237402  0.49945321  1
  V  V17  1  0.00358896  0.62971292  0.61847657  1
  V  V18  1  0.37913131  -0.00533772  0.37243205  1
  V  V19  1  -0.00496798  0.49509247  0.00124275  1
  V  V20  1  0.87207034  0.37289338  0.49606093  1
  V  V21  1  0.87694667  0.50659901  0.36885607  1
  V  V22  1  0.64693749  0.24283468  0.37946162  1
  V  V23  1  0.61362381  0.25359676  0.87785585  1
  V  V24  1  0.50405691  0.86905186  0.87763235  1
  V  V25  1  0.00171163  0.87125608  0.86661496  1
  V  V26  1  0.62713850  -0.00751182  0.12329433  1
  V  V27  1  0.75213733  -0.00426303  0.24545818  1
  V  V28  1  0.74509417  0.75784444  0.00849866  1
  V  V29  1  0.12246875  0.62739803  0.00124929  1
  V  V30  1  0.37460760  0.75793264  0.12232415  1
  V  V31  1  0.87758595  0.75648990  0.63060719  1
  V  V32  1  0.25145968  0.62179413  0.87767474  1
  V  V33  1  0.50302806  0.25243234  0.26155483  1
  V  V34  1  0.37880314  0.25624543  0.12071556  1
  V  V35  1  0.62009933  0.49971003  0.12125229  1
  V  V36  1  0.74826524  0.75373492  0.50523538  1
  V  V37  1  0.37484268  0.62736159  0.24917829  1
  V  V38  1  0.12523118  0.75455001  0.37224413  1
  V  V39  1  0.00225245  0.12486852  0.62228352  1
  V  V40  1  0.37353213  0.74779943  0.62593922  1
  V  V41  1  0.75114235  0.50129566  0.74963812  1
  V  V42  1  0.36942335  0.12480518  0.25690275  1
  V  V43  1  0.25354707  0.25123826  -0.00198547  1
  V  V44  1  0.87512695  0.25170901  0.62134974  1
  V  V45  1  0.25098399  0.50190667  0.24917639  1
  V  V46  1  0.49978142  0.62227067  0.62492026  1
  V  V47  1  0.00525485  0.12801217  0.11909592  1
  V  V48  1  0.63276895  0.12578421  0.51309370  1
  V  V49  1  0.37611749  0.61741969  0.75355909  1
  V  V50  1  0.24227832  0.88244102  0.13911819  1
  V  V51  1  0.50217718  0.49384925  0.49564878  1
  V  V52  1  0.01252931  -0.00035715  0.00071977  1
  V  V53  1  0.12596650  -0.00502474  0.63877736  1
  V  V54  1  0.12437497  0.24652511  0.88163905  1
  V  V55  1  0.13334738  0.11915582  0.49833598  1
  V  V56  1  0.37068147  -0.00779143  0.87349652  1
  V  V57  1  0.13301937  0.24328162  0.37376770  1
  V  V58  1  0.24597867  0.87461481  0.63868113  1
  V  V59  1  0.49249464  -0.00639891  0.00132565  1
  V  V60  1  0.49868921  0.12437342  0.12555934  1
  V  V61  1  0.61646238  0.37544460  0.75240298  1
  V  V62  1  0.12548829  0.50195898  0.61859623  1
  V  V63  1  0.37731405  0.37019962  0.49566140  1
  V  V64  1  0.12932543  0.37426115  0.24784143  1
  V  V65  1  0.74850851  -0.00730268  0.74406255  1
  V  V66  1  -0.01188427  0.62759221  0.12959141  1
  V  V67  1  0.25056855  0.36731139  0.62414855  1
  V  V68  1  -0.00719702  0.74905435  0.25216740  1
  V  V69  1  0.62724557  0.49807978  0.62262264  1
  V  V70  1  0.62127815  0.87899241  0.26003878  1
  V  V71  1  0.37946260  0.11775210  0.74372305  1
  V  V72  1  0.11997862  0.75197600  0.86294800  1
  V  V73  1  0.87304817  0.49499646  0.87876906  1
  V  V74  1  0.24961068  0.76053833  0.00031669  1
  V  V75  1  0.74535253  0.63481294  0.87395800  1
  V  V76  1  0.24699040  0.11840340  0.87425993  1
  V  V77  1  0.87106050  0.87859074  0.50279640  1
  V  V78  1  0.38017525  0.49839422  0.37340506  1
  V  V79  1  0.49744674  0.75603557  0.25832777  1
  V  V80  1  0.24263592  0.74777611  0.50306008  1
  V  V81  1  0.74650740  0.12599042  0.87814234  1
  V  V82  1  0.00180079  0.25261663  0.75066830  1
  V  V83  1  0.87398162  -0.00138336  0.88193412  1
  V  V84  1  0.12509945  0.50304943  0.12503217  1
  Zn  Zn85  1  0.75251830  0.50636629  0.24657449  1
  Zn  Zn86  1  0.12701249  0.00094071  0.13919345  1
  Zn  Zn87  1  0.25832074  0.38279407  0.11312310  1
  Zn  Zn88  1  0.86633116  0.75695137  0.13490645  1
  Zn  Zn89  1  -0.00311078  0.37269350  0.87905472  1
  Zn  Zn90  1  0.38344426  0.23956868  0.62035273  1
  Zn  Zn91  1  0.49640702  0.62477317  0.12159791  1
  Zn  Zn92  1  0.63132116  0.86497095  0.74889455  1
  Zn  Zn93  1  0.00012758  -0.00021694  0.50197993  1
  Zn  Zn94  1  0.49998863  0.24451215  0.74486111  1
  Zn  Zn95  1  0.87894171  0.25875415  0.11845555  1
  Zn  Zn96  1  0.62324579  0.12549767  0.00126304  1
  Zn  Zn97  1  0.49979153  0.01032907  0.50541123  1
  Zn  Zn98  1  0.61916970  0.75669879  0.38082712  1
  Zn  Zn99  1  0.00531255  0.50440702  0.49733734  1
  Zn  Zn100  1  0.75688080  0.38518726  0.12258806  1
  Zn  Zn101  1  0.21147166  0.04629054  0.30480946  1
  Zn  Zn102  1  -0.00065275  0.25158664  0.24641292  1
  Zn  Zn103  1  0.87500729  0.87432381  0.00869710  1
  Zn  Zn104  1  0.12565266  0.37313181  0.75068747  1
  Zn  Zn105  1  0.25509461  0.24317865  0.49549220  1
  Zn  Zn106  1  0.61768512  -0.00963727  0.62643482  1
  Zn  Zn107  1  0.18745067  0.19078957  0.18140315  1
  Zn  Zn108  1  0.19076062  0.18239174  0.69185547  1
  Zn  Zn109  1  0.18428752  0.69188254  0.18953553  1
  Zn  Zn110  1  0.18679044  0.68456432  0.68780055  1
  Zn  Zn111  1  0.68625025  0.18557325  0.18644433  1
  Zn  Zn112  1  0.68848445  0.18970063  0.69097769  1
  Zn  Zn113  1  0.67997665  0.68916175  0.18652011  1
  Zn  Zn114  1  0.69075050  0.68661247  0.68474574  1
  Zn  Zn115  1  0.31432561  0.31241996  0.31014809  1
  Zn  Zn116  1  0.31798344  0.30811635  0.81392961  1
  Zn  Zn117  1  0.31252225  0.81590262  0.31466263  1
  Zn  Zn118  1  0.31757043  0.80728175  0.81591316  1
  Zn  Zn119  1  0.81402303  0.31835023  0.30547800  1
  Zn  Zn120  1  0.80834642  0.31359961  0.81198186  1
  Zn  Zn121  1  0.81053281  0.81745294  0.31517797  1
  Zn  Zn122  1  0.81808334  0.81258516  0.81790818  1
  Zn  Zn123  1  0.19076177  0.43513863  0.43822956  1
  Zn  Zn124  1  0.18590493  0.43381765  0.93502282  1
  Zn  Zn125  1  0.19056667  0.93363695  0.44671651  1
  Zn  Zn126  1  0.18513574  0.93505147  0.93557798  1
  Zn  Zn127  1  0.68979282  0.43477058  0.43170213  1
  Zn  Zn128  1  0.68118341  0.44181343  0.93541191  1
  Zn  Zn129  1  0.68949523  0.94349387  0.43908887  1
  Zn  Zn130  1  0.68118926  0.93743856  0.93459083  1
  Zn  Zn131  1  0.31196027  0.06483492  0.05986629  1
  Zn  Zn132  1  0.31068937  0.05273052  0.56204707  1
  Zn  Zn133  1  0.31509532  0.56525805  0.06079693  1
  Zn  Zn134  1  0.31148033  0.55972693  0.56302650  1
  Zn  Zn135  1  0.81307549  0.06627867  0.06400492  1
  Zn  Zn136  1  0.80707642  0.06926548  0.55922521  1
  Zn  Zn137  1  0.80739138  0.56695643  0.06081641  1
  Zn  Zn138  1  0.81616508  0.56235912  0.55799940  1
  Zn  Zn139  1  0.44337674  0.43667318  0.18618307  1
  Zn  Zn140  1  0.43591253  0.43343927  0.68430992  1
  Zn  Zn141  1  0.43423230  0.93581272  0.18908931  1
  Zn  Zn142  1  0.43903334  0.93557234  0.68727353  1
  Zn  Zn143  1  0.93729840  0.43612193  0.18765710  1
  Zn  Zn144  1  0.93860421  0.43964776  0.68680573  1
  Zn  Zn145  1  0.93860362  0.93726877  0.18668147  1
  Zn  Zn146  1  0.93569602  0.94023418  0.68895769  1
  Zn  Zn147  1  0.04732335  0.06530688  0.31099303  1
  Zn  Zn148  1  0.06069934  0.06433333  0.81451449  1
  Zn  Zn149  1  0.06254188  0.56478445  0.31206079  1
  Zn  Zn150  1  0.06395004  0.56119680  0.81086617  1
  Zn  Zn151  1  0.55918734  0.06470235  0.31774051  1
  Zn  Zn152  1  0.56130422  0.06006693  0.81360644  1
  Zn  Zn153  1  0.56310969  0.56686967  0.30962342  1
  Zn  Zn154  1  0.56113619  0.55626338  0.81756029  1
  Zn  Zn155  1  0.44251779  0.18228226  0.43795450  1
  Zn  Zn156  1  0.43456449  0.18271603  0.93721308  1
  Zn  Zn157  1  0.43430040  0.68517073  0.43825447  1
  Zn  Zn158  1  0.43287271  0.68613881  0.93805290  1
  Zn  Zn159  1  0.94092952  0.18916264  0.43549442  1
  Zn  Zn160  1  0.93569613  0.18587925  0.93826247  1
  Zn  Zn161  1  0.93634346  0.69039685  0.44043455  1
  Zn  Zn162  1  0.93378099  0.68796339  0.94004065  1
  Zn  Zn163  1  0.06670251  0.31282720  0.06125499  1
  Zn  Zn164  1  0.06584990  0.31091759  0.55975060  1
  Zn  Zn165  1  0.06027285  0.81497705  0.06233763  1
  Zn  Zn166  1  0.06073849  0.81392846  0.56153331  1
  Zn  Zn167  1  0.56389124  0.31609254  0.06334990  1
  Zn  Zn168  1  0.56219275  0.30625576  0.55850219  1
  Zn  Zn169  1  0.56252790  0.81184117  0.06493902  1
  Zn  Zn170  1  0.56540842  0.81628506  0.57258079  1
  O  O171  1  0.10937695  0.12467420  0.12762805  1
  O  O172  1  0.12135304  0.11790705  0.62036231  1
  O  O173  1  0.11953788  0.62195374  0.11770193  1
  O  O174  1  0.11518561  0.61654567  0.63021639  1
  O  O175  1  0.61163081  0.11469708  0.12771469  1
  O  O176  1  0.63194881  0.12477949  0.61648257  1
  O  O177  1  0.62103925  0.61957387  0.11600244  1
  O  O178  1  0.62111725  0.61670337  0.61768577  1
  O  O179  1  0.36957244  0.38389844  0.38583607  1
  O  O180  1  0.37620642  0.38008285  0.87691093  1
  O  O181  1  0.37434569  0.88376571  0.38302532  1
  O  O182  1  0.38267090  0.88503475  0.87133865  1
  O  O183  1  0.88410467  0.38019139  0.37884329  1
  O  O184  1  0.87537971  0.39074690  0.86905925  1
  O  O185  1  0.88080835  0.88383102  0.38259574  1
  O  O186  1  0.88178471  0.88315009  0.88383302  1
  O  O187  1  0.26824219  -0.00268894  0.38683763  1
  O  O188  1  0.25828384  0.00487563  0.88318316  1
  O  O189  1  0.25791821  0.50679535  0.37188728  1
  O  O190  1  0.24047135  0.50695437  0.86201547  1
  O  O191  1  0.76216061  -0.00074803  0.36533530  1
  O  O192  1  0.75536703  0.00777461  0.87255587  1
  O  O193  1  0.75878975  0.51090865  0.37473769  1
  O  O194  1  0.75665465  0.50991620  0.87068720  1
  O  O195  1  0.24382511  0.50097620  0.13127906  1
  O  O196  1  0.24467756  0.49231835  0.63305577  1
  O  O197  1  0.25042775  0.98619896  0.11937710  1
  O  O198  1  0.24030626  0.98465137  0.62370670  1
  O  O199  1  0.73846833  0.50575356  0.12870721  1
  O  O200  1  0.74753388  0.49272748  0.62805886  1
  O  O201  1  0.73871182  1.00566999  0.13088688  1
  O  O202  1  0.75678967  1.00496248  0.64362029  1
  O  O203  1  0.01301859  0.37721067  0.26008304  1
  O  O204  1  -0.00086728  0.36194656  0.74984954  1
  O  O205  1  -0.00148920  0.86882705  0.26492385  1
  O  O206  1  -0.00738917  0.87907019  0.76713882  1
  O  O207  1  0.51474243  0.36492365  0.24424606  1
  O  O208  1  0.51390807  0.37936702  0.74769803  1
  O  O209  1  0.50690819  0.86832648  0.24901926  1
  O  O210  1  0.49640648  0.85943012  0.75772752  1
  O  O211  1  0.49139134  0.13133298  0.24395558  1
  O  O212  1  0.48378006  0.12178381  0.75505329  1
  O  O213  1  0.49103222  0.63458218  0.24724637  1
  O  O214  1  0.49263817  0.62481846  0.74771856  1
  O  O215  1  0.98660629  0.12825612  0.23559647  1
  O  O216  1  0.99358616  0.13520614  0.74436338  1
  O  O217  1  1.00469362  0.63437687  0.24110157  1
  O  O218  1  0.98802065  0.61984157  0.74213660  1
  O  O219  1  0.36888977  0.24455199  0.00982192  1
  O  O220  1  0.37442921  0.25581636  0.49813900  1
  O  O221  1  0.36173673  0.74290788  0.01046953  1
  O  O222  1  0.36555627  0.75190521  0.50554139  1
  O  O223  1  0.85796848  0.24921998  -0.00451078  1
  O  O224  1  0.88325290  0.26442535  0.50407395  1
  O  O225  1  0.85690600  0.74881542  0.00086070  1
  O  O226  1  0.86863549  0.75898981  0.50842239  1
  O  O227  1  0.12810619  0.24044509  0.49097365  1
  O  O228  1  0.13036639  0.24857986  0.98821253  1
  O  O229  1  0.13556259  0.75094600  0.49207967  1
  O  O230  1  0.12992535  0.73932299  0.99644238  1
  O  O231  1  0.62813007  0.24448259  0.48635124  1
  O  O232  1  0.63329135  0.24797450  0.99287970  1
  O  O233  1  0.63224299  0.74519994  0.50124833  1
  O  O234  1  0.63556276  0.74281833  1.00405115  1
  O  O235  1  0.49677460  0.24165717  0.13100881  1
  O  O236  1  0.49484663  0.25905336  0.63152629  1
  O  O237  1  0.48925102  0.75101682  0.13400705  1
  O  O238  1  0.49318570  0.73976952  0.63384274  1
  O  O239  1  0.99999452  0.24078107  0.12229599  1
  O  O240  1  0.99707799  0.24565371  0.63190800  1
  O  O241  1  1.00344532  0.74360438  0.13603279  1
  O  O242  1  0.99024632  0.74323213  0.62231906  1
  O  O243  1  0.01265154  0.25910927  0.37122284  1
  O  O244  1  0.00531272  0.24878475  0.86948268  1
  O  O245  1  0.00654094  0.75487924  0.37273720  1
  O  O246  1  0.00760868  0.75752660  0.88278681  1
  O  O247  1  0.50340603  0.24962717  0.36270185  1
  O  O248  1  0.51146759  0.24290428  0.87251192  1
  O  O249  1  0.49885232  0.74487832  0.36311669  1
  O  O250  1  0.49060988  0.75635284  0.86716708  1
  O  O251  1  0.23775196  0.12544288  0.50637751  1
  O  O252  1  0.25488853  0.13554938  0.98651383  1
  O  O253  1  0.25660675  0.63339936  0.49186625  1
  O  O254  1  0.24149718  0.63003580  0.99352824  1
  O  O255  1  0.73427262  0.12792783  0.49498142  1
  O  O256  1  0.74724190  0.13048311  0.98850991  1
  O  O257  1  0.74477588  0.63219658  0.49388728  1
  O  O258  1  0.74095146  0.63529564  0.99126364  1
  O  O259  1  0.24391963  0.35892039  -0.00089354  1
  O  O260  1  0.25852310  0.37123206  0.50734286  1
  O  O261  1  0.24641834  0.86253065  0.00511433  1
  O  O262  1  0.25996529  0.86194627  0.50917219  1
  O  O263  1  0.74503201  0.36383145  -0.00201786  1
  O  O264  1  0.76014814  0.37995206  0.50792926  1
  O  O265  1  0.74535138  0.85989991  -0.00837796  1
  O  O266  1  0.76194515  0.86854219  0.49488296  1
  O  O267  1  0.13105963  0.49445108  0.24634608  1
  O  O268  1  0.13321036  0.49657393  0.73995933  1
  O  O269  1  0.12341068  1.00585696  0.25358469  1
  O  O270  1  0.12089847  1.00325362  0.73832138  1
  O  O271  1  0.62613258  0.49348927  0.24631745  1
  O  O272  1  0.63164313  0.49514317  0.74397145  1
  O  O273  1  0.63013875  0.99701496  0.24647997  1
  O  O274  1  0.64157034  1.00409977  0.75145816  1
  O  O275  1  0.37710804  0.00645682  0.26253845  1
  O  O276  1  0.37525584  0.00704361  0.75982518  1
  O  O277  1  0.37215765  0.50373591  0.25608725  1
  O  O278  1  0.36674712  0.50979099  0.74233350  1
  O  O279  1  0.86864268  0.00610800  0.25540087  1
  O  O280  1  0.86676655  0.00582562  0.76216323  1
  O  O281  1  0.87471853  0.49911629  0.26484994  1
  O  O282  1  0.86995298  0.50832442  0.75484684  1
  O  O283  1  0.12078714  0.37053620  0.36945215  1
  O  O284  1  0.11910391  0.36356266  0.86996195  1
  O  O285  1  0.11544736  0.86653598  0.38535347  1
  O  O286  1  0.11626987  0.86368767  0.87833076  1
  O  O287  1  0.62870360  0.36110387  0.36750779  1
  O  O288  1  0.63201413  0.36672992  0.86386958  1
  O  O289  1  0.62760280  0.87690689  0.36476609  1
  O  O290  1  0.60895489  0.87793720  0.86594639  1
  O  O291  1  0.38403414  0.13044204  0.13199895  1
  O  O292  1  0.36358016  0.12033085  0.64027921  1
  O  O293  1  0.37266187  0.63736596  0.13288415  1
  O  O294  1  0.37963036  0.62724359  0.63208580  1
  O  O295  1  0.88357656  0.13121540  0.13041973  1
  O  O296  1  0.88056436  0.13264796  0.62783288  1
  O  O297  1  0.88556828  0.63123294  0.12283365  1
  O  O298  1  0.88162322  0.63121688  0.63133720  1
  O  O299  1  0.25996719  0.25050729  0.11499524  1
  O  O300  1  0.25318782  0.25971291  0.62563095  1
  O  O301  1  0.25253232  0.75826665  0.12011158  1
  O  O302  1  0.25224036  0.75033964  0.61851043  1
  O  O303  1  0.74663196  0.24698042  0.10661658  1
  O  O304  1  0.75805154  0.26382820  0.63103532  1
  O  O305  1  0.74883545  0.74619863  0.11300289  1
  O  O306  1  0.76099670  0.74371527  0.61254405  1
  O  O307  1  0.23707289  0.25437172  0.37439057  1
  O  O308  1  0.24324053  0.24299486  0.87917771  1
  O  O309  1  0.24372158  0.74490408  0.38068573  1
  O  O310  1  0.24288811  0.74282390  0.88281878  1
  O  O311  1  0.74506126  0.25099355  0.37179075  1
  O  O312  1  0.74318539  0.24459511  0.88252120  1
  O  O313  1  0.75008251  0.74549995  0.38772690  1
  O  O314  1  0.75185024  0.73900877  0.87997026  1
  O  O315  1  -0.00656399  0.11757288  0.01196080  1
  O  O316  1  0.01065006  0.12570871  0.50780973  1
  O  O317  1  0.00628532  0.61973958  0.00755276  1
  O  O318  1  -0.00409111  0.62295645  0.51381139  1
  O  O319  1  0.50127962  0.11663607  0.00930611  1
  O  O320  1  0.52460750  0.12732548  0.49250803  1
  O  O321  1  0.51297314  0.63430349  0.00036666  1
  O  O322  1  0.50429631  0.61490727  0.50398153  1
  O  O323  1  0.49388986  0.38716177  0.49995732  1
  O  O324  1  0.49736357  0.37439957  0.99409686  1
  O  O325  1  0.48555236  0.86291282  0.50311239  1
  O  O326  1  0.50301101  0.88122722  0.99300776  1
  O  O327  1  0.99818147  0.37752229  0.48819958  1
  O  O328  1  1.00488259  0.39140270  1.00053381  1
  O  O329  1  0.98698024  0.87474573  0.49064972  1
  O  O330  1  0.99878598  0.88509676  0.99264469  1
  O  O331  1  0.48792675  0.50724998  0.38009626  1
  O  O332  1  0.49061082  0.50015706  0.88300681  1
  O  O333  1  0.48547025  1.00134293  0.38256071  1
  O  O334  1  0.49325417  0.99197693  0.88261221  1
  O  O335  1  0.99644521  0.49493680  0.37733097  1
  O  O336  1  0.99220308  0.50205000  0.88326426  1
  O  O337  1  0.98725344  0.99311621  0.37963375  1
  O  O338  1  0.99288705  0.99716018  0.88237154  1
  O  O339  1  0.00186821  0.01014812  0.11753800  1
  O  O340  1  0.00470139  0.00742920  0.62404634  1
  O  O341  1  0.00462038  0.50945992  0.12060599  1
  O  O342  1  0.00876148  0.50689602  0.62338120  1
  O  O343  1  0.50110342  0.00435845  0.11932209  1
  O  O344  1  0.50281557  -0.00673055  0.61830502  1
  O  O345  1  0.51406824  0.50559913  0.12949135  1
  O  O346  1  0.50607320  0.50340545  0.61582442  1
  O  O347  1  0.24071797  0.38204703  0.24956944  1
  O  O348  1  0.25301968  0.38080514  0.74250929  1
  O  O349  1  0.24802782  0.87334416  0.23826063  1
  O  O350  1  0.25325577  0.86152816  0.73744461  1
  O  O351  1  0.73798267  0.38084913  0.24744803  1
  O  O352  1  0.74355513  0.38289328  0.74137819  1
  O  O353  1  0.74181056  0.88799757  0.25140682  1
  O  O354  1  0.75267994  0.89024609  0.76142180  1
  O  O355  1  0.26444678  0.13041457  0.24445821  1
  O  O356  1  0.26086882  0.12598639  0.76573871  1
  O  O357  1  0.25498428  0.62172910  0.25776289  1
  O  O358  1  0.25614546  0.61695187  0.75660728  1
  O  O359  1  0.76147141  0.11529099  0.24262827  1
  O  O360  1  0.75579446  0.12081142  0.76160619  1
  O  O361  1  0.74464624  0.63038003  0.26453201  1
  O  O362  1  0.75777206  0.62008537  0.75546425  1
  O  O363  1  0.37648379  0.11503328  0.36760535  1
  O  O364  1  0.36916360  0.11212708  0.86870265  1
  O  O365  1  0.36437509  0.61777736  0.36943156  1
  O  O366  1  0.35960553  0.62690820  0.86873521  1
  O  O367  1  0.88395349  0.11787514  0.36376145  1
  O  O368  1  0.86808064  0.11839167  0.86980634  1
  O  O369  1  0.86637445  0.61778754  0.38443622  1
  O  O370  1  0.86898720  0.61940064  0.86636721  1
  O  O371  1  0.12728589  0.38289313  0.13336148  1
  O  O372  1  0.13405262  0.37983049  0.62700074  1
  O  O373  1  0.13847980  0.87676722  0.12316812  1
  O  O374  1  0.13233951  0.88160328  0.62101949  1
  O  O375  1  0.63071485  0.38406367  0.13132563  1
  O  O376  1  0.63403629  0.37954160  0.62763722  1
  O  O377  1  0.61886265  0.88822520  0.13633281  1
  O  O378  1  0.63280959  0.87532127  0.63605078  1
  O  O379  1  0.12400352  0.25820595  0.25397911  1
  O  O380  1  0.11695609  0.24886488  0.75776704  1
  O  O381  1  0.11592166  0.74799885  0.26570947  1
  O  O382  1  0.12486459  0.74223603  0.76405226  1
  O  O383  1  0.62242253  0.25515001  0.25674595  1
  O  O384  1  0.62509449  0.25872216  0.75922083  1
  O  O385  1  0.61576265  0.76134659  0.25171040  1
  O  O386  1  0.61196659  0.74115634  0.74897206  1
  O  O387  1  0.38375958  0.24367941  0.24629254  1
  O  O388  1  0.37738946  0.23202799  0.75104465  1
  O  O389  1  0.37892754  0.74767769  0.24551414  1
  O  O390  1  0.38017423  0.73399865  0.74551835  1
  O  O391  1  0.87830623  0.24308999  0.24804684  1
  O  O392  1  0.88102801  0.24639039  0.74532804  1
  O  O393  1  0.88802546  0.75242817  0.25588704  1
  O  O394  1  0.86813702  0.74228724  0.73986931  1
  O  O395  1  0.38174888  0.49495266  0.49211363  1
  O  O396  1  0.37476697  0.48996730  1.00444828  1
  O  O397  1  0.37868176  0.98965591  0.49357060  1
  O  O398  1  0.38634855  1.00312678  0.99255658  1
  O  O399  1  0.87974180  0.48848049  0.49072539  1
  O  O400  1  0.88263919  0.51075401  0.99065840  1
  O  O401  1  0.87306886  0.99595563  0.49456059  1
  O  O402  1  0.87898054  1.00234391  0.99032861  1
  O  O403  1  0.11436485  0.00095167  0.00198893  1
  O  O404  1  0.12135542  0.00582412  0.50785129  1
  O  O405  1  0.11913992  0.51087052  0.00253685  1
  O  O406  1  0.12770718  0.49677652  0.51362221  1
  O  O407  1  0.61510610  0.00181573  0.00767738  1
  O  O408  1  0.62736297  0.01291779  0.50332601  1
  O  O409  1  0.63016925  0.51257180  0.00843046  1
  O  O410  1  0.61838351  0.50250955  0.50034482  1
  O  O411  1  0.37432120  0.36017805  0.13469834  1
  O  O412  1  0.36631653  0.37739617  0.61055591  1
  O  O413  1  0.36241143  0.86467735  0.12848207  1
  O  O414  1  0.36598028  0.86512451  0.62034879  1
  O  O415  1  0.86957587  0.37168420  0.12936476  1
  O  O416  1  0.87023462  0.37342836  0.61642908  1
  O  O417  1  0.87979498  0.86944012  0.12195643  1
  O  O418  1  0.88011491  0.86709776  0.61812237  1
  O  O419  1  0.12254931  0.12970962  0.38117331  1
  O  O420  1  0.13406942  0.13245790  0.87020623  1
  O  O421  1  0.13731954  0.63025477  0.37485502  1
  O  O422  1  0.13146830  0.62916223  0.88163452  1
  O  O423  1  0.62861016  0.14083525  0.37004069  1
  O  O424  1  0.63185652  0.13293280  0.87572081  1
  O  O425  1  0.63242384  0.62883416  0.38278009  1
  O  O426  1  0.63466883  0.61898603  0.88205927  1
