# generated using pymatgen
data_V85Zn86O256
_symmetry_space_group_name_H-M   'P 1'
_cell_length_a   16.93142226
_cell_length_b   16.93983292
_cell_length_c   16.92628272
_cell_angle_alpha   90.00005398
_cell_angle_beta   90.03448286
_cell_angle_gamma   89.97271577
_symmetry_Int_Tables_number   1
_chemical_formula_structural   V85Zn86O256
_chemical_formula_sum   'V85 Zn86 O256'
_cell_volume   4854.71820516
_cell_formula_units_Z   1
loop_
 _symmetry_equiv_pos_site_id
 _symmetry_equiv_pos_as_xyz
  1  'x, y, z'
loop_
 _atom_site_type_symbol
 _atom_site_label
 _atom_site_symmetry_multiplicity
 _atom_site_fract_x
 _atom_site_fract_y
 _atom_site_fract_z
 _atom_site_occupancy
  V  V0  1  0.87404964  0.12720153  0.74474223  1
  V  V1  1  0.37738546  0.76254278  0.63622298  1
  V  V2  1  0.60753338  0.87574530  0.75422774  1
  V  V3  1  0.86985250  0.75264356  0.12352799  1
  V  V4  1  0.74669373  0.75397265  -0.00239240  1
  V  V5  1  0.50145730  0.37248897  0.87629977  1
  V  V6  1  0.88340367  0.38025969  -0.00311421  1
  V  V7  1  0.13098482  0.74350871  0.37521446  1
  V  V8  1  0.00256859  0.12334875  0.62456654  1
  V  V9  1  0.50196793  0.12389830  0.12955229  1
  V  V10  1  0.12239148  0.37331557  0.25308724  1
  V  V11  1  0.75134967  0.49628077  0.74413709  1
  V  V12  1  0.24859333  0.61825028  0.86679170  1
  V  V13  1  -0.00081808  0.74871494  0.25127803  1
  V  V14  1  0.31949116  0.29003148  0.56503242  1
  V  V15  1  0.25043793  0.74926651  -0.00064939  1
  V  V16  1  0.61169562  0.75230534  0.86973428  1
  V  V17  1  0.37923278  0.61839839  0.74762604  1
  V  V18  1  0.87174244  0.12302666  0.25249276  1
  V  V19  1  0.37625505  0.11960214  0.75787979  1
  V  V20  1  0.49734927  0.50494863  0.49770103  1
  V  V21  1  0.62841581  -0.01325427  0.12864522  1
  V  V22  1  0.13577350  0.24621804  0.37791970  1
  V  V23  1  -0.00579703  0.88024869  0.37268628  1
  V  V24  1  0.63750644  0.25140733  0.88008158  1
  V  V25  1  0.49838396  -0.00300537  -0.00828309  1
  V  V26  1  -0.00267210  0.12354005  0.12317171  1
  V  V27  1  0.62997001  0.12846073  0.00357941  1
  V  V28  1  0.87325522  0.74753298  0.62236222  1
  V  V29  1  0.86925401  -0.00060661  0.86926904  1
  V  V30  1  0.12553152  0.75273974  0.87300936  1
  V  V31  1  0.87058277  0.88014916  0.49509964  1
  V  V32  1  0.00174142  0.87714054  0.87313358  1
  V  V33  1  0.88489959  0.50174984  0.87755984  1
  V  V34  1  0.37509777  0.25039121  0.12827294  1
  V  V35  1  0.24840510  0.37651624  0.12607247  1
  V  V36  1  0.62718041  0.12792636  0.50050966  1
  V  V37  1  0.37151585  0.62859768  0.25609394  1
  V  V38  1  0.50962509  0.87053207  0.37018977  1
  V  V39  1  -0.00441272  0.36925248  0.38138507  1
  V  V40  1  -0.00162260  0.61961910  0.12038977  1
  V  V41  1  0.12761221  0.88213895  0.73325141  1
  V  V42  1  0.63241100  -0.00036938  0.62978864  1
  V  V43  1  0.12210409  0.49849764  0.11925539  1
  V  V44  1  0.74845894  -0.01012202  0.25230103  1
  V  V45  1  0.75144832  0.37093375  0.11744546  1
  V  V46  1  0.75522439  0.25697563  0.51208931  1
  V  V47  1  0.62708925  0.37348910  0.74677865  1
  V  V48  1  0.00130428  -0.00020070  0.50192832  1
  V  V49  1  0.75167234  0.12454106  0.37555694  1
  V  V50  1  0.37015028  0.00184216  0.37547111  1
  V  V51  1  0.87031906  0.24693327  0.11559024  1
  V  V52  1  0.00084475  0.25847135  0.74418429  1
  V  V53  1  0.75229890  0.12515610  0.87494878  1
  V  V54  1  0.50107853  0.12588430  0.62840200  1
  V  V55  1  0.50163388  0.37872159  0.37513864  1
  V  V56  1  0.12392104  0.87427554  0.25019948  1
  V  V57  1  0.24838721  0.24835170  -0.00296462  1
  V  V58  1  0.25037641  0.75098954  0.50276978  1
  V  V59  1  0.14286571  0.38681908  0.74119847  1
  V  V60  1  0.74797233  0.62492606  0.87036151  1
  V  V61  1  0.13035846  0.12221331  0.49623149  1
  V  V62  1  0.75198533  0.87692123  0.63768618  1
  V  V63  1  0.61832337  0.49949588  0.62498180  1
  V  V64  1  0.87528113  0.62243675  0.25417797  1
  V  V65  1  0.49651285  0.24803455  0.75538428  1
  V  V66  1  0.74144571  0.62763849  0.37901099  1
  V  V67  1  0.87210608  0.87427934  -0.00008923  1
  V  V68  1  0.01266837  0.62362082  0.61894893  1
  V  V69  1  0.37386053  0.37541099  0.00083893  1
  V  V70  1  0.36613271  0.12620362  0.25403827  1
  V  V71  1  -0.00240237  0.00006991  -0.00090957  1
  V  V72  1  0.38033768  0.75006069  0.12783095  1
  V  V73  1  0.25040656  0.11278745  0.87780608  1
  V  V74  1  0.37007809  0.87982087  0.50160911  1
  V  V75  1  0.12228105  0.62275432  -0.00250726  1
  V  V76  1  0.00104825  0.75377109  0.74765832  1
  V  V77  1  0.75064185  0.49647107  0.25131955  1
  V  V78  1  0.37852908  0.87811564  -0.01058993  1
  V  V79  1  0.62592790  0.50030749  0.12148630  1
  V  V80  1  0.49796269  0.50090275  -0.00161748  1
  V  V81  1  0.25264668  0.87634093  0.12660697  1
  V  V82  1  0.36333580  0.50014412  0.37750279  1
  V  V83  1  0.12305117  -0.00050557  0.12470931  1
  V  V84  1  0.25119157  -0.00120697  0.73072020  1
  Zn  Zn85  1  0.24609728  0.00430780  0.25381833  1
  Zn  Zn86  1  0.62489685  0.25217320  0.37461707  1
  Zn  Zn87  1  0.87517068  0.37407010  0.51844927  1
  Zn  Zn88  1  0.50056160  0.62499630  0.12640784  1
  Zn  Zn89  1  0.50136616  0.00004531  0.49896115  1
  Zn  Zn90  1  0.62200525  0.62588409  -0.00449918  1
  Zn  Zn91  1  0.13727636  0.60872221  0.49139481  1
  Zn  Zn92  1  0.12260292  0.12602156  -0.00187924  1
  Zn  Zn93  1  0.36917316  0.49277450  0.86825213  1
  Zn  Zn94  1  0.50096154  0.25174412  0.25416139  1
  Zn  Zn95  1  -0.00188489  0.24666504  0.24948855  1
  Zn  Zn96  1  0.62577219  0.37134515  0.24942143  1
  Zn  Zn97  1  0.12595707  0.25054814  0.86953209  1
  Zn  Zn98  1  0.00723312  0.49261911  0.50741505  1
  Zn  Zn99  1  0.87735587  0.62554892  0.74735389  1
  Zn  Zn100  1  0.49967397  0.63233566  0.62592580  1
  Zn  Zn101  1  0.62163866  0.63092951  0.50029815  1
  Zn  Zn102  1  0.51844723  0.74940154  0.25618568  1
  Zn  Zn103  1  0.87622298  0.49602562  0.38289644  1
  Zn  Zn104  1  0.74061337  0.75911103  0.49523758  1
  Zn  Zn105  1  0.24493094  0.50747014  0.25340115  1
  Zn  Zn106  1  0.00478205  0.37709267  0.87551146  1
  Zn  Zn107  1  0.18497962  0.18898779  0.18659959  1
  Zn  Zn108  1  0.18308554  0.18432050  0.68667455  1
  Zn  Zn109  1  0.18934409  0.68776664  0.18774030  1
  Zn  Zn110  1  0.19337652  0.69426362  0.68624952  1
  Zn  Zn111  1  0.68664045  0.18895554  0.18955872  1
  Zn  Zn112  1  0.68498538  0.18422231  0.69241577  1
  Zn  Zn113  1  0.68515602  0.68752311  0.18504276  1
  Zn  Zn114  1  0.68403494  0.68977220  0.68481336  1
  Zn  Zn115  1  0.31237693  0.31794373  0.31628226  1
  Zn  Zn116  1  0.31286121  0.30764346  0.81222219  1
  Zn  Zn117  1  0.31604815  0.81471607  0.31415667  1
  Zn  Zn118  1  0.30759865  0.81603968  0.81053477  1
  Zn  Zn119  1  0.81137385  0.30678104  0.31020159  1
  Zn  Zn120  1  0.81371035  0.31001567  0.69378684  1
  Zn  Zn121  1  0.80627321  0.80764884  0.31176236  1
  Zn  Zn122  1  0.81141575  0.81024976  0.81219582  1
  Zn  Zn123  1  0.19596990  0.43523063  0.55615614  1
  Zn  Zn124  1  0.18348533  0.43531682  0.93385775  1
  Zn  Zn125  1  0.18755627  0.93663316  0.43809875  1
  Zn  Zn126  1  0.18645384  0.93642176  0.93889439  1
  Zn  Zn127  1  0.68398058  0.43906232  0.43862586  1
  Zn  Zn128  1  0.69286523  0.43723749  0.93610779  1
  Zn  Zn129  1  0.68857662  0.94255940  0.44011976  1
  Zn  Zn130  1  0.68532077  0.93810602  0.93616929  1
  Zn  Zn131  1  0.31445479  0.06131663  0.06402184  1
  Zn  Zn132  1  0.32421534  0.08825911  0.55507337  1
  Zn  Zn133  1  0.31096478  0.56377892  0.06318233  1
  Zn  Zn134  1  0.31291246  0.57480740  0.55737009  1
  Zn  Zn135  1  0.80843850  0.05980248  0.06205671  1
  Zn  Zn136  1  0.81503695  0.06089056  0.56280681  1
  Zn  Zn137  1  0.81046647  0.56448575  0.05933326  1
  Zn  Zn138  1  0.81829577  0.55470508  0.56308168  1
  Zn  Zn139  1  0.43699845  0.44008665  0.19156195  1
  Zn  Zn140  1  0.37658803  0.44850141  0.65195940  1
  Zn  Zn141  1  0.43931161  0.93825103  0.18926151  1
  Zn  Zn142  1  0.43495669  0.94486864  0.68705757  1
  Zn  Zn143  1  0.93785394  0.43578969  0.18854481  1
  Zn  Zn144  1  0.94127317  0.44327457  0.68975769  1
  Zn  Zn145  1  0.93166454  0.93715792  0.18826226  1
  Zn  Zn146  1  0.93748329  0.94083254  0.68532684  1
  Zn  Zn147  1  0.05921014  0.06146311  0.31307438  1
  Zn  Zn148  1  0.06520032  0.06359011  0.81113062  1
  Zn  Zn149  1  0.06192122  0.55705561  0.31457564  1
  Zn  Zn150  1  0.06504690  0.56415066  0.80355057  1
  Zn  Zn151  1  0.56092665  0.05814101  0.31399436  1
  Zn  Zn152  1  0.56826440  0.05886798  0.81326475  1
  Zn  Zn153  1  0.56052982  0.56478011  0.30703070  1
  Zn  Zn154  1  0.55843561  0.56236273  0.81152475  1
  Zn  Zn155  1  0.44063613  0.18770173  0.43676839  1
  Zn  Zn156  1  0.43830607  0.18463674  0.93956764  1
  Zn  Zn157  1  0.43559060  0.68997046  0.43867066  1
  Zn  Zn158  1  0.43331101  0.68560494  0.93706245  1
  Zn  Zn159  1  0.93560190  0.18811124  0.43698380  1
  Zn  Zn160  1  0.93742418  0.19199856  0.93374346  1
  Zn  Zn161  1  0.93628669  0.69050598  0.43840731  1
  Zn  Zn162  1  0.93731764  0.68631671  0.93563812  1
  Zn  Zn163  1  0.06051748  0.30978570  0.06275031  1
  Zn  Zn164  1  0.06741365  0.30606897  0.56503921  1
  Zn  Zn165  1  0.06023319  0.81005222  0.06227761  1
  Zn  Zn166  1  0.06101278  0.81069636  0.55758207  1
  Zn  Zn167  1  0.56284382  0.31172704  0.06470358  1
  Zn  Zn168  1  0.51593628  0.33418249  0.58479586  1
  Zn  Zn169  1  0.56128054  0.81181169  0.06007532  1
  Zn  Zn170  1  0.55874580  0.81391790  0.55895859  1
  O  O171  1  0.11603452  0.11734572  0.12368082  1
  O  O172  1  0.11087166  0.12901664  0.61390545  1
  O  O173  1  0.11818246  0.61815725  0.12130671  1
  O  O174  1  0.11442799  0.63877150  0.62135904  1
  O  O175  1  0.61963828  0.12059161  0.11890723  1
  O  O176  1  0.62410652  0.11558457  0.62342710  1
  O  O177  1  0.62665355  0.61055385  0.11706138  1
  O  O178  1  0.61691912  0.61071884  0.63440673  1
  O  O179  1  0.38372267  0.39223061  0.36759452  1
  O  O180  1  0.38157369  0.37374221  0.88247063  1
  O  O181  1  0.38144233  0.88337229  0.38339074  1
  O  O182  1  0.36737195  0.87077861  0.89066893  1
  O  O183  1  0.88859448  0.37050281  0.36956509  1
  O  O184  1  0.87923773  0.38803231  0.88519784  1
  O  O185  1  0.88055074  0.86689320  0.38333594  1
  O  O186  1  0.88018401  0.88272578  0.87651741  1
  O  O187  1  0.26443097  -0.00693778  0.37081580  1
  O  O188  1  0.24861726  0.01075042  0.87717324  1
  O  O189  1  0.26490936  0.49754612  0.37349138  1
  O  O190  1  0.25145054  0.51475276  0.88288960  1
  O  O191  1  0.74444315  0.01026333  0.36157834  1
  O  O192  1  0.76214930  0.00623890  0.87897216  1
  O  O193  1  0.75444096  0.50404813  0.36622961  1
  O  O194  1  0.75417770  0.50747092  0.86492439  1
  O  O195  1  0.24051513  0.49362085  0.12703285  1
  O  O196  1  0.27717456  0.48860592  0.61571693  1
  O  O197  1  0.24195091  0.99168014  0.12536318  1
  O  O198  1  0.25546712  1.01009083  0.63392601  1
  O  O199  1  0.74510357  0.49461229  0.12954939  1
  O  O200  1  0.73969666  0.50660516  0.63885897  1
  O  O201  1  0.73664283  1.00394182  0.13501261  1
  O  O202  1  0.74048454  0.99310753  0.62317395  1
  O  O203  1  0.00929075  0.37092007  0.25328413  1
  O  O204  1  0.00533701  0.36502966  0.74997634  1
  O  O205  1  0.00070600  0.86926503  0.25478437  1
  O  O206  1  0.00718447  0.87391411  0.75393091  1
  O  O207  1  0.50319344  0.37648374  0.26052690  1
  O  O208  1  0.51161754  0.36268512  0.76118652  1
  O  O209  1  0.49563222  0.87352935  0.26564372  1
  O  O210  1  0.50914128  0.87896152  0.74977092  1
  O  O211  1  0.49481505  0.12376074  0.23907741  1
  O  O212  1  0.49643097  0.12645799  0.75097902  1
  O  O213  1  0.48854286  0.62942467  0.24499501  1
  O  O214  1  0.48307189  0.62843106  0.75173374  1
  O  O215  1  0.98787261  0.12071143  0.24080064  1
  O  O216  1  0.99728683  0.13094111  0.74222099  1
  O  O217  1  0.99169734  0.62827314  0.24458389  1
  O  O218  1  1.00137176  0.63726945  0.73803984  1
  O  O219  1  0.36554752  0.25356430  0.00593400  1
  O  O220  1  0.35864334  0.20950330  0.51154421  1
  O  O221  1  0.36972541  0.75559908  0.00808034  1
  O  O222  1  0.36819653  0.76013581  0.50703572  1
  O  O223  1  0.87696075  0.25804531  0.00959996  1
  O  O224  1  0.85858844  0.24961814  0.49962951  1
  O  O225  1  0.86887207  0.75414486  0.00397535  1
  O  O226  1  0.87129209  0.76192442  0.50749962  1
  O  O227  1  0.12040933  0.23947481  0.48556041  1
  O  O228  1  0.13783183  0.24911152  1.00006864  1
  O  O229  1  0.13413143  0.75458143  0.49022558  1
  O  O230  1  0.13032680  0.74486577  0.99430224  1
  O  O231  1  0.63980833  0.23444203  0.49995134  1
  O  O232  1  0.61942929  0.23613796  0.99573906  1
  O  O233  1  0.63212431  0.74156369  0.51848943  1
  O  O234  1  0.63203643  0.74918124  0.99204385  1
  O  O235  1  0.49271777  0.24156665  0.12588237  1
  O  O236  1  0.51566366  0.23304481  0.64172236  1
  O  O237  1  0.48904292  0.74920807  0.12433229  1
  O  O238  1  0.48057121  0.75086108  0.62170547  1
  O  O239  1  0.99165613  0.23957806  0.12638397  1
  O  O240  1  0.99939980  0.24162588  0.63668736  1
  O  O241  1  0.99337059  0.73924545  0.13146802  1
  O  O242  1  0.99012543  0.74704403  0.62710967  1
  O  O243  1  0.00200758  0.25636889  0.36947510  1
  O  O244  1  0.00267099  0.25009178  0.85914448  1
  O  O245  1  0.00452533  0.75954537  0.36900485  1
  O  O246  1  0.00493151  0.75600757  0.86765348  1
  O  O247  1  0.50050617  0.26317510  0.37779106  1
  O  O248  1  0.51107697  0.25091077  0.87327435  1
  O  O249  1  0.49438905  0.76637220  0.37641538  1
  O  O250  1  0.51298976  0.74678654  0.88189563  1
  O  O251  1  0.22821749  0.10908060  0.49891710  1
  O  O252  1  0.25091720  0.13127652  0.99540433  1
  O  O253  1  0.24939721  0.64475198  0.49526593  1
  O  O254  1  0.24304038  0.63194747  0.99349197  1
  O  O255  1  0.74839905  0.12725368  0.49322611  1
  O  O256  1  0.74177710  0.12080394  0.98917992  1
  O  O257  1  0.75378330  0.61712465  0.48387578  1
  O  O258  1  0.74828768  0.63281873  0.98549686  1
  O  O259  1  0.25379227  0.36750519  0.00396318  1
  O  O260  1  0.26415587  0.35077278  0.50725291  1
  O  O261  1  0.25456563  0.87087456  0.01093130  1
  O  O262  1  0.26240538  0.87044985  0.49706777  1
  O  O263  1  0.76193369  0.38045428  0.01163034  1
  O  O264  1  0.74845240  0.35843706  0.49531986  1
  O  O265  1  0.75530913  0.86229929  -0.00702634  1
  O  O266  1  0.75648255  0.87784116  0.50870689  1
  O  O267  1  0.12550094  0.49209618  0.24038391  1
  O  O268  1  0.12620986  0.48534392  0.74921172  1
  O  O269  1  0.12488281  0.99320577  0.24311885  1
  O  O270  1  0.13963084  0.99546840  0.75137079  1
  O  O271  1  0.63643139  0.49963318  0.23983332  1
  O  O272  1  0.62794517  0.49084247  0.74820709  1
  O  O273  1  0.63440310  1.00391810  0.23804875  1
  O  O274  1  0.62639133  0.98624105  0.74537019  1
  O  O275  1  0.37283656  0.00853587  0.25498108  1
  O  O276  1  0.36085848  0.00397628  0.75345611  1
  O  O277  1  0.37260051  0.51039877  0.25823287  1
  O  O278  1  0.37739536  0.51473905  0.75029359  1
  O  O279  1  0.85796352  0.01024234  0.23955199  1
  O  O280  1  0.88181613  0.01206602  0.75996185  1
  O  O281  1  0.86562274  0.50720360  0.24751514  1
  O  O282  1  0.86554293  0.50383489  0.75908410  1
  O  O283  1  0.11199647  0.35918692  0.36643120  1
  O  O284  1  0.12256003  0.37187107  0.86179137  1
  O  O285  1  0.11558154  0.86795185  0.36712248  1
  O  O286  1  0.11873726  0.87104302  0.86989947  1
  O  O287  1  0.61691167  0.37531432  0.37100227  1
  O  O288  1  0.62265748  0.36698880  0.87299384  1
  O  O289  1  0.60774680  0.88357808  0.38491544  1
  O  O290  1  0.62866581  0.86974480  0.86118987  1
  O  O291  1  0.38357823  0.12924634  0.13194833  1
  O  O292  1  0.39016260  0.11734340  0.64494173  1
  O  O293  1  0.37568672  0.63521629  0.12971377  1
  O  O294  1  0.37492599  0.63905634  0.63738984  1
  O  O295  1  0.87624633  0.13034029  0.12689550  1
  O  O296  1  0.88441852  0.11830562  0.63513757  1
  O  O297  1  0.88132338  0.63014800  0.13003826  1
  O  O298  1  0.88220196  0.63467055  0.62503167  1
  O  O299  1  0.25478440  0.25572360  0.11778727  1
  O  O300  1  0.26133421  0.24756892  0.63515053  1
  O  O301  1  0.25809165  0.75741747  0.11973966  1
  O  O302  1  0.26363121  0.75391743  0.61605570  1
  O  O303  1  0.75686924  0.25905151  0.12634463  1
  O  O304  1  0.74776551  0.24620446  0.61666942  1
  O  O305  1  0.76055894  0.73622724  0.10969324  1
  O  O306  1  0.76211379  0.75705057  0.62738342  1
  O  O307  1  0.23423757  0.25016844  0.36819436  1
  O  O308  1  0.24986626  0.23853449  0.88314839  1
  O  O309  1  0.23933687  0.76057482  0.38177452  1
  O  O310  1  0.24329609  0.74314124  0.88011545  1
  O  O311  1  0.74774767  0.23739350  0.38126483  1
  O  O312  1  0.73843033  0.24140400  0.87811348  1
  O  O313  1  0.75511510  0.73172502  0.37870649  1
  O  O314  1  0.74372380  0.74261922  0.87897579  1
  O  O315  1  -0.00196704  0.11931241  0.00651517  1
  O  O316  1  -0.00055635  0.11721290  0.50536719  1
  O  O317  1  0.00821749  0.63133436  0.00947726  1
  O  O318  1  0.00282675  0.62987883  0.51231627  1
  O  O319  1  0.50508494  0.11831636  0.01244766  1
  O  O320  1  0.51070633  0.12471748  0.51161175  1
  O  O321  1  0.49881737  0.61169191  0.00154342  1
  O  O322  1  0.50166383  0.61748205  0.50071235  1
  O  O323  1  0.50477403  0.39160909  0.48582381  1
  O  O324  1  0.49552250  0.38200561  0.99679406  1
  O  O325  1  0.48723588  0.87980335  0.49406520  1
  O  O326  1  0.49079583  0.88434009  1.00448644  1
  O  O327  1  0.99822063  0.36592671  0.48922358  1
  O  O328  1  0.98861747  0.37317373  0.99912371  1
  O  O329  1  0.99272824  0.88052719  0.49241036  1
  O  O330  1  0.99265018  0.87849939  0.99323561  1
  O  O331  1  0.49687060  0.49687739  0.37831731  1
  O  O332  1  0.49707011  0.49200559  0.88323175  1
  O  O333  1  0.48936360  0.99167453  0.37654056  1
  O  O334  1  0.50676940  1.00569357  0.89275822  1
  O  O335  1  0.99886258  0.47986112  0.37189083  1
  O  O336  1  0.98786696  0.50465704  0.86824902  1
  O  O337  1  0.99729262  0.98595116  0.37722463  1
  O  O338  1  0.99116557  0.99763833  0.87997926  1
  O  O339  1  0.00200187  0.00357997  0.11966037  1
  O  O340  1  -0.00163084  0.00774681  0.61363478  1
  O  O341  1  0.00534359  0.51202613  0.12959127  1
  O  O342  1  0.00113921  0.52132038  0.62968412  1
  O  O343  1  0.51244992  0.00559638  0.12258382  1
  O  O344  1  0.51250518  0.01006698  0.62638673  1
  O  O345  1  0.50893809  0.49821656  0.11720514  1
  O  O346  1  0.49840581  0.50195620  0.61282962  1
  O  O347  1  0.23643270  0.37596087  0.24420904  1
  O  O348  1  0.24234773  0.37448143  0.75355286  1
  O  O349  1  0.24584427  0.87501217  0.23785923  1
  O  O350  1  0.24290185  0.89085861  0.74993702  1
  O  O351  1  0.75233544  0.38202586  0.23910184  1
  O  O352  1  0.73574849  0.38082292  0.75127119  1
  O  O353  1  0.75562445  0.89111630  0.25400859  1
  O  O354  1  0.74937739  0.87604008  0.73964177  1
  O  O355  1  0.26236404  0.12341850  0.24203980  1
  O  O356  1  0.25563516  0.11552757  0.75698042  1
  O  O357  1  0.26445893  0.62507922  0.24557390  1
  O  O358  1  0.26025680  0.63209039  0.75803452  1
  O  O359  1  0.75393613  0.11934087  0.25705481  1
  O  O360  1  0.75942546  0.12950702  0.76381208  1
  O  O361  1  0.75885149  0.61604349  0.25841983  1
  O  O362  1  0.75036560  0.62009554  0.75855394  1
  O  O363  1  0.38433937  0.11612555  0.36284887  1
  O  O364  1  0.36898859  0.12649951  0.86627187  1
  O  O365  1  0.37991129  0.61543353  0.36615949  1
  O  O366  1  0.36656183  0.62608897  0.86294089  1
  O  O367  1  0.86742827  0.12765286  0.36206489  1
  O  O368  1  0.86908852  0.11916632  0.87084100  1
  O  O369  1  0.87328218  0.62163168  0.36478759  1
  O  O370  1  0.86665233  0.61997295  0.87215227  1
  O  O371  1  0.12555393  0.38110134  0.13050979  1
  O  O372  1  0.12792976  0.37301758  0.63550269  1
  O  O373  1  0.13079495  0.87821530  0.12940042  1
  O  O374  1  0.11922798  0.87419679  0.63429488  1
  O  O375  1  0.63408272  0.38366412  0.12308994  1
  O  O376  1  0.61148312  0.38740431  0.63555931  1
  O  O377  1  0.62509639  0.88879758  0.11968613  1
  O  O378  1  0.62982847  0.88083033  0.63591112  1
  O  O379  1  0.12073338  0.25480267  0.25650946  1
  O  O380  1  0.11457714  0.25648468  0.74847935  1
  O  O381  1  0.11952525  0.75515978  0.25427156  1
  O  O382  1  0.12211497  0.76205139  0.75404222  1
  O  O383  1  0.62000630  0.25267584  0.25429039  1
  O  O384  1  0.62100748  0.25464982  0.76091274  1
  O  O385  1  0.62935283  0.74948334  0.25186237  1
  O  O386  1  0.62774840  0.76585196  0.75512390  1
  O  O387  1  0.37688805  0.24370558  0.24663629  1
  O  O388  1  0.39087622  0.24011287  0.75865258  1
  O  O389  1  0.37744709  0.74524001  0.24311878  1
  O  O390  1  0.36920224  0.74969717  0.73933795  1
  O  O391  1  0.87392177  0.23840535  0.23653266  1
  O  O392  1  0.88670247  0.23712252  0.75049462  1
  O  O393  1  0.87578485  0.74080238  0.24124092  1
  O  O394  1  0.88344571  0.75110980  0.74177293  1
  O  O395  1  0.38335865  0.50971712  0.48365281  1
  O  O396  1  0.38206540  0.49315558  0.99997243  1
  O  O397  1  0.37687807  0.99876061  0.49378745  1
  O  O398  1  0.38628529  0.99045763  1.00873832  1
  O  O399  1  0.88693181  0.49110318  0.49881811  1
  O  O400  1  0.87132160  0.49469971  0.99040734  1
  O  O401  1  0.88347229  0.98793297  0.50116156  1
  O  O402  1  0.87791042  0.99251885  0.99427744  1
  O  O403  1  0.11587973  -0.00042369  0.00859556  1
  O  O404  1  0.10838861  0.00426768  0.48831972  1
  O  O405  1  0.12662909  0.50390399  0.01206641  1
  O  O406  1  0.12075368  0.49844780  0.50018381  1
  O  O407  1  0.62216572  0.00792018  0.01059460  1
  O  O408  1  0.62506396  0.01104786  0.51082774  1
  O  O409  1  0.61751142  0.49890615  0.00388184  1
  O  O410  1  0.61936189  0.50536919  0.51035547  1
  O  O411  1  0.36905984  0.37082140  0.12163886  1
  O  O412  1  0.39969865  0.34542849  0.61144821  1
  O  O413  1  0.36816160  0.86867742  0.12191468  1
  O  O414  1  0.37743776  0.86949945  0.61982294  1
  O  O415  1  0.87089968  0.36779303  0.11994934  1
  O  O416  1  0.87202516  0.38003526  0.63125012  1
  O  O417  1  0.87876243  0.85921798  0.11982679  1
  O  O418  1  0.86838336  0.87061931  0.61944800  1
  O  O419  1  0.11546309  0.13772014  0.37850095  1
  O  O420  1  0.13498923  0.12792930  0.87823376  1
  O  O421  1  0.11697132  0.63929736  0.37382401  1
  O  O422  1  0.13020201  0.63097167  0.87595700  1
  O  O423  1  0.63051010  0.12325091  0.38459554  1
  O  O424  1  0.63332365  0.12846825  0.88209043  1
  O  O425  1  0.63949658  0.61740975  0.37540793  1
  O  O426  1  0.63085085  0.63302863  0.87254809  1
