# generated using pymatgen
data_V85Zn86O256
_symmetry_space_group_name_H-M   'P 1'
_cell_length_a   16.94377696
_cell_length_b   16.95307534
_cell_length_c   16.94398560
_cell_angle_alpha   90.02391987
_cell_angle_beta   89.98787102
_cell_angle_gamma   89.96792759
_symmetry_Int_Tables_number   1
_chemical_formula_structural   V85Zn86O256
_chemical_formula_sum   'V85 Zn86 O256'
_cell_volume   4867.14378089
_cell_formula_units_Z   1
loop_
 _symmetry_equiv_pos_site_id
 _symmetry_equiv_pos_as_xyz
  1  'x, y, z'
loop_
 _atom_site_type_symbol
 _atom_site_label
 _atom_site_symmetry_multiplicity
 _atom_site_fract_x
 _atom_site_fract_y
 _atom_site_fract_z
 _atom_site_occupancy
  V  V0  1  0.38053175  0.24721255  0.12221312  1
  V  V1  1  0.87413958  0.62547353  0.24969383  1
  V  V2  1  0.00102941  0.12601294  0.12259393  1
  V  V3  1  -0.00079860  -0.00102229  0.50005653  1
  V  V4  1  0.62112468  0.37648984  0.76001133  1
  V  V5  1  -0.00050044  0.49297236  0.00127129  1
  V  V6  1  0.49363731  0.25514674  0.74975539  1
  V  V7  1  0.12770187  0.87506154  0.75179590  1
  V  V8  1  0.49084738  0.13068710  0.62498768  1
  V  V9  1  0.12792127  0.37964324  0.24641016  1
  V  V10  1  0.36999599  0.00210707  0.88372233  1
  V  V11  1  0.87086954  0.24814391  0.62095241  1
  V  V12  1  0.50077027  0.37194998  0.37567320  1
  V  V13  1  0.62081130  0.01629258  0.11968608  1
  V  V14  1  0.75011719  0.63585136  0.37624202  1
  V  V15  1  0.86977328  0.49750924  0.88089754  1
  V  V16  1  0.43381055  0.94549454  0.43808062  1
  V  V17  1  0.62875968  0.24937047  0.38401806  1
  V  V18  1  0.87657533  0.87202401  -0.00158659  1
  V  V19  1  0.37262995  0.49714460  0.37204835  1
  V  V20  1  0.00272816  0.25002487  0.24957249  1
  V  V21  1  0.75353126  0.49665592  0.24291054  1
  V  V22  1  0.12813658  0.87264874  0.25093348  1
  V  V23  1  0.26414108  0.75112342  0.00482422  1
  V  V24  1  0.38946937  0.37709018  -0.00408454  1
  V  V25  1  0.87693341  0.12556248  0.24810252  1
  V  V26  1  0.62343273  0.49434779  0.12287672  1
  V  V27  1  0.01668863  0.62378662  0.62361520  1
  V  V28  1  0.25303453  0.61559683  0.87869321  1
  V  V29  1  0.39351228  0.49686760  0.87664215  1
  V  V30  1  0.49883001  0.62882964  0.62332602  1
  V  V31  1  0.87470404  0.74925172  0.12319092  1
  V  V32  1  0.12865868  0.24607312  0.87195699  1
  V  V33  1  0.25312956  0.24786558  0.50661839  1
  V  V34  1  0.24168681  0.74442642  0.50091478  1
  V  V35  1  0.25265907  0.24620015  -0.00534565  1
  V  V36  1  0.61497011  -0.00275302  0.62519668  1
  V  V37  1  0.12931541  0.00032676  0.12347574  1
  V  V38  1  0.00206133  -0.00096904  -0.00233573  1
  V  V39  1  0.38544040  0.75688768  0.13500371  1
  V  V40  1  0.61823621  0.24223636  0.88265507  1
  V  V41  1  0.74355357  0.87049457  0.62262911  1
  V  V42  1  0.75400400  0.50469174  0.75085901  1
  V  V43  1  0.37666145  0.36895746  0.50910926  1
  V  V44  1  0.87219108  0.50014827  0.37888795  1
  V  V45  1  0.75734104  0.25249546  0.00048906  1
  V  V46  1  0.62336071  0.12062563  0.50295190  1
  V  V47  1  0.87250098  0.12432258  0.75115679  1
  V  V48  1  0.25069820  0.38126057  0.12152061  1
  V  V49  1  0.87366997  -0.00081800  0.37523129  1
  V  V50  1  0.87280002  0.74120333  0.62399081  1
  V  V51  1  -0.00068589  0.87305702  0.37338661  1
  V  V52  1  0.37501632  0.75174889  0.62143000  1
  V  V53  1  0.12818994  0.61707575  0.00666930  1
  V  V54  1  0.74784137  0.87756489  0.11814264  1
  V  V55  1  0.25300237  0.87625012  0.62001791  1
  V  V56  1  0.12358490  0.00071679  0.62457192  1
  V  V57  1  0.74824536  0.00047746  0.24797582  1
  V  V58  1  0.62719209  0.63765771  0.49764965  1
  V  V59  1  0.86755153  0.86896277  0.50010682  1
  V  V60  1  0.50447523  0.49941652  0.49860764  1
  V  V61  1  0.74445392  0.00192057  0.75101913  1
  V  V62  1  0.61399801  0.86197450  0.75494136  1
  V  V63  1  0.87495103  0.26469443  0.12095636  1
  V  V64  1  0.24529129  0.50039113  0.74139786  1
  V  V65  1  0.37933958  0.62682805  0.75063201  1
  V  V66  1  0.50222531  0.61779497  0.13237255  1
  V  V67  1  0.75127803  0.12817435  0.38138174  1
  V  V68  1  0.63250841  0.37073298  0.24822332  1
  V  V69  1  -0.00130025  0.74395610  0.75172518  1
  V  V70  1  -0.00262297  0.25156933  0.75000802  1
  V  V71  1  0.24007129  0.62149458  0.37718399  1
  V  V72  1  0.61436681  0.86966756  0.25093212  1
  V  V73  1  0.50195961  0.01003393  -0.00011162  1
  V  V74  1  0.00882516  0.50249596  0.50524754  1
  V  V75  1  0.12975819  0.74803215  0.87791089  1
  V  V76  1  0.74670420  0.37087539  0.62593562  1
  V  V77  1  0.12745402  0.24729199  0.37571536  1
  V  V78  1  0.25176065  0.00935845  0.75387041  1
  V  V79  1  0.50400310  0.24305917  0.24587370  1
  V  V80  1  0.12095868  0.37967334  0.74380770  1
  V  V81  1  0.37816278  0.12357700  0.25242756  1
  V  V82  1  0.87030915  0.37329303  0.50151290  1
  V  V83  1  0.00400696  0.62133722  0.12603018  1
  V  V84  1  0.25518980  0.00020797  0.25613260  1
  Zn  Zn85  1  0.00245083  0.74828507  0.25152453  1
  Zn  Zn86  1  0.24764199  0.50289534  0.24351264  1
  Zn  Zn87  1  0.50010081  0.87117095  0.88640637  1
  Zn  Zn88  1  0.12244079  0.74625837  0.37908996  1
  Zn  Zn89  1  0.25691677  0.87710361  0.12163799  1
  Zn  Zn90  1  0.24803685  0.37523403  0.62450030  1
  Zn  Zn91  1  0.82129016  0.66375615  0.80302836  1
  Zn  Zn92  1  0.00100817  0.37431647  0.37703771  1
  Zn  Zn93  1  0.67574942  0.72704226  -0.08018647  1
  Zn  Zn94  1  0.37671283  0.62924168  0.25516616  1
  Zn  Zn95  1  -0.00330690  0.37252591  0.87891759  1
  Zn  Zn96  1  0.74536215  0.12143998  0.88151903  1
  Zn  Zn97  1  0.12473025  0.12477930  0.49854377  1
  Zn  Zn98  1  0.00191932  0.87401310  0.87466339  1
  Zn  Zn99  1  0.62542006  0.49948827  0.62639957  1
  Zn  Zn100  1  -0.00266511  0.12460720  0.62341086  1
  Zn  Zn101  1  0.61955970  0.58877777  -0.01913949  1
  Zn  Zn102  1  0.60521456  0.74505120  0.35346382  1
  Zn  Zn103  1  0.25768109  0.12118885  0.38055664  1
  Zn  Zn104  1  0.36996684  0.13223540  0.75203951  1
  Zn  Zn105  1  0.13164122  0.12171892  -0.00841706  1
  Zn  Zn106  1  0.87417734  0.00218248  0.87630247  1
  Zn  Zn107  1  0.19262676  0.18882893  0.18510460  1
  Zn  Zn108  1  0.18326113  0.18867036  0.68397818  1
  Zn  Zn109  1  0.19190395  0.68648661  0.18930958  1
  Zn  Zn110  1  0.19134918  0.68838021  0.69161083  1
  Zn  Zn111  1  0.69470192  0.19052866  0.18753586  1
  Zn  Zn112  1  0.68315107  0.18930851  0.69063630  1
  Zn  Zn113  1  0.68352376  0.69284097  0.09653288  1
  Zn  Zn114  1  0.68202095  0.68993132  0.67931684  1
  Zn  Zn115  1  0.31260176  0.31092559  0.31407412  1
  Zn  Zn116  1  0.31117860  0.31804856  0.81340579  1
  Zn  Zn117  1  0.31535836  0.81497608  0.31729010  1
  Zn  Zn118  1  0.35160966  0.78946206  0.83954587  1
  Zn  Zn119  1  0.81524607  0.31118432  0.31254060  1
  Zn  Zn120  1  0.80950925  0.31480041  0.81590174  1
  Zn  Zn121  1  0.80998608  0.81282297  0.30618137  1
  Zn  Zn122  1  0.81231654  0.82843736  0.81104010  1
  Zn  Zn123  1  0.18890448  0.43154486  0.43568772  1
  Zn  Zn124  1  0.18758435  0.43232698  0.93469410  1
  Zn  Zn125  1  0.19071971  0.93469706  0.43765911  1
  Zn  Zn126  1  0.19300688  0.93464485  0.93594921  1
  Zn  Zn127  1  0.68987801  0.43847714  0.43702816  1
  Zn  Zn128  1  0.69507742  0.42840332  0.93648425  1
  Zn  Zn129  1  0.68072336  0.93730633  0.43658870  1
  Zn  Zn130  1  0.68316465  0.93633538  0.93715372  1
  Zn  Zn131  1  0.31501652  0.06615624  0.06533188  1
  Zn  Zn132  1  0.31176386  0.06322117  0.56299053  1
  Zn  Zn133  1  0.32374179  0.56302914  0.06189811  1
  Zn  Zn134  1  0.31263184  0.56193301  0.55802130  1
  Zn  Zn135  1  0.81279060  0.06735840  0.06002679  1
  Zn  Zn136  1  0.80771815  0.05916356  0.56375399  1
  Zn  Zn137  1  0.80820765  0.56435821  0.05479622  1
  Zn  Zn138  1  0.81030283  0.56068852  0.56268007  1
  Zn  Zn139  1  0.43931782  0.43108449  0.18909673  1
  Zn  Zn140  1  0.43873971  0.44144642  0.68869841  1
  Zn  Zn141  1  0.44057150  0.94069062  0.18545323  1
  Zn  Zn142  1  0.43524124  0.93859016  0.68626418  1
  Zn  Zn143  1  0.94304866  0.43962796  0.18935400  1
  Zn  Zn144  1  0.93501457  0.44031579  0.68922377  1
  Zn  Zn145  1  0.94002978  0.93799456  0.18571736  1
  Zn  Zn146  1  0.93597801  0.93426066  0.68684172  1
  Zn  Zn147  1  0.06547998  0.06150513  0.31194558  1
  Zn  Zn148  1  0.06077468  0.06551679  0.81125936  1
  Zn  Zn149  1  0.05997874  0.55879619  0.31439723  1
  Zn  Zn150  1  0.05988675  0.56253070  0.81610952  1
  Zn  Zn151  1  0.56214034  0.05962364  0.31216725  1
  Zn  Zn152  1  0.55549057  0.06332025  0.81160980  1
  Zn  Zn153  1  0.56394441  0.56218080  0.30832081  1
  Zn  Zn154  1  0.56973781  0.57161948  0.80618965  1
  Zn  Zn155  1  0.43928197  0.18349191  0.43826575  1
  Zn  Zn156  1  0.43703146  0.18301777  0.93410823  1
  Zn  Zn157  1  0.42891704  0.68508303  0.43519786  1
  Zn  Zn158  1  0.48496257  0.68409639  0.93786834  1
  Zn  Zn159  1  0.93896905  0.18797577  0.43815086  1
  Zn  Zn160  1  0.93785468  0.18671757  0.93642964  1
  Zn  Zn161  1  0.93973667  0.68642252  0.43966458  1
  Zn  Zn162  1  0.93829395  0.68546339  0.93934328  1
  Zn  Zn163  1  0.06762197  0.31071345  0.06331250  1
  Zn  Zn164  1  0.05981355  0.31403590  0.56329139  1
  Zn  Zn165  1  0.06572560  0.80916588  0.06292442  1
  Zn  Zn166  1  0.06031884  0.81344529  0.56307966  1
  Zn  Zn167  1  0.56713320  0.30994480  0.06308899  1
  Zn  Zn168  1  0.56444030  0.31124662  0.56533265  1
  Zn  Zn169  1  0.55522608  0.82450952  0.06506327  1
  Zn  Zn170  1  0.53174296  0.79867359  0.51297593  1
  O  O171  1  0.12089801  0.11349318  0.12558575  1
  O  O172  1  0.11955380  0.11128222  0.62241802  1
  O  O173  1  0.11752365  0.62874500  0.11857367  1
  O  O174  1  0.11589480  0.62923325  0.62659873  1
  O  O175  1  0.63096895  0.11399638  0.13045472  1
  O  O176  1  0.62236515  0.11896833  0.61872945  1
  O  O177  1  0.61520881  0.60848191  0.13978850  1
  O  O178  1  0.61591033  0.61977867  0.61598382  1
  O  O179  1  0.38075472  0.37878942  0.38452005  1
  O  O180  1  0.37347281  0.38970390  0.88075081  1
  O  O181  1  0.37611887  0.88074776  0.38343416  1
  O  O182  1  0.37354276  0.89976039  0.86610004  1
  O  O183  1  0.87622069  0.38002300  0.38473648  1
  O  O184  1  0.87866497  0.39052631  0.87143061  1
  O  O185  1  0.87619655  0.87961291  0.38111037  1
  O  O186  1  0.88236600  0.88288883  0.88452183  1
  O  O187  1  0.24093010  0.00351954  0.35972934  1
  O  O188  1  0.25698392  0.00177251  0.86814511  1
  O  O189  1  0.25686337  0.50423503  0.37717408  1
  O  O190  1  0.25259952  0.50772837  0.86926271  1
  O  O191  1  0.75379935  0.00864721  0.36740709  1
  O  O192  1  0.74977125  0.00067446  0.86310463  1
  O  O193  1  0.76120536  0.50257117  0.36962009  1
  O  O194  1  0.76027186  0.49922643  0.87001482  1
  O  O195  1  0.26052325  0.48570429  0.12418333  1
  O  O196  1  0.25433387  0.50127010  0.63814237  1
  O  O197  1  0.24399444  0.99803635  0.13135742  1
  O  O198  1  0.24234441  0.99418899  0.62888965  1
  O  O199  1  0.74620577  0.50142411  0.13894244  1
  O  O200  1  0.75130754  0.48740055  0.63255417  1
  O  O201  1  0.74451433  0.99829528  0.12983900  1
  O  O202  1  0.74171844  0.99264579  0.63416859  1
  O  O203  1  0.00982783  0.36755068  0.25166607  1
  O  O204  1  0.00465439  0.36985093  0.75010335  1
  O  O205  1  0.00846848  0.87581567  0.25615072  1
  O  O206  1  0.01021167  0.86428406  0.74797264  1
  O  O207  1  0.50862628  0.36240433  0.25847038  1
  O  O208  1  0.51100143  0.36962723  0.74216915  1
  O  O209  1  0.51511421  0.87911710  0.24578153  1
  O  O210  1  0.51398258  0.87963459  0.74812598  1
  O  O211  1  0.49706254  0.13632878  0.25268580  1
  O  O212  1  0.49972753  0.13728962  0.74132229  1
  O  O213  1  0.49580385  0.62495088  0.24165216  1
  O  O214  1  0.48993064  0.61926674  0.73574474  1
  O  O215  1  0.99722909  0.12971783  0.24407561  1
  O  O216  1  0.98876367  0.13061531  0.74552958  1
  O  O217  1  0.99435347  0.62340052  0.24294016  1
  O  O218  1  1.00567243  0.63650316  0.74209921  1
  O  O219  1  0.37168608  0.25548163  0.00317870  1
  O  O220  1  0.36696927  0.25751067  0.49432770  1
  O  O221  1  0.36434160  0.73820938  0.01650560  1
  O  O222  1  0.35874521  0.74254009  0.51562478  1
  O  O223  1  0.86952979  0.24820619  0.00731791  1
  O  O224  1  0.87874331  0.25621210  0.51237831  1
  O  O225  1  0.88434171  0.76370444  0.00735105  1
  O  O226  1  0.88047213  0.76286874  0.50658954  1
  O  O227  1  0.12903987  0.25039851  0.49238632  1
  O  O228  1  0.13428384  0.25000343  0.99031487  1
  O  O229  1  0.13615360  0.75486670  0.50018152  1
  O  O230  1  0.13430268  0.73755724  0.99653704  1
  O  O231  1  0.62676205  0.24589267  0.48859282  1
  O  O232  1  0.63285786  0.25263760  0.98763350  1
  O  O233  1  0.63292856  0.73701149  0.50872072  1
  O  O234  1  0.63074740  0.75849735  1.01792568  1
  O  O235  1  0.49416257  0.25394299  0.13410337  1
  O  O236  1  0.50790579  0.24213405  0.63664671  1
  O  O237  1  0.48797600  0.74226487  0.12491605  1
  O  O238  1  0.48882379  0.73696787  0.61105691  1
  O  O239  1  0.99597469  0.24434515  0.12834736  1
  O  O240  1  0.98925923  0.24746948  0.63108681  1
  O  O241  1  0.99274952  0.73953301  0.12588151  1
  O  O242  1  0.99417135  0.74290346  0.62988717  1
  O  O243  1  0.00726832  0.25168003  0.36929484  1
  O  O244  1  0.00496823  0.25326950  0.86793984  1
  O  O245  1  0.00260820  0.75745052  0.37380977  1
  O  O246  1  0.00765812  0.74952192  0.86695879  1
  O  O247  1  0.51119914  0.25299914  0.36942940  1
  O  O248  1  0.51272014  0.24831005  0.87010646  1
  O  O249  1  0.50780640  0.75611481  0.40766333  1
  O  O250  1  0.45746085  0.76619179  0.87422418  1
  O  O251  1  0.24524920  0.13301903  0.49822130  1
  O  O252  1  0.24911599  0.14183727  1.00700062  1
  O  O253  1  0.24925987  0.63096112  0.49201433  1
  O  O254  1  0.24638048  0.62689603  0.99710782  1
  O  O255  1  0.74079268  0.12165641  0.49128723  1
  O  O256  1  0.75519385  0.13954936  0.99527713  1
  O  O257  1  0.73805778  0.61256371  0.48849120  1
  O  O258  1  0.72691065  0.62570633  1.00961283  1
  O  O259  1  0.25750024  0.36659711  0.00501189  1
  O  O260  1  0.25929119  0.36893126  0.50255241  1
  O  O261  1  0.24658698  0.85462719  0.00173482  1
  O  O262  1  0.24646663  0.86886989  0.51410218  1
  O  O263  1  0.75325816  0.35390831  -0.00149377  1
  O  O264  1  0.76163603  0.37964019  0.50863644  1
  O  O265  1  0.76077071  0.88499882  0.01073130  1
  O  O266  1  0.75697277  0.88282073  0.50966365  1
  O  O267  1  0.12640554  0.48346261  0.25634441  1
  O  O268  1  0.13286064  0.49224354  0.75780319  1
  O  O269  1  0.13082767  0.99183726  0.24219555  1
  O  O270  1  0.12614767  0.99465592  0.74390763  1
  O  O271  1  0.63488837  0.48818992  0.24821798  1
  O  O272  1  0.63279848  0.49272143  0.75100848  1
  O  O273  1  0.63330099  0.99803707  0.24056311  1
  O  O274  1  0.63028362  0.99773558  0.74416667  1
  O  O275  1  0.36729796  0.01092880  0.23955577  1
  O  O276  1  0.36422743  0.00521855  0.75348025  1
  O  O277  1  0.37366243  0.49225737  0.26510519  1
  O  O278  1  0.36755588  0.50457587  0.75923657  1
  O  O279  1  0.86960776  0.00570193  0.25421406  1
  O  O280  1  0.86700044  0.00719827  0.74776930  1
  O  O281  1  0.87186312  0.50211032  0.25899217  1
  O  O282  1  0.86471204  0.49918909  0.75974023  1
  O  O283  1  0.12402068  0.36212182  0.36745889  1
  O  O284  1  0.12232996  0.36409686  0.86377297  1
  O  O285  1  0.11920535  0.87419859  0.36643038  1
  O  O286  1  0.12522594  0.86786597  0.86717837  1
  O  O287  1  0.62349544  0.36625266  0.36963773  1
  O  O288  1  0.62863506  0.36408407  0.86495269  1
  O  O289  1  0.63684075  0.87324684  0.35485739  1
  O  O290  1  0.62342418  0.87235714  0.86154476  1
  O  O291  1  0.37181242  0.14075732  0.13472311  1
  O  O292  1  0.38790839  0.12369062  0.62698776  1
  O  O293  1  0.38551139  0.62882987  0.13252623  1
  O  O294  1  0.37996150  0.62679095  0.63051423  1
  O  O295  1  0.88449791  0.12933496  0.13177183  1
  O  O296  1  0.87109754  0.13204943  0.63183622  1
  O  O297  1  0.88001924  0.63346203  0.12677653  1
  O  O298  1  0.87800190  0.63871226  0.61665878  1
  O  O299  1  0.25984062  0.26022011  0.11813056  1
  O  O300  1  0.24522987  0.25283677  0.61127092  1
  O  O301  1  0.25942666  0.74957057  0.11741356  1
  O  O302  1  0.25224185  0.75724039  0.62119983  1
  O  O303  1  0.76210116  0.24597883  0.11427522  1
  O  O304  1  0.75547088  0.26221392  0.63157796  1
  O  O305  1  0.76740243  0.76447682  0.13087542  1
  O  O306  1  0.75830606  0.76230860  0.62980128  1
  O  O307  1  0.24251871  0.24925967  0.38531784  1
  O  O308  1  0.24308906  0.25547201  0.88256043  1
  O  O309  1  0.24920405  0.74080533  0.38403917  1
  O  O310  1  0.25555460  0.73537073  0.88788206  1
  O  O311  1  0.74435228  0.23613079  0.36827830  1
  O  O312  1  0.74178702  0.24699048  0.88192669  1
  O  O313  1  0.75057814  0.73710978  0.36893899  1
  O  O314  1  0.76824272  0.74231327  0.86436776  1
  O  O315  1  0.00434306  0.11682437  0.00550237  1
  O  O316  1  -0.00112285  0.11027396  0.50092663  1
  O  O317  1  0.00960311  0.61754019  0.00730847  1
  O  O318  1  -0.00155755  0.61105786  0.50669886  1
  O  O319  1  0.49808400  0.11232496  0.00014218  1
  O  O320  1  0.51478622  0.13385230  0.50928285  1
  O  O321  1  0.50677112  0.61792120  0.02429327  1
  O  O322  1  0.50635891  0.61434145  0.50312480  1
  O  O323  1  0.49635573  0.37852991  0.49579926  1
  O  O324  1  0.48820208  0.36971020  1.00326649  1
  O  O325  1  0.48591241  0.89973730  0.51505577  1
  O  O326  1  0.50062526  0.89859699  1.00133191  1
  O  O327  1  0.98709994  0.38474636  0.50277912  1
  O  O328  1  1.00935055  0.39012653  1.00355445  1
  O  O329  1  0.99196992  0.88367108  0.49490028  1
  O  O330  1  0.99623224  0.88236905  1.00107483  1
  O  O331  1  0.49516993  0.49326457  0.38015735  1
  O  O332  1  0.49124200  0.50106521  0.86759293  1
  O  O333  1  0.50121658  0.99580444  0.37960175  1
  O  O334  1  0.49167034  0.99904541  0.88264616  1
  O  O335  1  0.98828753  0.49845511  0.38604508  1
  O  O336  1  0.99307971  0.49560660  0.88414857  1
  O  O337  1  0.99412857  0.99431051  0.38093945  1
  O  O338  1  1.00267722  0.99943805  0.88787656  1
  O  O339  1  0.00867821  0.00429729  0.11541335  1
  O  O340  1  0.00550975  -0.00224764  0.61700932  1
  O  O341  1  -0.00596033  0.51365454  0.11763512  1
  O  O342  1  -0.00690846  0.50951973  0.61421995  1
  O  O343  1  0.51477289  0.00352925  0.12050921  1
  O  O344  1  0.51107600  0.01297549  0.63529092  1
  O  O345  1  0.50963988  0.50469853  0.13612463  1
  O  O346  1  0.49953136  0.50944431  0.61475640  1
  O  O347  1  0.24479300  0.37386235  0.24138178  1
  O  O348  1  0.24237435  0.38375040  0.74703915  1
  O  O349  1  0.24416203  0.88214863  0.24720786  1
  O  O350  1  0.23442882  0.88655194  0.73812226  1
  O  O351  1  0.74294171  0.38170247  0.25770036  1
  O  O352  1  0.74201692  0.38297735  0.74453845  1
  O  O353  1  0.75344959  0.88971322  0.23823639  1
  O  O354  1  0.74105628  0.88511131  0.74097900  1
  O  O355  1  0.25900771  0.11835568  0.25040902  1
  O  O356  1  0.24792864  0.11289750  0.74126623  1
  O  O357  1  0.25376230  0.61930128  0.25939212  1
  O  O358  1  0.25500480  0.61753584  0.75956656  1
  O  O359  1  0.75587638  0.11579064  0.25696160  1
  O  O360  1  0.75548437  0.11772686  0.74985205  1
  O  O361  1  0.76105367  0.61080140  0.26238692  1
  O  O362  1  0.74335895  0.61011548  0.73821440  1
  O  O363  1  0.37402259  0.13569057  0.35697247  1
  O  O364  1  0.37733226  0.10994476  0.86762547  1
  O  O365  1  0.36418960  0.61362340  0.37435189  1
  O  O366  1  0.37086406  0.61121676  0.86755491  1
  O  O367  1  0.86841903  0.12035960  0.37150197  1
  O  O368  1  0.87328433  0.12238336  0.86158180  1
  O  O369  1  0.87002847  0.61760618  0.37377340  1
  O  O370  1  0.88749142  0.60561383  0.87396322  1
  O  O371  1  0.13775598  0.36865224  0.13405242  1
  O  O372  1  0.12536071  0.37205872  0.63913069  1
  O  O373  1  0.12585686  0.88533872  0.13152636  1
  O  O374  1  0.12755231  0.88485437  0.63001589  1
  O  O375  1  0.62148266  0.37672645  0.14189317  1
  O  O376  1  0.63315418  0.37717080  0.63245210  1
  O  O377  1  0.63572200  0.88872575  0.13440596  1
  O  O378  1  0.63203425  0.88389170  0.63436886  1
  O  O379  1  0.12282056  0.25543450  0.25560446  1
  O  O380  1  0.11810995  0.25532638  0.75373650  1
  O  O381  1  0.12529486  0.76314856  0.24929961  1
  O  O382  1  0.12253444  0.75722733  0.75736365  1
  O  O383  1  0.62304749  0.25274268  0.25760677  1
  O  O384  1  0.61855144  0.25776640  0.76082294  1
  O  O385  1  0.62961081  0.76985044  0.24138242  1
  O  O386  1  0.62375987  0.76356963  0.74429685  1
  O  O387  1  0.38481555  0.24859186  0.24203517  1
  O  O388  1  0.38888529  0.25346555  0.75796010  1
  O  O389  1  0.36828905  0.74891621  0.23738259  1
  O  O390  1  0.36282326  0.73166196  0.73610752  1
  O  O391  1  0.88201216  0.24419969  0.24363427  1
  O  O392  1  0.87593832  0.24411496  0.74218725  1
  O  O393  1  0.87987714  0.74380399  0.24165432  1
  O  O394  1  0.88448504  0.75143236  0.74119654  1
  O  O395  1  0.38562276  0.49323204  0.49045647  1
  O  O396  1  0.37526558  0.49345949  0.98447489  1
  O  O397  1  0.37201773  1.01360215  0.48299434  1
  O  O398  1  0.37812162  1.00585415  0.99062151  1
  O  O399  1  0.87968989  0.49265315  0.49479298  1
  O  O400  1  0.88204784  0.50144468  0.99040515  1
  O  O401  1  0.88000863  0.99067568  0.49702647  1
  O  O402  1  0.88565888  0.99176711  1.00223602  1
  O  O403  1  0.12297574  0.00015159  0.00631982  1
  O  O404  1  0.11651842  -0.00186247  0.50652981  1
  O  O405  1  0.11993320  0.51127121  -0.00669514  1
  O  O406  1  0.10652735  0.48845857  0.49514511  1
  O  O407  1  0.62233267  0.00222895  0.01235133  1
  O  O408  1  0.62992461  0.00922887  0.51159583  1
  O  O409  1  0.62980293  0.47999988  0.01880007  1
  O  O410  1  0.61339228  0.50123443  0.49871438  1
  O  O411  1  0.37143567  0.36588316  0.11786307  1
  O  O412  1  0.37506864  0.38064460  0.61169774  1
  O  O413  1  0.37664970  0.86077287  0.12709910  1
  O  O414  1  0.36357239  0.86396508  0.63570654  1
  O  O415  1  0.88055885  0.36319490  0.13125427  1
  O  O416  1  0.86833174  0.36747737  0.62084203  1
  O  O417  1  0.87205838  0.87057225  0.11863073  1
  O  O418  1  0.86704408  0.86733158  0.61819266  1
  O  O419  1  0.12608211  0.13694421  0.37518842  1
  O  O420  1  0.12167910  0.14045299  0.87327509  1
  O  O421  1  0.13546170  0.62513252  0.37042582  1
  O  O422  1  0.13518424  0.62949804  0.88225334  1
  O  O423  1  0.63163451  0.12946706  0.38207036  1
  O  O424  1  0.62650173  0.13991170  0.86756741  1
  O  O425  1  0.63216275  0.62793523  0.37870077  1
  O  O426  1  0.59354677  0.64617250  0.88609505  1
