# generated using pymatgen
data_V85Zn86O256
_symmetry_space_group_name_H-M   'P 1'
_cell_length_a   16.91657908
_cell_length_b   16.92727436
_cell_length_c   16.93209079
_cell_angle_alpha   89.99469160
_cell_angle_beta   90.00885045
_cell_angle_gamma   90.04815677
_symmetry_Int_Tables_number   1
_chemical_formula_structural   V85Zn86O256
_chemical_formula_sum   'V85 Zn86 O256'
_cell_volume   4848.52908071
_cell_formula_units_Z   1
loop_
 _symmetry_equiv_pos_site_id
 _symmetry_equiv_pos_as_xyz
  1  'x, y, z'
loop_
 _atom_site_type_symbol
 _atom_site_label
 _atom_site_symmetry_multiplicity
 _atom_site_fract_x
 _atom_site_fract_y
 _atom_site_fract_z
 _atom_site_occupancy
  V  V0  1  0.24581469  0.24523116  0.00264105  1
  V  V1  1  -0.00468674  0.62460258  0.63014944  1
  V  V2  1  0.25125474  0.62458690  0.87345253  1
  V  V3  1  0.12413540  0.74896174  0.87505474  1
  V  V4  1  0.50261651  0.12410214  0.11056159  1
  V  V5  1  0.62902987  0.38214174  0.74937306  1
  V  V6  1  0.61729424  0.00590184  0.62799260  1
  V  V7  1  0.87708838  0.87593071  0.00686067  1
  V  V8  1  0.24955038  0.00009011  0.75388088  1
  V  V9  1  0.74542737  0.12460782  0.88419923  1
  V  V10  1  0.14200665  -0.00520291  0.11956382  1
  V  V11  1  0.13913135  0.87310117  0.25352381  1
  V  V12  1  -0.00792215  0.49592204  0.00032558  1
  V  V13  1  0.61923018  0.88049947  0.25504398  1
  V  V14  1  0.74717496  -0.00086517  0.75121326  1
  V  V15  1  -0.00741128  0.37497077  0.87874215  1
  V  V16  1  0.74692705  0.87510251  0.62159043  1
  V  V17  1  0.37455051  0.49878184  0.87544951  1
  V  V18  1  0.25063875  0.75857476  0.00182326  1
  V  V19  1  -0.00323604  0.62982229  0.13158692  1
  V  V20  1  0.89094848  0.12589862  0.25060730  1
  V  V21  1  0.37521182  0.37591734  0.49801752  1
  V  V22  1  0.38960243  -0.00258727  0.87698139  1
  V  V23  1  0.00028632  0.25215559  0.74983517  1
  V  V24  1  0.75109699  0.38334194  0.62543521  1
  V  V25  1  0.49933108  -0.00058879  0.49717789  1
  V  V26  1  0.62114967  0.00340987  0.11190622  1
  V  V27  1  0.12639878  0.64118887  0.49670935  1
  V  V28  1  0.61057097  0.75095862  0.87222449  1
  V  V29  1  0.74226493  0.62132249  0.36760055  1
  V  V30  1  0.12478325  -0.00054394  0.62641812  1
  V  V31  1  0.60966517  0.87409330  0.75505155  1
  V  V32  1  0.25173279  0.12548192  0.37194142  1
  V  V33  1  0.87809519  -0.00044780  0.88042580  1
  V  V34  1  0.00031927  0.87608766  0.88088398  1
  V  V35  1  0.87263439  0.25238338  0.62229318  1
  V  V36  1  0.12290470  0.24411051  0.87876520  1
  V  V37  1  0.75159864  0.74972945  -0.00734769  1
  V  V38  1  0.38741046  0.62720451  0.74911735  1
  V  V39  1  0.24927061  0.49455656  0.25020400  1
  V  V40  1  0.13358166  0.12804914  0.50091552  1
  V  V41  1  -0.00007010  0.50037068  0.49842655  1
  V  V42  1  0.24738425  0.37145286  0.61898002  1
  V  V43  1  0.37069553  0.25389745  0.12663137  1
  V  V44  1  0.86135518  0.50544168  0.87017990  1
  V  V45  1  0.24941122  0.49991632  0.74757268  1
  V  V46  1  0.49970506  0.62949956  0.60889976  1
  V  V47  1  0.24759934  0.86613406  0.62381916  1
  V  V48  1  0.87537760  -0.00624071  0.37520573  1
  V  V49  1  0.87308269  0.50908705  0.35965486  1
  V  V50  1  0.00806426  0.11407971  0.10688071  1
  V  V51  1  0.12289935  0.87205350  0.75203569  1
  V  V52  1  0.50290533  0.62500884  0.12460826  1
  V  V53  1  0.12670515  0.36588042  0.24513900  1
  V  V54  1  0.63205345  0.62471018  -0.00288502  1
  V  V55  1  0.62525429  0.50682691  0.61708503  1
  V  V56  1  0.74900119  0.12770760  0.37469031  1
  V  V57  1  0.88465256  0.24959809  0.12295372  1
  V  V58  1  0.50077053  0.24921349  0.74365527  1
  V  V59  1  0.62375741  0.24945608  0.88382591  1
  V  V60  1  0.49948194  0.75521180  0.25538565  1
  V  V61  1  0.62165565  0.75005833  0.38269262  1
  V  V62  1  0.63020986  0.37322301  0.25109452  1
  V  V63  1  -0.00157684  -0.00072995  0.50005063  1
  V  V64  1  0.37695267  0.12619679  0.74798030  1
  V  V65  1  -0.00339593  0.37071353  0.36961239  1
  V  V66  1  0.37224679  0.75932558  0.12542039  1
  V  V67  1  0.37442927  0.12231812  0.24736931  1
  V  V68  1  0.63288293  0.50067554  0.13270086  1
  V  V69  1  0.87281395  0.12497622  0.75099888  1
  V  V70  1  0.36836235  0.37615960  0.00325122  1
  V  V71  1  0.49838187  0.37897550  0.87443665  1
  V  V72  1  0.37589817  -0.00245486  0.37011374  1
  V  V73  1  0.37258815  0.24624081  0.61809402  1
  V  V74  1  0.38992901  0.87764510  -0.00431313  1
  V  V75  1  0.37148190  0.62326639  0.24872795  1
  V  V76  1  0.37286688  0.87438724  0.49788371  1
  V  V77  1  0.12654346  0.62309277  0.00044990  1
  V  V78  1  -0.00054689  0.12559096  0.62517270  1
  V  V79  1  0.12950329  0.49526465  0.12308302  1
  V  V80  1  0.12312107  0.24889207  0.37604928  1
  V  V81  1  0.38071032  0.75416191  0.63367804  1
  V  V82  1  0.75861285  0.37520083  0.12157532  1
  V  V83  1  0.62022063  0.12842255  0.50361466  1
  V  V84  1  0.74803884  0.00182463  0.24708978  1
  Zn  Zn85  1  0.86462219  0.73806169  0.13178301  1
  Zn  Zn86  1  0.87273561  0.37606944  0.49425083  1
  Zn  Zn87  1  0.74778294  0.73977263  0.50160349  1
  Zn  Zn88  1  0.24557323  0.12212790  0.87801262  1
  Zn  Zn89  1  0.12424546  0.37510183  0.74914445  1
  Zn  Zn90  1  0.01570085  0.86546244  0.38023725  1
  Zn  Zn91  1  0.74779230  0.25179537  0.50040291  1
  Zn  Zn92  1  -0.00318256  0.75290353  0.26384830  1
  Zn  Zn93  1  0.24004180  0.63219335  0.37548283  1
  Zn  Zn94  1  -0.00918380  0.74679414  0.75405304  1
  Zn  Zn95  1  0.85197906  0.62624343  0.75249656  1
  Zn  Zn96  1  0.37512596  0.49444694  0.37440013  1
  Zn  Zn97  1  0.86830129  0.74862339  0.62865027  1
  Zn  Zn98  1  0.50202795  0.49853546  0.00182218  1
  Zn  Zn99  1  0.75365335  0.24988303  0.00171576  1
  Zn  Zn100  1  0.12512025  0.49930677  0.62135107  1
  Zn  Zn101  1  0.50576373  0.37372457  0.37596699  1
  Zn  Zn102  1  0.62390399  0.25073603  0.37447567  1
  Zn  Zn103  1  0.74851753  0.87429782  0.12582852  1
  Zn  Zn104  1  0.50165547  0.25013975  0.25102959  1
  Zn  Zn105  1  0.50043439  0.50410619  0.49225118  1
  Zn  Zn106  1  0.87458762  0.86940140  0.50279930  1
  Zn  Zn107  1  0.18742286  0.18185465  0.18620433  1
  Zn  Zn108  1  0.18822091  0.18878646  0.69004705  1
  Zn  Zn109  1  0.18510160  0.69040254  0.18770561  1
  Zn  Zn110  1  0.18505008  0.68463245  0.68599435  1
  Zn  Zn111  1  0.69011640  0.18854680  0.18592410  1
  Zn  Zn112  1  0.68800144  0.19070923  0.69060094  1
  Zn  Zn113  1  0.68961777  0.69063208  0.19001940  1
  Zn  Zn114  1  0.67832149  0.69120944  0.68515624  1
  Zn  Zn115  1  0.30759564  0.30806373  0.31284763  1
  Zn  Zn116  1  0.30959031  0.31191879  0.81111100  1
  Zn  Zn117  1  0.30483008  0.80877247  0.31775636  1
  Zn  Zn118  1  0.31511835  0.81412487  0.81489586  1
  Zn  Zn119  1  0.81345262  0.31083919  0.30480851  1
  Zn  Zn120  1  0.81200681  0.31519632  0.81268209  1
  Zn  Zn121  1  0.81224877  0.80748326  0.31064494  1
  Zn  Zn122  1  0.80711424  0.81085046  0.81080113  1
  Zn  Zn123  1  0.18822462  0.44026383  0.43542203  1
  Zn  Zn124  1  0.18411491  0.43127286  0.93631588  1
  Zn  Zn125  1  0.19231229  0.94044287  0.43763260  1
  Zn  Zn126  1  0.18987558  0.93834607  0.94147943  1
  Zn  Zn127  1  0.69219385  0.43974598  0.43771120  1
  Zn  Zn128  1  0.68624731  0.43266780  0.94635152  1
  Zn  Zn129  1  0.68496419  0.93870993  0.43588737  1
  Zn  Zn130  1  0.68765829  0.93252230  0.93598843  1
  Zn  Zn131  1  0.31551379  0.06310588  0.05849934  1
  Zn  Zn132  1  0.31182443  0.06045181  0.56487783  1
  Zn  Zn133  1  0.31167462  0.56461186  0.06391959  1
  Zn  Zn134  1  0.31132090  0.56247881  0.56179157  1
  Zn  Zn135  1  0.81573309  0.06266323  0.06441717  1
  Zn  Zn136  1  0.80822175  0.06202817  0.56235933  1
  Zn  Zn137  1  0.81336260  0.55911987  0.06067752  1
  Zn  Zn138  1  0.81237258  0.56351675  0.55392067  1
  Zn  Zn139  1  0.44245442  0.43672141  0.18701961  1
  Zn  Zn140  1  0.43929278  0.44030101  0.68360995  1
  Zn  Zn141  1  0.43648056  0.93969272  0.18528291  1
  Zn  Zn142  1  0.43667936  0.94332362  0.68579153  1
  Zn  Zn143  1  0.94277715  0.43559827  0.18667561  1
  Zn  Zn144  1  0.93611512  0.43959419  0.69004324  1
  Zn  Zn145  1  0.94599144  0.93365434  0.19323033  1
  Zn  Zn146  1  0.93545563  0.93543564  0.69172178  1
  Zn  Zn147  1  0.06907766  0.04963859  0.31020986  1
  Zn  Zn148  1  0.06027721  0.06207775  0.81552456  1
  Zn  Zn149  1  0.06333565  0.56225400  0.31386758  1
  Zn  Zn150  1  0.06240896  0.55903884  0.81368052  1
  Zn  Zn151  1  0.55880056  0.06643146  0.31120206  1
  Zn  Zn152  1  0.56225343  0.06769186  0.81194192  1
  Zn  Zn153  1  0.55906358  0.56155974  0.31297100  1
  Zn  Zn154  1  0.67767856  0.56179018  0.81384486  1
  Zn  Zn155  1  0.44166561  0.18923630  0.43586083  1
  Zn  Zn156  1  0.43319154  0.18980449  0.93316334  1
  Zn  Zn157  1  0.40890561  0.69843769  0.42813492  1
  Zn  Zn158  1  0.43834424  0.68516487  0.94023930  1
  Zn  Zn159  1  0.93971975  0.18544181  0.43671648  1
  Zn  Zn160  1  0.93663006  0.18667726  0.94033674  1
  Zn  Zn161  1  0.93205700  0.69032058  0.44047996  1
  Zn  Zn162  1  0.93755133  0.68541206  0.94129873  1
  Zn  Zn163  1  0.05887845  0.30897304  0.06368702  1
  Zn  Zn164  1  0.06243907  0.31386573  0.55857850  1
  Zn  Zn165  1  0.06614952  0.81698788  0.06577620  1
  Zn  Zn166  1  0.05695871  0.81024065  0.56450681  1
  Zn  Zn167  1  0.55903751  0.31424692  0.06580664  1
  Zn  Zn168  1  0.56130519  0.31413911  0.56220160  1
  Zn  Zn169  1  0.56582096  0.81281149  0.06674445  1
  Zn  Zn170  1  0.55776236  0.81713703  0.56540002  1
  O  O171  1  0.11420847  0.11301402  0.13072388  1
  O  O172  1  0.12128464  0.12114508  0.61887269  1
  O  O173  1  0.11804410  0.61600788  0.11804584  1
  O  O174  1  0.11353363  0.62190291  0.61670687  1
  O  O175  1  0.61017670  0.12102823  0.12831857  1
  O  O176  1  0.63220982  0.11777866  0.61752683  1
  O  O177  1  0.62135005  0.62020874  0.12139740  1
  O  O178  1  0.61139668  0.61891370  0.62241187  1
  O  O179  1  0.36801207  0.36993926  0.38984163  1
  O  O180  1  0.38029552  0.37714171  0.88022589  1
  O  O181  1  0.36782670  0.88727658  0.38583416  1
  O  O182  1  0.37524294  0.88466458  0.88177021  1
  O  O183  1  0.88121250  0.38059063  0.37135341  1
  O  O184  1  0.88453836  0.38475493  0.87243371  1
  O  O185  1  0.86572411  0.88989331  0.38074092  1
  O  O186  1  0.88040266  0.88072414  0.88183130  1
  O  O187  1  0.26264155  0.01583145  0.38163365  1
  O  O188  1  0.25300462  -0.00035015  0.86362462  1
  O  O189  1  0.25282978  0.50704327  0.36369842  1
  O  O190  1  0.25497925  0.50226212  0.86853195  1
  O  O191  1  0.75487127  0.01047311  0.36968830  1
  O  O192  1  0.75347656  0.00631799  0.86980698  1
  O  O193  1  0.76233315  0.50735107  0.37344113  1
  O  O194  1  0.75706324  0.49612511  0.87865037  1
  O  O195  1  0.23585426  0.50400785  0.12956821  1
  O  O196  1  0.24887787  0.49236696  0.63303994  1
  O  O197  1  0.24102495  1.00815918  0.12542473  1
  O  O198  1  0.24519615  0.99249344  0.63744373  1
  O  O199  1  0.74489517  0.49086774  0.12163738  1
  O  O200  1  0.74397276  0.49049988  0.61896486  1
  O  O201  1  0.74154219  1.00334794  0.13294129  1
  O  O202  1  0.73856172  0.99692359  0.63202300  1
  O  O203  1  0.01183754  0.37875834  0.26253518  1
  O  O204  1  0.00041829  0.36860998  0.75772202  1
  O  O205  1  0.01493169  0.87621559  0.25899821  1
  O  O206  1  0.00492185  0.87199397  0.76178922  1
  O  O207  1  0.51667877  0.37183562  0.24580892  1
  O  O208  1  0.50390673  0.37004750  0.75629331  1
  O  O209  1  0.50597807  0.86735663  0.24562299  1
  O  O210  1  0.51051437  0.88050365  0.74615990  1
  O  O211  1  0.48738766  0.12853305  0.24274357  1
  O  O212  1  0.49025926  0.13674439  0.75229648  1
  O  O213  1  0.49770504  0.63195319  0.23691558  1
  O  O214  1  0.48537789  0.62048262  0.73612727  1
  O  O215  1  0.99172978  0.11884449  0.25408231  1
  O  O216  1  0.99282370  0.13082800  0.74430890  1
  O  O217  1  1.00951266  0.62611172  0.23364945  1
  O  O218  1  1.00335381  0.62156011  0.73620114  1
  O  O219  1  0.36814742  0.25728916  0.00505429  1
  O  O220  1  0.37963229  0.25197279  0.51401281  1
  O  O221  1  0.37080922  0.75471558  0.00559223  1
  O  O222  1  0.38508400  0.77053185  0.51817643  1
  O  O223  1  0.87462263  0.24427648  0.01656682  1
  O  O224  1  0.87575635  0.24885619  0.51261096  1
  O  O225  1  0.86780891  0.75665441  0.00318807  1
  O  O226  1  0.86610716  0.75319185  0.51033354  1
  O  O227  1  0.11901871  0.23810873  0.49093927  1
  O  O228  1  0.13473752  0.25723752  0.99322405  1
  O  O229  1  0.12549723  0.74001475  0.50465192  1
  O  O230  1  0.13379719  0.74581364  0.99596007  1
  O  O231  1  0.62650296  0.24162441  0.49981239  1
  O  O232  1  0.62380858  0.25643343  0.98627244  1
  O  O233  1  0.61985452  0.76115947  0.48466758  1
  O  O234  1  0.62908581  0.74583679  0.99279559  1
  O  O235  1  0.48997313  0.23983659  0.12528096  1
  O  O236  1  0.49114862  0.25633245  0.63768328  1
  O  O237  1  0.49462952  0.74387824  0.13303117  1
  O  O238  1  0.49331465  0.74338575  0.62761122  1
  O  O239  1  0.99661729  0.23240014  0.12361844  1
  O  O240  1  0.99334530  0.24555546  0.62875617  1
  O  O241  1  1.00212757  0.73277441  0.11663921  1
  O  O242  1  0.99619504  0.73651427  0.63017493  1
  O  O243  1  0.01086136  0.25613166  0.37669097  1
  O  O244  1  0.00148270  0.25602471  0.87230187  1
  O  O245  1  -0.00129033  0.75358029  0.37945294  1
  O  O246  1  0.00643956  0.75509488  0.87493363  1
  O  O247  1  0.50450998  0.25575921  0.36990371  1
  O  O248  1  0.50425283  0.25915874  0.86633051  1
  O  O249  1  0.50313061  0.74393293  0.36083315  1
  O  O250  1  0.51175989  0.74931656  0.87920631  1
  O  O251  1  0.23877791  0.12120788  0.49648307  1
  O  O252  1  0.25695903  0.14059972  0.99442459  1
  O  O253  1  0.22799734  0.61738767  0.50463669  1
  O  O254  1  0.24631385  0.63123977  0.99174554  1
  O  O255  1  0.73913490  0.12488839  0.49201945  1
  O  O256  1  0.75356231  0.12609092  0.98736752  1
  O  O257  1  0.75105886  0.62449158  0.47948575  1
  O  O258  1  0.73922184  0.63179366  1.00515817  1
  O  O259  1  0.26212566  0.36612616  -0.00536053  1
  O  O260  1  0.25439424  0.37954292  0.51239894  1
  O  O261  1  0.26018852  0.86122957  -0.00539899  1
  O  O262  1  0.25945162  0.88568364  0.51393239  1
  O  O263  1  0.74993626  0.36930705  0.01557488  1
  O  O264  1  0.75407958  0.37075152  0.50915136  1
  O  O265  1  0.75985442  0.86861761  0.00208243  1
  O  O266  1  0.74739134  0.88252463  0.51423249  1
  O  O267  1  0.13102134  0.49184305  0.24358567  1
  O  O268  1  0.13848063  0.49804963  0.74929193  1
  O  O269  1  0.12717931  0.98700572  0.23685626  1
  O  O270  1  0.13053346  0.99491359  0.74625813  1
  O  O271  1  0.62346398  0.49504322  0.23730687  1
  O  O272  1  0.62139485  0.48683297  0.74012247  1
  O  O273  1  0.62963128  0.99772432  0.24598970  1
  O  O274  1  0.62706288  0.99684507  0.74479277  1
  O  O275  1  0.37906135  0.00750823  0.25955107  1
  O  O276  1  0.36821635  0.00711164  0.75458401  1
  O  O277  1  0.36345470  0.50376082  0.23981035  1
  O  O278  1  0.36658800  0.50565144  0.75395861  1
  O  O279  1  0.86776920  0.00498151  0.25685123  1
  O  O280  1  0.86798855  0.00399794  0.76109624  1
  O  O281  1  0.88167644  0.49959092  0.26180759  1
  O  O282  1  0.87649870  0.50235809  0.76728049  1
  O  O283  1  0.12095836  0.36536763  0.37005975  1
  O  O284  1  0.11214614  0.36496344  0.87170658  1
  O  O285  1  0.13237925  0.88387249  0.36132110  1
  O  O286  1  0.11772129  0.87111653  0.87313686  1
  O  O287  1  0.63180605  0.37369245  0.36449929  1
  O  O288  1  0.61813369  0.37161519  0.86863354  1
  O  O289  1  0.62762246  0.87024466  0.36197209  1
  O  O290  1  0.62469079  0.86318269  0.86904352  1
  O  O291  1  0.38320817  0.12939900  0.12980617  1
  O  O292  1  0.36802302  0.13196163  0.63737902  1
  O  O293  1  0.38408501  0.63154030  0.12959994  1
  O  O294  1  0.37497107  0.63649309  0.62981909  1
  O  O295  1  0.88827911  0.12594210  0.13170018  1
  O  O296  1  0.87704033  0.13167302  0.63074507  1
  O  O297  1  0.89263883  0.62100520  0.11815105  1
  O  O298  1  0.88640658  0.61985460  0.62721500  1
  O  O299  1  0.26101433  0.24467608  0.11795532  1
  O  O300  1  0.25998530  0.25942994  0.63215734  1
  O  O301  1  0.26198467  0.73951075  0.11356144  1
  O  O302  1  0.25590883  0.76187115  0.63092345  1
  O  O303  1  0.76059739  0.25429638  0.12231493  1
  O  O304  1  0.75805682  0.25907939  0.62525185  1
  O  O305  1  0.74750313  0.75449543  0.11191133  1
  O  O306  1  0.74128958  0.76267201  0.62014977  1
  O  O307  1  0.23670449  0.23765464  0.37568348  1
  O  O308  1  0.23924432  0.25043833  0.88058275  1
  O  O309  1  0.29916812  0.72710763  0.39068960  1
  O  O310  1  0.24565726  0.74367165  0.88101644  1
  O  O311  1  0.75304761  0.23655287  0.37585897  1
  O  O312  1  0.74255921  0.24389557  0.87585380  1
  O  O313  1  0.73864295  0.74310980  0.37677854  1
  O  O314  1  0.73953631  0.75460364  0.88827086  1
  O  O315  1  0.00220553  0.11950636  0.00806170  1
  O  O316  1  0.00816249  0.11530890  0.50530261  1
  O  O317  1  0.00863594  0.61399350  0.00458004  1
  O  O318  1  0.00635347  0.61868665  0.51078363  1
  O  O319  1  0.49382621  0.12914513  0.01172040  1
  O  O320  1  0.51224484  0.11711410  0.49815330  1
  O  O321  1  0.50984304  0.62604146  0.01148362  1
  O  O322  1  0.48175918  0.62795512  0.50761042  1
  O  O323  1  0.48838393  0.37753753  0.50048631  1
  O  O324  1  0.48841926  0.37369520  0.99203068  1
  O  O325  1  0.49092662  0.89182636  0.50554679  1
  O  O326  1  0.48917238  0.87113735  1.00398317  1
  O  O327  1  0.99772008  0.38071348  0.48655683  1
  O  O328  1  1.00354114  0.38453284  0.99239405  1
  O  O329  1  0.99832862  0.88842249  0.50232841  1
  O  O330  1  0.99318334  0.86862917  0.98853992  1
  O  O331  1  0.49608135  0.49041162  0.37495978  1
  O  O332  1  0.49281815  0.48494791  0.87841756  1
  O  O333  1  0.48767174  1.00704533  0.38420561  1
  O  O334  1  0.48896313  1.00486928  0.87224231  1
  O  O335  1  0.99091108  0.49482562  0.37840654  1
  O  O336  1  0.99555234  0.49229961  0.88227783  1
  O  O337  1  0.99239749  0.99782083  0.38504895  1
  O  O338  1  0.98960674  0.99042180  0.87130410  1
  O  O339  1  0.00196382  0.01271206  0.12645249  1
  O  O340  1  0.00406431  0.00584690  0.62188510  1
  O  O341  1  0.00794493  0.50605494  0.11773180  1
  O  O342  1  0.00041073  0.50619642  0.61788031  1
  O  O343  1  0.50542335  0.01496589  0.12646413  1
  O  O344  1  0.51077524  0.00357090  0.61903110  1
  O  O345  1  0.50893217  0.50943195  0.12213382  1
  O  O346  1  0.50647604  0.51047161  0.62021158  1
  O  O347  1  0.24184363  0.38527628  0.25331001  1
  O  O348  1  0.25132200  0.38339999  0.74000492  1
  O  O349  1  0.24068257  0.86873254  0.24811191  1
  O  O350  1  0.24372878  0.88166093  0.74525024  1
  O  O351  1  0.73989557  0.37063351  0.23634355  1
  O  O352  1  0.73988485  0.37044824  0.74068927  1
  O  O353  1  0.74267826  0.88947732  0.24889553  1
  O  O354  1  0.73921796  0.88275525  0.74293106  1
  O  O355  1  0.26335125  0.12878433  0.25803915  1
  O  O356  1  0.25518995  0.11621336  0.75289032  1
  O  O357  1  0.25580018  0.61755823  0.24922259  1
  O  O358  1  0.25661922  0.61730466  0.75397583  1
  O  O359  1  0.75580563  0.11574808  0.25582406  1
  O  O360  1  0.75509349  0.12003815  0.75910596  1
  O  O361  1  0.75205725  0.63175186  0.26609644  1
  O  O362  1  0.74009721  0.61983915  0.74340264  1
  O  O363  1  0.36934591  0.12338590  0.36837431  1
  O  O364  1  0.37098717  0.11980524  0.86326143  1
  O  O365  1  0.39133557  0.61121191  0.35009143  1
  O  O366  1  0.37235793  0.61947191  0.86839581  1
  O  O367  1  0.87000061  0.11649643  0.36962611  1
  O  O368  1  0.86968842  0.11820847  0.87062353  1
  O  O369  1  0.86945841  0.61277336  0.37451147  1
  O  O370  1  0.87754067  0.60880597  0.87533479  1
  O  O371  1  0.11707101  0.38192130  0.13470262  1
  O  O372  1  0.13276351  0.37521593  0.62707620  1
  O  O373  1  0.12524869  0.88720701  0.13258927  1
  O  O374  1  0.12983398  0.87884699  0.63050283  1
  O  O375  1  0.63208302  0.38279500  0.12760369  1
  O  O376  1  0.63169229  0.38040322  0.63147078  1
  O  O377  1  0.62492415  0.88592730  0.13658681  1
  O  O378  1  0.62839146  0.88480610  0.63314718  1
  O  O379  1  0.13174577  0.25967338  0.25534518  1
  O  O380  1  0.11677709  0.25154889  0.75782930  1
  O  O381  1  0.12039372  0.76708990  0.24067063  1
  O  O382  1  0.12464024  0.75567355  0.75817854  1
  O  O383  1  0.62507070  0.25806746  0.25037253  1
  O  O384  1  0.61668253  0.25992129  0.75563786  1
  O  O385  1  0.61717038  0.76101308  0.25460430  1
  O  O386  1  0.62421177  0.75878987  0.76511643  1
  O  O387  1  0.37458679  0.24477006  0.24069808  1
  O  O388  1  0.38044911  0.24417424  0.74428764  1
  O  O389  1  0.38103290  0.74350326  0.24050281  1
  O  O390  1  0.37107923  0.74372148  0.74178303  1
  O  O391  1  0.87209164  0.23555815  0.23812508  1
  O  O392  1  0.87968930  0.24633049  0.74052587  1
  O  O393  1  0.88328251  0.76330246  0.23891899  1
  O  O394  1  0.87302963  0.74300050  0.74790728  1
  O  O395  1  0.37520994  0.48955922  0.49903469  1
  O  O396  1  0.37514087  0.49330995  0.99546346  1
  O  O397  1  0.38195385  0.99652814  0.49719838  1
  O  O398  1  0.36922272  0.99017188  0.98845144  1
  O  O399  1  0.88713619  0.49723852  0.48948402  1
  O  O400  1  0.88480685  0.50090988  0.98818083  1
  O  O401  1  0.88296763  1.00361234  0.49365228  1
  O  O402  1  0.86873750  0.99263568  0.98721161  1
  O  O403  1  0.12844195  -0.00559733  0.01774441  1
  O  O404  1  0.11858894  0.00682180  0.50702623  1
  O  O405  1  0.11934247  0.50102095  0.00620098  1
  O  O406  1  0.10988670  0.49903995  0.49899200  1
  O  O407  1  0.63008646  -0.00495250  0.01291286  1
  O  O408  1  0.61730124  0.00546974  0.50662906  1
  O  O409  1  0.62356299  0.50899719  0.00845487  1
  O  O410  1  0.62130677  0.49371101  0.51356813  1
  O  O411  1  0.38113917  0.36508540  0.11618731  1
  O  O412  1  0.36873319  0.36811443  0.61715826  1
  O  O413  1  0.37721818  0.86454518  0.11829108  1
  O  O414  1  0.36708702  0.87229541  0.62499549  1
  O  O415  1  0.87200004  0.36349859  0.13353935  1
  O  O416  1  0.86842002  0.36937158  0.62503395  1
  O  O417  1  0.87711969  0.88383539  0.11123681  1
  O  O418  1  0.86077423  0.87776748  0.62676822  1
  O  O419  1  0.13091184  0.12661463  0.37978123  1
  O  O420  1  0.12317173  0.13900610  0.87252037  1
  O  O421  1  0.12222527  0.62390568  0.39126043  1
  O  O422  1  0.13014568  0.62862625  0.88064154  1
  O  O423  1  0.63327049  0.12474238  0.38214100  1
  O  O424  1  0.63365997  0.13681775  0.86866876  1
  O  O425  1  0.63206692  0.63368442  0.36828819  1
  O  O426  1  0.62290267  0.63654868  0.88566296  1
