# generated using pymatgen
data_V85Zn86O256
_symmetry_space_group_name_H-M   'P 1'
_cell_length_a   16.95709359
_cell_length_b   16.94143955
_cell_length_c   16.95911888
_cell_angle_alpha   90.09572170
_cell_angle_beta   90.03418181
_cell_angle_gamma   90.13146542
_symmetry_Int_Tables_number   1
_chemical_formula_structural   V85Zn86O256
_chemical_formula_sum   'V85 Zn86 O256'
_cell_volume   4871.95406022
_cell_formula_units_Z   1
loop_
 _symmetry_equiv_pos_site_id
 _symmetry_equiv_pos_as_xyz
  1  'x, y, z'
loop_
 _atom_site_type_symbol
 _atom_site_label
 _atom_site_symmetry_multiplicity
 _atom_site_fract_x
 _atom_site_fract_y
 _atom_site_fract_z
 _atom_site_occupancy
  V  V0  1  0.49853785  0.50027819  0.00388879  1
  V  V1  1  0.00420491  0.26164145  0.25326781  1
  V  V2  1  0.88050622  0.87721486  -0.00037711  1
  V  V3  1  0.36956110  0.62224824  0.24893358  1
  V  V4  1  0.74907921  0.87268526  0.12245208  1
  V  V5  1  0.13117281  0.12480556  0.00070073  1
  V  V6  1  0.62120666  0.24969687  0.87548784  1
  V  V7  1  0.87856180  0.00026184  0.87890372  1
  V  V8  1  0.36690366  0.49883737  0.87705117  1
  V  V9  1  0.25124311  0.25117074  0.50286610  1
  V  V10  1  0.61763134  -0.00181588  0.12135536  1
  V  V11  1  0.62929222  0.62782417  -0.00708916  1
  V  V12  1  0.39202467  0.61691091  0.74953669  1
  V  V13  1  0.37184507  0.00258188  0.38042883  1
  V  V14  1  0.74873586  0.37321898  0.61632533  1
  V  V15  1  0.87582775  0.62633973  0.75090667  1
  V  V16  1  0.35941274  0.86526349  0.50283375  1
  V  V17  1  0.38198075  0.89425716  -0.00545481  1
  V  V18  1  0.00218367  0.25403350  0.75068690  1
  V  V19  1  0.24964904  0.62302420  0.37518798  1
  V  V20  1  0.62576961  0.75095449  0.38078436  1
  V  V21  1  0.74848648  -0.00369263  0.75061935  1
  V  V22  1  0.87009469  0.25052302  0.61850601  1
  V  V23  1  0.87477920  0.12573134  0.75172425  1
  V  V24  1  0.49867813  0.75236586  0.24695323  1
  V  V25  1  0.01010078  0.75269482  0.74850581  1
  V  V26  1  0.62526406  0.37332677  0.24583556  1
  V  V27  1  0.50021842  0.12382422  0.62874065  1
  V  V28  1  0.74841086  0.74814066  -0.01537588  1
  V  V29  1  0.62495052  -0.00630867  0.62928441  1
  V  V30  1  0.49885164  0.87680936  0.37621268  1
  V  V31  1  0.00536697  0.87527838  0.36373367  1
  V  V32  1  0.01052347  0.74305420  0.24162412  1
  V  V33  1  0.37477160  0.24897578  0.62576312  1
  V  V34  1  0.87597876  0.87218639  0.49651955  1
  V  V35  1  0.74848391  0.12509622  0.87543367  1
  V  V36  1  0.35658785  0.37070421  0.00534739  1
  V  V37  1  0.75076651  0.87348648  0.62334717  1
  V  V38  1  0.88341285  0.49039301  0.37115454  1
  V  V39  1  0.00251043  0.11358457  0.11800169  1
  V  V40  1  0.24873077  0.62572213  0.86356425  1
  V  V41  1  0.75205159  0.50004031  0.74617656  1
  V  V42  1  0.61617095  0.50810274  0.62560297  1
  V  V43  1  0.62058872  0.12281095  0.00119406  1
  V  V44  1  0.12246057  0.26774399  0.37563098  1
  V  V45  1  0.13581058  0.37850459  0.75003634  1
  V  V46  1  0.49604114  0.12382261  0.12203214  1
  V  V47  1  0.24975516  0.74979636  0.00075439  1
  V  V48  1  0.74771552  0.25079199  -0.00084280  1
  V  V49  1  -0.00047786  0.51244400  0.00438087  1
  V  V50  1  0.62362086  0.87425797  0.24846798  1
  V  V51  1  0.00024748  0.37811651  0.87582857  1
  V  V52  1  0.49677650  0.25197084  0.25434858  1
  V  V53  1  0.50019566  -0.00186174  0.50240588  1
  V  V54  1  0.25162317  0.48634209  0.24668134  1
  V  V55  1  0.49573868  0.37522947  0.88021148  1
  V  V56  1  0.87610114  0.25100030  0.12436661  1
  V  V57  1  0.62855437  0.24873514  0.38346037  1
  V  V58  1  0.75669950  0.61976696  0.37693177  1
  V  V59  1  0.86957353  0.50471709  0.87457252  1
  V  V60  1  -0.00009740  0.00026346  0.49878834  1
  V  V61  1  0.87667138  0.74325838  0.12453681  1
  V  V62  1  0.12696148  -0.01480093  0.63210840  1
  V  V63  1  0.50902685  0.87576631  0.86428419  1
  V  V64  1  0.74878061  0.00081889  0.24960078  1
  V  V65  1  0.13274826  0.50951644  0.63062141  1
  V  V66  1  0.00870187  0.87824632  0.87203450  1
  V  V67  1  0.35890038  0.25336321  0.12587375  1
  V  V68  1  0.00321004  0.12650155  0.62619410  1
  V  V69  1  0.38351718  0.74783569  0.63692625  1
  V  V70  1  0.88094753  0.74777851  0.61923154  1
  V  V71  1  0.57031890  0.56451180  0.45132606  1
  V  V72  1  0.13212274  0.75358818  0.37715166  1
  V  V73  1  0.87324256  -0.00092720  0.37412227  1
  V  V74  1  0.24396063  0.12869352  0.37821094  1
  V  V75  1  0.87335209  0.37644350  -0.00195888  1
  V  V76  1  0.87532997  0.12540941  0.25065990  1
  V  V77  1  0.37216100  0.12436584  0.25288603  1
  V  V78  1  0.24831669  0.11678323  0.86590133  1
  V  V79  1  0.00545438  0.49310508  0.49712013  1
  V  V80  1  0.37949598  0.39255029  0.49872432  1
  V  V81  1  0.12200313  0.49549064  0.13184822  1
  V  V82  1  0.49421726  0.24701087  0.75453820  1
  V  V83  1  0.23345249  -0.00243539  0.24850644  1
  V  V84  1  0.37257437  0.75429228  0.12169078  1
  Zn  Zn85  1  0.87889642  0.36998911  0.49467892  1
  Zn  Zn86  1  0.74868358  0.37564966  0.12375345  1
  Zn  Zn87  1  0.12991894  0.75463055  0.87371176  1
  Zn  Zn88  1  0.00131206  0.62269258  0.62051257  1
  Zn  Zn89  1  0.62179205  0.38039777  0.75106271  1
  Zn  Zn90  1  0.25488478  0.38126524  0.62926149  1
  Zn  Zn91  1  0.49878944  0.38766657  0.37923917  1
  Zn  Zn92  1  0.20396436  0.93727103  0.79455692  1
  Zn  Zn93  1  0.12847108  0.62760001  0.49954377  1
  Zn  Zn94  1  0.63245650  0.12787197  0.50581557  1
  Zn  Zn95  1  0.50045030  0.62734798  0.12165408  1
  Zn  Zn96  1  0.75382243  0.49961982  0.24603066  1
  Zn  Zn97  1  0.12603009  0.12774340  0.50458556  1
  Zn  Zn98  1  0.75385630  0.12985983  0.38480384  1
  Zn  Zn99  1  0.12523159  0.62677550  0.00160404  1
  Zn  Zn100  1  0.62878755  0.83480841  0.75747956  1
  Zn  Zn101  1  0.75081354  0.74605913  0.49526556  1
  Zn  Zn102  1  0.13560344  0.25686994  0.88609731  1
  Zn  Zn103  1  0.38576738  0.08411285  0.77587628  1
  Zn  Zn104  1  0.87768764  0.62242424  0.24661856  1
  Zn  Zn105  1  0.23946509  0.87507397  0.13384417  1
  Zn  Zn106  1  0.63086791  0.50131583  0.12237094  1
  Zn  Zn107  1  0.18039857  0.18399325  0.19074599  1
  Zn  Zn108  1  0.18790239  0.18760705  0.69150898  1
  Zn  Zn109  1  0.18515663  0.68084849  0.18316964  1
  Zn  Zn110  1  0.21721984  0.74734037  0.70118391  1
  Zn  Zn111  1  0.68710936  0.18889590  0.18958515  1
  Zn  Zn112  1  0.68447364  0.18731117  0.68883641  1
  Zn  Zn113  1  0.68842440  0.68453142  0.18464778  1
  Zn  Zn114  1  0.69918516  0.67899718  0.66702249  1
  Zn  Zn115  1  0.31688923  0.31526333  0.32092470  1
  Zn  Zn116  1  0.31163852  0.30295550  0.81959883  1
  Zn  Zn117  1  0.31177694  0.81535851  0.31192249  1
  Zn  Zn118  1  0.32780606  0.80822926  0.82138318  1
  Zn  Zn119  1  0.81005126  0.31253131  0.31053870  1
  Zn  Zn120  1  0.81148743  0.31494305  0.80814232  1
  Zn  Zn121  1  0.81342826  0.80931039  0.30844379  1
  Zn  Zn122  1  0.81725697  0.81339667  0.80811645  1
  Zn  Zn123  1  0.19634094  0.44288148  0.44097892  1
  Zn  Zn124  1  0.18355196  0.44183641  0.94020234  1
  Zn  Zn125  1  0.18364248  0.94096300  0.43823641  1
  Zn  Zn126  1  0.17387608  0.93641120  0.97715111  1
  Zn  Zn127  1  0.69502986  0.42841665  0.43152924  1
  Zn  Zn128  1  0.68506975  0.44035337  0.93566640  1
  Zn  Zn129  1  0.68832532  0.93907749  0.43903817  1
  Zn  Zn130  1  0.68526159  0.93544953  0.93764352  1
  Zn  Zn131  1  0.30651959  0.06748901  0.06667724  1
  Zn  Zn132  1  0.32995545  0.03780271  0.60241391  1
  Zn  Zn133  1  0.30751572  0.56331641  0.06528742  1
  Zn  Zn134  1  0.30577705  0.58018288  0.57270649  1
  Zn  Zn135  1  0.81088729  0.06236659  0.06299741  1
  Zn  Zn136  1  0.81238555  0.06411102  0.56212313  1
  Zn  Zn137  1  0.80939883  0.56348939  0.06231414  1
  Zn  Zn138  1  0.81505283  0.55963949  0.55686716  1
  Zn  Zn139  1  0.43448109  0.43552075  0.18721223  1
  Zn  Zn140  1  0.43547464  0.43776330  0.69249209  1
  Zn  Zn141  1  0.43013317  0.93873578  0.18705030  1
  Zn  Zn142  1  0.43999112  0.92462084  0.69063096  1
  Zn  Zn143  1  0.93844310  0.43886911  0.18430224  1
  Zn  Zn144  1  0.94167420  0.43753212  0.68345682  1
  Zn  Zn145  1  0.93688739  0.93393588  0.18680199  1
  Zn  Zn146  1  0.93884793  0.93724382  0.68853261  1
  Zn  Zn147  1  0.05936676  0.07163020  0.31429044  1
  Zn  Zn148  1  0.06490470  0.06417686  0.81670696  1
  Zn  Zn149  1  0.06559823  0.56159994  0.31141170  1
  Zn  Zn150  1  0.06262643  0.56582060  0.81175067  1
  Zn  Zn151  1  0.56142318  0.06522483  0.31179501  1
  Zn  Zn152  1  0.56172702  0.05482380  0.81600487  1
  Zn  Zn153  1  0.56548952  0.56659458  0.28924830  1
  Zn  Zn154  1  0.59892894  0.62788624  0.78689997  1
  Zn  Zn155  1  0.43755178  0.18810679  0.44263515  1
  Zn  Zn156  1  0.42646146  0.18372941  0.94225618  1
  Zn  Zn157  1  0.43374759  0.68783299  0.43214698  1
  Zn  Zn158  1  0.44148781  0.68843641  0.93509398  1
  Zn  Zn159  1  0.93977739  0.18807517  0.43646602  1
  Zn  Zn160  1  0.93947603  0.19130143  0.93732344  1
  Zn  Zn161  1  0.94508771  0.68112163  0.43288745  1
  Zn  Zn162  1  0.93538244  0.69254457  0.93280034  1
  Zn  Zn163  1  0.06319535  0.31308394  0.06406626  1
  Zn  Zn164  1  0.06571548  0.31721075  0.56449996  1
  Zn  Zn165  1  0.06661903  0.81643241  0.06238420  1
  Zn  Zn166  1  0.06177379  0.81148141  0.55485794  1
  Zn  Zn167  1  0.55499767  0.30910871  0.06441554  1
  Zn  Zn168  1  0.55868135  0.32079606  0.56570396  1
  Zn  Zn169  1  0.55841919  0.80989148  0.05352785  1
  Zn  Zn170  1  0.55851850  0.80918108  0.56508011  1
  O  O171  1  0.11095165  0.12832071  0.11632828  1
  O  O172  1  0.11116907  0.12489956  0.62646274  1
  O  O173  1  0.12860589  0.60613328  0.11785776  1
  O  O174  1  0.12485809  0.61211101  0.62515989  1
  O  O175  1  0.61659465  0.11897959  0.12329009  1
  O  O176  1  0.61685584  0.11666107  0.62550662  1
  O  O177  1  0.62037107  0.62155850  0.11576234  1
  O  O178  1  0.63096748  0.60622325  0.60758834  1
  O  O179  1  0.37953279  0.37994523  0.39222619  1
  O  O180  1  0.37751583  0.37841197  0.88317709  1
  O  O181  1  0.37897376  0.88343073  0.38405820  1
  O  O182  1  0.38720222  0.87908432  0.88812561  1
  O  O183  1  0.87000482  0.38565910  0.37573261  1
  O  O184  1  0.88111460  0.38278158  0.87686414  1
  O  O185  1  0.88151457  0.87987391  0.37724206  1
  O  O186  1  0.88081804  0.88301429  0.88033714  1
  O  O187  1  0.25146274  0.01088849  0.37203641  1
  O  O188  1  0.23066611  0.01073639  0.88126571  1
  O  O189  1  0.24101537  0.50872308  0.35647402  1
  O  O190  1  0.26019540  0.50855327  0.88315064  1
  O  O191  1  0.75599690  0.00081616  0.36669020  1
  O  O192  1  0.75726404  0.00486728  0.87047420  1
  O  O193  1  0.75946651  0.50446548  0.37181112  1
  O  O194  1  0.76241942  0.49363214  0.86475576  1
  O  O195  1  0.24063081  0.49957034  0.13815299  1
  O  O196  1  0.23617113  0.50051717  0.62620398  1
  O  O197  1  0.25159539  1.00764894  0.14767143  1
  O  O198  1  0.22090308  1.00741131  0.60914589  1
  O  O199  1  0.74993584  0.49349905  0.12716347  1
  O  O200  1  0.74802553  0.49124144  0.62838933  1
  O  O201  1  0.74222738  0.99422328  0.13124934  1
  O  O202  1  0.74494827  0.99235088  0.62964425  1
  O  O203  1  -0.00457255  0.35959197  0.24746698  1
  O  O204  1  0.00585562  0.37035242  0.75654334  1
  O  O205  1  -0.00316202  0.86746636  0.25890861  1
  O  O206  1  -0.00828660  0.86458506  0.75999409  1
  O  O207  1  0.50370897  0.36839285  0.25590763  1
  O  O208  1  0.49912570  0.36820549  0.76535668  1
  O  O209  1  0.50308623  0.87238999  0.25658840  1
  O  O210  1  0.50867657  0.86646413  0.75831399  1
  O  O211  1  0.49248497  0.13196990  0.24358531  1
  O  O212  1  0.49494806  0.12932632  0.74873243  1
  O  O213  1  0.48910242  0.63457703  0.24430928  1
  O  O214  1  0.48838665  0.61374486  0.76692486  1
  O  O215  1  0.98931520  0.13192341  0.24159478  1
  O  O216  1  0.99554441  0.13423753  0.74641885  1
  O  O217  1  0.99924067  0.64099373  0.25093056  1
  O  O218  1  0.99015166  0.63242919  0.74638945  1
  O  O219  1  0.37765253  0.25877024  0.01415378  1
  O  O220  1  0.36920857  0.25820665  0.50745762  1
  O  O221  1  0.37306540  0.74855677  0.01357504  1
  O  O222  1  0.37353712  0.76574825  0.48864700  1
  O  O223  1  0.86944340  0.25520739  0.00686861  1
  O  O224  1  0.88199928  0.24979558  0.51471950  1
  O  O225  1  0.86815290  0.75636855  0.00519121  1
  O  O226  1  0.88163915  0.75433426  0.50346774  1
  O  O227  1  0.13220279  0.25128845  0.49522175  1
  O  O228  1  0.10725176  0.23314707  0.99711015  1
  O  O229  1  0.11942446  0.74549897  0.48331485  1
  O  O230  1  0.13539326  0.74593834  0.99536730  1
  O  O231  1  0.61348979  0.25187646  0.48544848  1
  O  O232  1  0.62742400  0.24352325  0.99522821  1
  O  O233  1  0.62631507  0.75725977  0.48433230  1
  O  O234  1  0.63362158  0.73787826  1.00384572  1
  O  O235  1  0.49335488  0.24222150  0.13927188  1
  O  O236  1  0.49591685  0.24699501  0.63515845  1
  O  O237  1  0.49119328  0.75241827  0.13143514  1
  O  O238  1  0.47976700  0.73879269  0.60599103  1
  O  O239  1  0.99293566  0.24418433  0.13655327  1
  O  O240  1  0.99494523  0.24513123  0.63229100  1
  O  O241  1  0.99521488  0.75978356  0.13561525  1
  O  O242  1  0.99349747  0.75020853  0.62938222  1
  O  O243  1  0.00699496  0.24592843  0.36296793  1
  O  O244  1  -0.00373752  0.26431127  0.86693751  1
  O  O245  1  0.00703652  0.75681295  0.36106194  1
  O  O246  1  0.00212093  0.75978061  0.86549075  1
  O  O247  1  0.50526882  0.24767622  0.36450342  1
  O  O248  1  0.49821691  0.25282952  0.87201202  1
  O  O249  1  0.50706688  0.75605033  0.36722755  1
  O  O250  1  0.49973264  0.77535115  0.89271464  1
  O  O251  1  0.24921194  0.14142958  0.49336327  1
  O  O252  1  0.23522675  0.12305156  0.99711456  1
  O  O253  1  0.24946669  0.61668263  0.47964872  1
  O  O254  1  0.25386948  0.63666319  0.99302534  1
  O  O255  1  0.74586646  0.12294222  0.49798563  1
  O  O256  1  0.74303555  0.13116643  0.99458500  1
  O  O257  1  0.75504590  0.62698331  0.48367727  1
  O  O258  1  0.73905899  0.63410947  1.00384878  1
  O  O259  1  0.25770951  0.37360110  -0.00510323  1
  O  O260  1  0.26107627  0.36625746  0.50319043  1
  O  O261  1  0.26925019  0.85890749  -0.00943774  1
  O  O262  1  0.26168827  0.87945068  0.49666905  1
  O  O263  1  0.75533263  0.36774795  -0.00182205  1
  O  O264  1  0.75560923  0.37369899  0.51259904  1
  O  O265  1  0.75625548  0.86705640  0.00422806  1
  O  O266  1  0.75993298  0.87289443  0.50394102  1
  O  O267  1  0.13174626  0.49924148  0.23923136  1
  O  O268  1  0.11743313  0.49313061  0.73819731  1
  O  O269  1  0.13477469  1.00628034  0.25753566  1
  O  O270  1  0.12011079  0.99796956  0.73771666  1
  O  O271  1  0.62797144  0.48676906  0.24372932  1
  O  O272  1  0.63722434  0.51032197  0.73884161  1
  O  O273  1  0.62910741  0.99649216  0.24165591  1
  O  O274  1  0.63202485  1.00352352  0.73718461  1
  O  O275  1  0.37036964  0.00851811  0.26297176  1
  O  O276  1  0.36351703  0.00213930  0.70723470  1
  O  O277  1  0.36236445  0.50836311  0.24262265  1
  O  O278  1  0.37398903  0.50668784  0.76256570  1
  O  O279  1  0.86984835  0.00673013  0.25341040  1
  O  O280  1  0.86769314  0.00539248  0.75592726  1
  O  O281  1  0.87726007  0.50246998  0.25624662  1
  O  O282  1  0.87363074  0.50525364  0.75481314  1
  O  O283  1  0.13096553  0.36625802  0.38023019  1
  O  O284  1  0.11644289  0.37594796  0.86950664  1
  O  O285  1  0.11552867  0.86841539  0.37858040  1
  O  O286  1  0.11358439  0.88092781  0.88078399  1
  O  O287  1  0.62032196  0.36422853  0.36678610  1
  O  O288  1  0.61395658  0.36896189  0.87375076  1
  O  O289  1  0.62093001  0.86913847  0.36781385  1
  O  O290  1  0.61747943  0.87643443  0.86934525  1
  O  O291  1  0.38068482  0.13143094  0.13142787  1
  O  O292  1  0.38422004  0.14159669  0.61734001  1
  O  O293  1  0.37437666  0.63417571  0.13388088  1
  O  O294  1  0.38656894  0.61775292  0.64536605  1
  O  O295  1  0.87940517  0.13395791  0.13045193  1
  O  O296  1  0.88477614  0.12971729  0.63265450  1
  O  O297  1  0.87318356  0.63974144  0.12394540  1
  O  O298  1  0.87859085  0.63274119  0.62763891  1
  O  O299  1  0.26024873  0.24257842  0.13432640  1
  O  O300  1  0.25739900  0.25149161  0.62029631  1
  O  O301  1  0.25494110  0.75306322  0.12040500  1
  O  O302  1  0.28414852  0.72149563  0.61280482  1
  O  O303  1  0.75917044  0.24915934  0.11864988  1
  O  O304  1  0.75971577  0.25853928  0.63672826  1
  O  O305  1  0.75909363  0.75722892  0.12119117  1
  O  O306  1  0.76665544  0.75514916  0.61513039  1
  O  O307  1  0.24313130  0.24663337  0.38080075  1
  O  O308  1  0.24764746  0.22960543  0.87646736  1
  O  O309  1  0.23826206  0.74293644  0.36196908  1
  O  O310  1  0.25248638  0.74028972  0.88420080  1
  O  O311  1  0.73250965  0.24941520  0.37037957  1
  O  O312  1  0.74343220  0.24487080  0.87716149  1
  O  O313  1  0.74184254  0.74232633  0.37269971  1
  O  O314  1  0.75773142  0.75298362  0.88573056  1
  O  O315  1  -0.00982491  0.12889790  0.01748673  1
  O  O316  1  -0.00074444  0.11771418  0.50912985  1
  O  O317  1  -0.00318741  0.61445718  -0.00753228  1
  O  O318  1  0.00694422  0.61153084  0.50090753  1
  O  O319  1  0.50288054  0.13038091  0.01505575  1
  O  O320  1  0.50263497  0.11181827  0.50710831  1
  O  O321  1  0.50871754  0.61683416  0.00045732  1
  O  O322  1  0.50143220  0.61918764  0.49570493  1
  O  O323  1  0.48470169  0.37725225  0.49969537  1
  O  O324  1  0.49422777  0.37795506  0.99252103  1
  O  O325  1  0.49616751  0.88497317  0.49419552  1
  O  O326  1  0.48420392  0.88220542  1.00754281  1
  O  O327  1  0.99812526  0.38729173  0.50387333  1
  O  O328  1  0.99200887  0.38235363  0.99118858  1
  O  O329  1  0.99362394  0.88205538  0.48783136  1
  O  O330  1  0.98525549  0.86733410  0.98861416  1
  O  O331  1  0.51820018  0.50900272  0.38218618  1
  O  O332  1  0.48454492  0.48794817  0.89058130  1
  O  O333  1  0.49515768  0.99795288  0.38377217  1
  O  O334  1  0.50000697  0.98071726  0.87361040  1
  O  O335  1  0.99499498  0.50276513  0.38141465  1
  O  O336  1  0.99128769  0.49251194  0.87869884  1
  O  O337  1  0.99515584  0.99517909  0.37954367  1
  O  O338  1  0.98527447  0.99407691  0.86632387  1
  O  O339  1  -0.00766270  0.01576558  0.13015872  1
  O  O340  1  0.00449123  0.00678710  0.61864622  1
  O  O341  1  0.00758652  0.49988020  0.11642785  1
  O  O342  1  0.01074596  0.50088004  0.61686349  1
  O  O343  1  0.50716209  0.01076834  0.13460058  1
  O  O344  1  0.50953788  -0.00074398  0.61968689  1
  O  O345  1  0.49854128  0.49888803  0.11242827  1
  O  O346  1  0.51827795  0.49301401  0.63294949  1
  O  O347  1  0.25752487  0.38798933  0.25387770  1
  O  O348  1  0.23808934  0.36866882  0.75389726  1
  O  O349  1  0.25003413  0.89301705  0.25246480  1
  O  O350  1  0.24933979  0.84710782  0.75106062  1
  O  O351  1  0.73823387  0.37350473  0.24589722  1
  O  O352  1  0.74760622  0.38708351  0.74207533  1
  O  O353  1  0.74334018  0.87938621  0.24274384  1
  O  O354  1  0.74704031  0.87781783  0.74245900  1
  O  O355  1  0.25247079  0.12038922  0.26114995  1
  O  O356  1  0.24858676  0.12059907  0.76320035  1
  O  O357  1  0.25478832  0.61772950  0.25377777  1
  O  O358  1  0.26383931  0.63590974  0.76332926  1
  O  O359  1  0.76261351  0.12176541  0.25026262  1
  O  O360  1  0.75536285  0.11947934  0.75666951  1
  O  O361  1  0.75119934  0.62351054  0.26214029  1
  O  O362  1  0.76691690  0.61142892  0.73969196  1
  O  O363  1  0.36362498  0.12283961  0.37507497  1
  O  O364  1  0.35735076  0.11736341  0.87973312  1
  O  O365  1  0.36604406  0.63329181  0.35720509  1
  O  O366  1  0.37126395  0.61610047  0.87299767  1
  O  O367  1  0.87588042  0.11889033  0.36646021  1
  O  O368  1  0.87092523  0.11938120  0.87154976  1
  O  O369  1  0.87069587  0.61480507  0.37029456  1
  O  O370  1  0.87821128  0.61622857  0.86418091  1
  O  O371  1  0.12330845  0.39452402  0.11524955  1
  O  O372  1  0.12971460  0.38418623  0.63506969  1
  O  O373  1  0.14182919  0.89498216  0.08224830  1
  O  O374  1  0.11799852  0.88570968  0.62087823  1
  O  O375  1  0.62269547  0.37009367  0.13570877  1
  O  O376  1  0.63359390  0.38227972  0.62989381  1
  O  O377  1  0.62624089  0.88148076  0.12829845  1
  O  O378  1  0.63091657  0.87802399  0.62745132  1
  O  O379  1  0.11126177  0.24698400  0.25819663  1
  O  O380  1  0.11347524  0.25910250  0.75104905  1
  O  O381  1  0.11431370  0.75053601  0.25028850  1
  O  O382  1  0.11243992  0.74318222  0.75016152  1
  O  O383  1  0.61588585  0.25461570  0.25668312  1
  O  O384  1  0.61066332  0.25029446  0.75779769  1
  O  O385  1  0.61911111  0.75422572  0.25751881  1
  O  O386  1  0.63172676  0.72407913  0.74198833  1
  O  O387  1  0.38022596  0.24563947  0.24877441  1
  O  O388  1  0.38558911  0.25228324  0.74408435  1
  O  O389  1  0.37764083  0.74840920  0.23909219  1
  O  O390  1  0.38627617  0.73680289  0.74341040  1
  O  O391  1  0.88118180  0.24396162  0.24503631  1
  O  O392  1  0.88526635  0.24706515  0.74297712  1
  O  O393  1  0.88627864  0.75015919  0.24004131  1
  O  O394  1  0.88139902  0.74234004  0.74001769  1
  O  O395  1  0.36589440  0.48902308  0.51372489  1
  O  O396  1  0.37816336  0.49164248  0.99914077  1
  O  O397  1  0.38285872  0.98972318  0.50321630  1
  O  O398  1  0.36809257  0.99120166  1.00725843  1
  O  O399  1  0.88628435  0.49650389  0.49053227  1
  O  O400  1  0.87855173  0.49695361  0.99198534  1
  O  O401  1  0.88500394  0.99439806  0.49626858  1
  O  O402  1  0.86707933  0.99020261  0.99096057  1
  O  O403  1  0.10330229  0.02913967  -0.00864444  1
  O  O404  1  0.10913762  0.00358466  0.50340449  1
  O  O405  1  0.11342793  0.50395553  0.00506256  1
  O  O406  1  0.12250012  0.49891679  0.51251340  1
  O  O407  1  0.63067806  0.00600545  0.01465876  1
  O  O408  1  0.61808107  -0.00226379  0.51177864  1
  O  O409  1  0.61666215  0.50591916  0.00254790  1
  O  O410  1  0.62471962  0.49275859  0.50541129  1
  O  O411  1  0.37655438  0.36467230  0.11734123  1
  O  O412  1  0.37456352  0.36595696  0.62072787  1
  O  O413  1  0.36628437  0.87033127  0.11780266  1
  O  O414  1  0.37801752  0.85647432  0.61355778  1
  O  O415  1  0.87555872  0.36301366  0.11854552  1
  O  O416  1  0.86800095  0.36580644  0.62660532  1
  O  O417  1  0.87070305  0.86832527  0.11576194  1
  O  O418  1  0.87340073  0.86771193  0.61765343  1
  O  O419  1  0.13401850  0.13399154  0.37997503  1
  O  O420  1  0.12989155  0.13304550  0.88188583  1
  O  O421  1  0.13271682  0.63514191  0.37171416  1
  O  O422  1  0.13561770  0.62526593  0.87694926  1
  O  O423  1  0.62500746  0.13889587  0.37459276  1
  O  O424  1  0.62749036  0.12859788  0.88167591  1
  O  O425  1  0.62724204  0.62644330  0.38056003  1
  O  O426  1  0.62879620  0.61415225  0.89463825  1
