# generated using pymatgen
data_V85Zn86O256
_symmetry_space_group_name_H-M   'P 1'
_cell_length_a   16.92086373
_cell_length_b   16.93266877
_cell_length_c   16.92991311
_cell_angle_alpha   90.07462326
_cell_angle_beta   89.97295298
_cell_angle_gamma   89.97106495
_symmetry_Int_Tables_number   1
_chemical_formula_structural   V85Zn86O256
_chemical_formula_sum   'V85 Zn86 O256'
_cell_volume   4850.67522590
_cell_formula_units_Z   1
loop_
 _symmetry_equiv_pos_site_id
 _symmetry_equiv_pos_as_xyz
  1  'x, y, z'
loop_
 _atom_site_type_symbol
 _atom_site_label
 _atom_site_symmetry_multiplicity
 _atom_site_fract_x
 _atom_site_fract_y
 _atom_site_fract_z
 _atom_site_occupancy
  V  V0  1  0.75328831  0.87436588  0.12641185  1
  V  V1  1  0.37915233  0.75057233  0.62335976  1
  V  V2  1  0.25415865  0.62904946  0.36917983  1
  V  V3  1  0.62100396  -0.00436704  0.62041285  1
  V  V4  1  0.86747832  0.49608246  0.37653109  1
  V  V5  1  0.62750242  -0.00210916  0.12459032  1
  V  V6  1  0.37609394  0.62614941  0.74612985  1
  V  V7  1  -0.00141739  0.25931942  0.26073115  1
  V  V8  1  0.75790765  0.37486666  0.12847219  1
  V  V9  1  0.25109281  0.37701198  0.12256982  1
  V  V10  1  -0.00013510  0.62580733  0.62592402  1
  V  V11  1  0.63017909  0.74345152  0.37023997  1
  V  V12  1  0.61488315  0.24972165  0.87487961  1
  V  V13  1  0.74671549  0.74706643  -0.00191690  1
  V  V14  1  0.00421562  0.74747333  0.24525774  1
  V  V15  1  0.75800445  0.25315421  0.00173663  1
  V  V16  1  0.87887039  0.49968428  0.89106289  1
  V  V17  1  0.62421538  0.49699369  0.11775353  1
  V  V18  1  0.87938329  0.73985843  0.12352776  1
  V  V19  1  0.13579144  0.25719451  0.38238159  1
  V  V20  1  0.76018858  0.37277419  0.62462598  1
  V  V21  1  0.75260596  0.12357105  0.87821050  1
  V  V22  1  0.49883352  -0.00230129  0.49635245  1
  V  V23  1  0.86519139  0.87497999  0.49818721  1
  V  V24  1  0.11282220  0.50451270  0.12229632  1
  V  V25  1  0.50131036  0.38234566  0.37823543  1
  V  V26  1  0.37298087  0.25148447  0.12531313  1
  V  V27  1  0.37761886  0.50532672  0.37948713  1
  V  V28  1  0.39049222  0.13169680  0.74634404  1
  V  V29  1  0.01976353  0.08807711  0.15250715  1
  V  V30  1  -0.00077599  0.75795467  0.75144144  1
  V  V31  1  0.88259614  0.87256239  -0.00273578  1
  V  V32  1  0.87570252  -0.00786259  0.87102116  1
  V  V33  1  0.24930715  0.62254425  0.87839379  1
  V  V34  1  0.24856667  0.01405167  0.75372021  1
  V  V35  1  0.74973413  0.73685630  0.49984936  1
  V  V36  1  0.25169185  0.49971724  0.75111530  1
  V  V37  1  0.37274946  0.87530113  0.00220670  1
  V  V38  1  0.87664811  0.13101624  0.74321067  1
  V  V39  1  -0.00192570  -0.00019620  0.49924502  1
  V  V40  1  0.56487834  0.17469986  0.55767786  1
  V  V41  1  0.76451668  0.24365048  0.50312411  1
  V  V42  1  0.37390183  0.74794354  0.13355083  1
  V  V43  1  0.87074785  0.62483528  0.25634757  1
  V  V44  1  0.62841197  0.87286400  0.74437330  1
  V  V45  1  0.24933750  0.11056671  0.37882511  1
  V  V46  1  0.49522014  0.87502888  0.37103999  1
  V  V47  1  0.00285458  0.49543051  0.49045003  1
  V  V48  1  0.62336011  0.74275601  0.87234103  1
  V  V49  1  0.12766134  0.50144206  0.62479987  1
  V  V50  1  0.25516814  0.50546793  0.24710818  1
  V  V51  1  0.49884073  0.87614397  0.87488641  1
  V  V52  1  0.61768271  0.36882204  0.75399151  1
  V  V53  1  0.24927918  0.74960393  0.00102635  1
  V  V54  1  0.12252584  0.37514942  0.75266907  1
  V  V55  1  0.75034147  -0.00470498  0.74305417  1
  V  V56  1  0.75509300  0.49622928  0.75030013  1
  V  V57  1  0.23709693  0.88665813  0.13646419  1
  V  V58  1  0.00298401  0.00009105  -0.00862226  1
  V  V59  1  0.37267846  0.37030233  0.49917654  1
  V  V60  1  0.25181386  0.36536138  0.62375445  1
  V  V61  1  0.60675141  0.61896798  0.50203237  1
  V  V62  1  0.25040466  0.87790404  0.62943288  1
  V  V63  1  0.12530814  0.12281212  -0.00717158  1
  V  V64  1  0.12059379  0.75592687  0.87579038  1
  V  V65  1  0.39205574  0.49825213  0.87781081  1
  V  V66  1  0.49295260  0.61666490  0.12280337  1
  V  V67  1  0.49783306  0.75366268  0.74685365  1
  V  V68  1  0.62262699  0.24249020  0.37617621  1
  V  V69  1  0.37085169  0.00663249  0.87579379  1
  V  V70  1  -0.00279820  0.37542571  0.88839288  1
  V  V71  1  0.88684844  0.24873276  0.12325669  1
  V  V72  1  0.49988359  0.12336334  0.12678805  1
  V  V73  1  0.25001841  0.24787608  -0.00929979  1
  V  V74  1  0.12300770  0.00380752  0.62530903  1
  V  V75  1  0.24968316  0.75175164  0.50138344  1
  V  V76  1  0.12694659  0.62793712  0.49955149  1
  V  V77  1  0.49618232  0.25101924  0.25187638  1
  V  V78  1  0.62835308  0.12405665  0.00172777  1
  V  V79  1  0.12290787  0.37920979  0.25274834  1
  V  V80  1  0.11080207  0.62034843  0.00172069  1
  V  V81  1  0.12544490  0.75834695  0.36984172  1
  V  V82  1  0.87022069  0.75390481  0.62451323  1
  V  V83  1  0.36559757  0.11021539  0.24972734  1
  V  V84  1  0.38870914  0.37719458  -0.00396684  1
  Zn  Zn85  1  0.74924269  0.62134176  0.87290813  1
  Zn  Zn86  1  0.87167094  -0.00027085  0.37068238  1
  Zn  Zn87  1  0.87268542  0.12454560  0.25338334  1
  Zn  Zn88  1  0.49817846  0.74562958  0.24980388  1
  Zn  Zn89  1  0.88524060  0.37055882  0.49965267  1
  Zn  Zn90  1  -0.00038037  0.87387959  0.37327318  1
  Zn  Zn91  1  0.12121905  0.88109815  0.75661603  1
  Zn  Zn92  1  0.62490868  0.87270146  0.24906453  1
  Zn  Zn93  1  0.74495620  0.50351596  0.25301287  1
  Zn  Zn94  1  0.49971194  0.00075706  0.00014136  1
  Zn  Zn95  1  -0.00721266  0.25777906  0.74520621  1
  Zn  Zn96  1  0.75362874  0.00306148  0.25172002  1
  Zn  Zn97  1  0.74932088  0.11873452  0.37636446  1
  Zn  Zn98  1  0.62591362  0.37711276  0.25124955  1
  Zn  Zn99  1  0.12419298  0.24894349  0.87356112  1
  Zn  Zn100  1  0.37256026  0.88213603  0.49581285  1
  Zn  Zn101  1  0.12815144  0.13087640  0.50367665  1
  Zn  Zn102  1  0.87350699  0.62355399  0.75056655  1
  Zn  Zn103  1  0.62227192  0.50194346  0.61812802  1
  Zn  Zn104  1  -0.00548904  0.13533759  0.61853447  1
  Zn  Zn105  1  0.38332322  0.24658280  0.62477119  1
  Zn  Zn106  1  0.61730463  0.61529596  -0.00679069  1
  Zn  Zn107  1  0.18596869  0.18887617  0.18667805  1
  Zn  Zn108  1  0.18639239  0.18939368  0.68959982  1
  Zn  Zn109  1  0.18838502  0.68841115  0.18436613  1
  Zn  Zn110  1  0.18815168  0.68993290  0.69018447  1
  Zn  Zn111  1  0.68904360  0.18866240  0.18992743  1
  Zn  Zn112  1  0.69648503  0.18939927  0.69049683  1
  Zn  Zn113  1  0.68657935  0.68185679  0.18411939  1
  Zn  Zn114  1  0.68905711  0.68312639  0.68440967  1
  Zn  Zn115  1  0.31044859  0.31470140  0.31212524  1
  Zn  Zn116  1  0.31790502  0.31386120  0.81237498  1
  Zn  Zn117  1  0.31090637  0.81863826  0.31054505  1
  Zn  Zn118  1  0.30859784  0.81598324  0.81310008  1
  Zn  Zn119  1  0.81153752  0.31493104  0.31620955  1
  Zn  Zn120  1  0.81133812  0.31438139  0.81890434  1
  Zn  Zn121  1  0.81304033  0.81309510  0.31221784  1
  Zn  Zn122  1  0.81110632  0.81116258  0.81014570  1
  Zn  Zn123  1  0.19114514  0.44010002  0.43871843  1
  Zn  Zn124  1  0.18991651  0.43730549  0.93918105  1
  Zn  Zn125  1  0.18629399  0.93788754  0.44107396  1
  Zn  Zn126  1  0.18939797  0.93853776  0.94121756  1
  Zn  Zn127  1  0.68853695  0.43506960  0.43915546  1
  Zn  Zn128  1  0.68957755  0.43283631  0.93681937  1
  Zn  Zn129  1  0.68552973  0.93207601  0.43653818  1
  Zn  Zn130  1  0.68986202  0.93347463  0.93602264  1
  Zn  Zn131  1  0.30851288  0.06270661  0.06388735  1
  Zn  Zn132  1  0.31547963  0.06460736  0.56406549  1
  Zn  Zn133  1  0.31255802  0.56043729  0.05940544  1
  Zn  Zn134  1  0.31481585  0.56189890  0.56078200  1
  Zn  Zn135  1  0.82321746  0.06501037  0.06855154  1
  Zn  Zn136  1  0.80793478  0.06059379  0.56072889  1
  Zn  Zn137  1  0.80757992  0.56407584  0.06358281  1
  Zn  Zn138  1  0.81294312  0.56130647  0.56325835  1
  Zn  Zn139  1  0.43701853  0.43926740  0.18987997  1
  Zn  Zn140  1  0.44025334  0.43838321  0.68316953  1
  Zn  Zn141  1  0.43933844  0.93324082  0.18562248  1
  Zn  Zn142  1  0.43750662  0.94189709  0.68557071  1
  Zn  Zn143  1  0.93632426  0.43697461  0.18988985  1
  Zn  Zn144  1  0.93913136  0.43890622  0.68758525  1
  Zn  Zn145  1  0.94585329  0.93440555  0.19289479  1
  Zn  Zn146  1  0.93708346  0.93679195  0.68236240  1
  Zn  Zn147  1  0.06073911  0.06689007  0.32001667  1
  Zn  Zn148  1  0.06013436  0.06403010  0.81459174  1
  Zn  Zn149  1  0.06196640  0.56943686  0.30981898  1
  Zn  Zn150  1  0.05966127  0.56277898  0.81409090  1
  Zn  Zn151  1  0.56276741  0.06017311  0.31034786  1
  Zn  Zn152  1  0.56392779  0.06070380  0.81481809  1
  Zn  Zn153  1  0.56202495  0.56547378  0.30504937  1
  Zn  Zn154  1  0.54902126  0.54686382  0.77364366  1
  Zn  Zn155  1  0.42652490  0.19016441  0.43037224  1
  Zn  Zn156  1  0.43613269  0.18469722  0.93933182  1
  Zn  Zn157  1  0.43674238  0.69217241  0.43557945  1
  Zn  Zn158  1  0.43800649  0.68609392  0.93910276  1
  Zn  Zn159  1  0.94273554  0.18341718  0.43209449  1
  Zn  Zn160  1  0.94042965  0.18548204  0.93469518  1
  Zn  Zn161  1  0.93790643  0.68353113  0.43573639  1
  Zn  Zn162  1  0.93621962  0.68559471  0.93439656  1
  Zn  Zn163  1  0.06756109  0.31252790  0.06508879  1
  Zn  Zn164  1  0.06267603  0.31208671  0.56612137  1
  Zn  Zn165  1  0.06135411  0.81022782  0.06172868  1
  Zn  Zn166  1  0.06079421  0.81686105  0.56241143  1
  Zn  Zn167  1  0.56773518  0.31021271  0.06385731  1
  Zn  Zn168  1  0.56480193  0.33876321  0.56161090  1
  Zn  Zn169  1  0.55977833  0.80978069  0.06197697  1
  Zn  Zn170  1  0.56321712  0.81219716  0.55853540  1
  O  O171  1  0.10935747  0.13211171  0.11672506  1
  O  O172  1  0.12797893  0.11419783  0.62434086  1
  O  O173  1  0.13133669  0.61683189  0.11310898  1
  O  O174  1  0.12106030  0.62180845  0.62090209  1
  O  O175  1  0.62147130  0.11807246  0.12100068  1
  O  O176  1  0.62380997  0.12069288  0.62347861  1
  O  O177  1  0.61577607  0.61560054  0.11917865  1
  O  O178  1  0.62695944  0.62803388  0.60477551  1
  O  O179  1  0.37836503  0.38230050  0.38115531  1
  O  O180  1  0.37409432  0.38593354  0.88252594  1
  O  O181  1  0.38908792  0.86879195  0.37708268  1
  O  O182  1  0.37773251  0.88350431  0.88136180  1
  O  O183  1  0.87777502  0.39100327  0.37831028  1
  O  O184  1  0.88781428  0.38466294  0.87457459  1
  O  O185  1  0.87789482  0.87486271  0.38487287  1
  O  O186  1  0.86776375  0.88412732  0.88094086  1
  O  O187  1  0.23997924  0.01164918  0.36948483  1
  O  O188  1  0.25912292  -0.00635648  0.86541309  1
  O  O189  1  0.25519148  0.51016057  0.36822801  1
  O  O190  1  0.25406871  0.50847169  0.86923090  1
  O  O191  1  0.74873539  -0.00083087  0.37253946  1
  O  O192  1  0.75451527  0.00329470  0.86456826  1
  O  O193  1  0.76303104  0.49738622  0.37454351  1
  O  O194  1  0.76504458  0.49596059  0.87194860  1
  O  O195  1  0.24709381  0.49637062  0.13284312  1
  O  O196  1  0.24583563  0.49601075  0.63266913  1
  O  O197  1  0.25066605  0.98579763  0.12322173  1
  O  O198  1  0.24480611  0.99563882  0.63198022  1
  O  O199  1  0.74478069  0.49045235  0.12630342  1
  O  O200  1  0.74686327  0.49316677  0.63246190  1
  O  O201  1  0.74618160  0.99027320  0.12143322  1
  O  O202  1  0.73752485  1.00384154  0.63529699  1
  O  O203  1  0.01524105  0.37503188  0.25189708  1
  O  O204  1  0.00894907  0.37811106  0.75744047  1
  O  O205  1  -0.00471811  0.85298029  0.25577270  1
  O  O206  1  0.00145400  0.86230229  0.74505391  1
  O  O207  1  0.49862192  0.36730015  0.26012532  1
  O  O208  1  0.51906133  0.36897235  0.74753918  1
  O  O209  1  0.50421576  0.86953990  0.25587110  1
  O  O210  1  0.50570342  0.87210353  0.75531091  1
  O  O211  1  0.48802201  0.13107044  0.24818193  1
  O  O212  1  0.48896255  0.12050652  0.75076187  1
  O  O213  1  0.50059639  0.62877186  0.22962050  1
  O  O214  1  0.48147813  0.64103410  0.75917032  1
  O  O215  1  1.00042025  0.14554488  0.24928205  1
  O  O216  1  0.98377944  0.12368316  0.75099127  1
  O  O217  1  0.98680749  0.63590811  0.25174824  1
  O  O218  1  1.00070539  0.63239476  0.73839488  1
  O  O219  1  0.36796726  0.25338477  0.00538455  1
  O  O220  1  0.37704441  0.26490599  0.50225558  1
  O  O221  1  0.36858373  0.75819217  0.00456457  1
  O  O222  1  0.36751562  0.75266095  0.50863919  1
  O  O223  1  0.87101644  0.24145054  0.01065717  1
  O  O224  1  0.86715139  0.25261072  0.49361829  1
  O  O225  1  0.86897602  0.75327703  0.00290917  1
  O  O226  1  0.86880200  0.75215494  0.50462256  1
  O  O227  1  0.12554794  0.25262186  0.48536238  1
  O  O228  1  0.13257348  0.24357959  0.99855759  1
  O  O229  1  0.13048898  0.74659401  0.49474163  1
  O  O230  1  0.12913908  0.74106363  0.99299634  1
  O  O231  1  0.62107149  0.24448926  0.49958161  1
  O  O232  1  0.63520791  0.24165994  0.99580763  1
  O  O233  1  0.63008948  0.74128330  0.49152028  1
  O  O234  1  0.63209600  0.75354512  0.98884631  1
  O  O235  1  0.49570894  0.24388257  0.13398980  1
  O  O236  1  0.50963171  0.24182519  0.61102425  1
  O  O237  1  0.49023929  0.74310484  0.12572897  1
  O  O238  1  0.48616160  0.75715290  0.62875515  1
  O  O239  1  0.99144409  0.26433868  0.13661937  1
  O  O240  1  1.00400798  0.24714895  0.63283947  1
  O  O241  1  0.99082640  0.75069605  0.13050557  1
  O  O242  1  0.99559669  0.74335208  0.62990958  1
  O  O243  1  0.01696818  0.25058188  0.36764802  1
  O  O244  1  -0.00067835  0.26423133  0.86935432  1
  O  O245  1  0.01118624  0.74616028  0.36998868  1
  O  O246  1  0.00795637  0.74304997  0.86386352  1
  O  O247  1  0.50256677  0.25764484  0.36983905  1
  O  O248  1  0.51574027  0.24232484  0.88040064  1
  O  O249  1  0.50947627  0.75508119  0.37169899  1
  O  O250  1  0.50541993  0.75738356  0.87008178  1
  O  O251  1  0.25070674  0.12005089  0.48386587  1
  O  O252  1  0.23918729  0.13530321  1.00833187  1
  O  O253  1  0.24571617  0.63229560  0.49342501  1
  O  O254  1  0.24610497  0.62949243  0.98949165  1
  O  O255  1  0.74973685  0.14005645  0.49965335  1
  O  O256  1  0.74893583  0.13167270  1.00017421  1
  O  O257  1  0.74850312  0.63456223  0.49832306  1
  O  O258  1  0.74402175  0.63669014  0.99576916  1
  O  O259  1  0.25644788  0.36716228  0.00642300  1
  O  O260  1  0.25924771  0.38320942  0.51216691  1
  O  O261  1  0.26049750  0.86996542  0.00430424  1
  O  O262  1  0.25195119  0.87223588  0.51209792  1
  O  O263  1  0.74818694  0.35881283  0.00847858  1
  O  O264  1  0.75006202  0.36340075  0.50800154  1
  O  O265  1  0.75872153  0.86485223  0.00553455  1
  O  O266  1  0.76041068  0.86187297  0.49866460  1
  O  O267  1  0.13404656  0.49756569  0.24644308  1
  O  O268  1  0.13016887  0.49247620  0.74705141  1
  O  O269  1  0.05702818  1.01349391  0.21914957  1
  O  O270  1  0.13100293  1.00081793  0.74644751  1
  O  O271  1  0.62673501  0.49788167  0.23655103  1
  O  O272  1  0.64447423  0.48103382  0.76514211  1
  O  O273  1  0.62739752  0.99680437  0.23478432  1
  O  O274  1  0.63081728  0.99241294  0.74490835  1
  O  O275  1  0.37805752  0.01264777  0.24556143  1
  O  O276  1  0.36901639  0.00850205  0.75588670  1
  O  O277  1  0.36160828  0.49431893  0.26113486  1
  O  O278  1  0.36943724  0.50901379  0.75640812  1
  O  O279  1  0.87389851  0.00125076  0.25002815  1
  O  O280  1  0.86776833  0.00108240  0.75300510  1
  O  O281  1  0.87630797  0.50576032  0.26236973  1
  O  O282  1  0.86634272  0.50017856  0.75562710  1
  O  O283  1  0.13660962  0.36603840  0.36794357  1
  O  O284  1  0.11435141  0.37874631  0.86935867  1
  O  O285  1  0.12500041  0.86143518  0.37919245  1
  O  O286  1  0.13088490  0.85984567  0.87629037  1
  O  O287  1  0.61572001  0.36605871  0.37646325  1
  O  O288  1  0.63213749  0.36242116  0.86522264  1
  O  O289  1  0.61613127  0.85881969  0.37413862  1
  O  O290  1  0.62030885  0.86688124  0.86453786  1
  O  O291  1  0.37719131  0.13034355  0.13508035  1
  O  O292  1  0.37399781  0.12799855  0.64064821  1
  O  O293  1  0.38366273  0.63138119  0.11795841  1
  O  O294  1  0.36527878  0.63608207  0.63535328  1
  O  O295  1  0.89816325  0.13210965  0.13127895  1
  O  O296  1  0.87272414  0.11771756  0.64049931  1
  O  O297  1  0.87185594  0.63549147  0.12843102  1
  O  O298  1  0.88428903  0.63351195  0.62508880  1
  O  O299  1  0.25519694  0.25743590  0.11947515  1
  O  O300  1  0.25355017  0.26286531  0.62873526  1
  O  O301  1  0.25745725  0.75453477  0.11738788  1
  O  O302  1  0.25603203  0.75949496  0.62359054  1
  O  O303  1  0.76305797  0.25382867  0.12169330  1
  O  O304  1  0.74845373  0.25547193  0.61047933  1
  O  O305  1  0.75392010  0.75449105  0.11521744  1
  O  O306  1  0.76013287  0.74547895  0.61647909  1
  O  O307  1  0.23888468  0.24165234  0.36777919  1
  O  O308  1  0.24954742  0.25554093  0.88795349  1
  O  O309  1  0.24621850  0.74588195  0.37841308  1
  O  O310  1  0.24351821  0.74208227  0.87927671  1
  O  O311  1  0.73892903  0.25428267  0.39019810  1
  O  O312  1  0.74871525  0.24218265  0.88606201  1
  O  O313  1  0.73627444  0.75281569  0.38100737  1
  O  O314  1  0.74216822  0.74846541  0.88044517  1
  O  O315  1  0.00773899  0.11438567  -0.00098216  1
  O  O316  1  0.00563749  0.11576029  0.50205105  1
  O  O317  1  0.01157600  0.62534455  -0.00415649  1
  O  O318  1  0.00662869  0.62045655  0.51059395  1
  O  O319  1  0.50699487  0.12313239  0.00992411  1
  O  O320  1  0.50074217  0.12228760  0.49540382  1
  O  O321  1  0.50290391  0.63073343  0.01534917  1
  O  O322  1  0.50802711  0.62622392  0.49939663  1
  O  O323  1  0.49125350  0.38146513  0.48729843  1
  O  O324  1  0.48761429  0.36649276  1.00458472  1
  O  O325  1  0.49840368  0.88173661  0.49138782  1
  O  O326  1  0.48695776  0.87565286  0.99564921  1
  O  O327  1  1.00312523  0.39157829  0.50606528  1
  O  O328  1  1.00626189  0.37351805  0.98680526  1
  O  O329  1  0.98846585  0.88117914  0.49965261  1
  O  O330  1  0.98760926  0.87599520  0.99760095  1
  O  O331  1  0.48966167  0.49425720  0.36382660  1
  O  O332  1  0.49058468  0.50888264  0.86908200  1
  O  O333  1  0.51008714  0.98833943  0.38276336  1
  O  O334  1  0.49236792  0.99277691  0.87814001  1
  O  O335  1  0.99479784  0.50949835  0.38487628  1
  O  O336  1  0.98789496  0.49101275  0.87234360  1
  O  O337  1  1.00144330  0.99568330  0.38999781  1
  O  O338  1  0.99005589  0.99733885  0.88068608  1
  O  O339  1  -0.02035421  -0.00221832  0.09809240  1
  O  O340  1  0.00745056  0.00275660  0.61763514  1
  O  O341  1  0.01366001  0.49755860  0.13055602  1
  O  O342  1  0.00714029  0.50949753  0.62002156  1
  O  O343  1  0.50919063  0.00411619  0.12221400  1
  O  O344  1  0.51243311  -0.00122989  0.61843324  1
  O  O345  1  0.50411662  0.50852932  0.12565452  1
  O  O346  1  0.51928466  0.51269590  0.66493136  1
  O  O347  1  0.24186078  0.38347699  0.24406724  1
  O  O348  1  0.24624000  0.38160702  0.74492755  1
  O  O349  1  0.24674271  0.87371679  0.23638423  1
  O  O350  1  0.24778476  0.88454349  0.74020567  1
  O  O351  1  0.74667454  0.37633618  0.24224742  1
  O  O352  1  0.75090623  0.37650111  0.74250303  1
  O  O353  1  0.74797660  0.87165830  0.23457306  1
  O  O354  1  0.74077474  0.88302390  0.75230083  1
  O  O355  1  0.25963745  0.12649565  0.25336405  1
  O  O356  1  0.25647103  0.11629052  0.75008968  1
  O  O357  1  0.24773144  0.61809158  0.25773902  1
  O  O358  1  0.25675984  0.62340958  0.76051048  1
  O  O359  1  0.75313890  0.12437285  0.25450269  1
  O  O360  1  0.75954876  0.11560975  0.75587862  1
  O  O361  1  0.76468454  0.62227479  0.24424955  1
  O  O362  1  0.75056936  0.61285207  0.75251109  1
  O  O363  1  0.35977870  0.12723554  0.36192115  1
  O  O364  1  0.37845481  0.11342950  0.86663338  1
  O  O365  1  0.36382204  0.62063895  0.37927720  1
  O  O366  1  0.36618088  0.62054986  0.87114202  1
  O  O367  1  0.87105436  0.12045896  0.37289136  1
  O  O368  1  0.87103242  0.11126509  0.86739722  1
  O  O369  1  0.87576064  0.61290943  0.36839716  1
  O  O370  1  0.87412133  0.61079525  0.87195723  1
  O  O371  1  0.13286312  0.38366933  0.13249724  1
  O  O372  1  0.13426578  0.38273436  0.63214293  1
  O  O373  1  0.13918092  0.87078757  0.11683763  1
  O  O374  1  0.13168592  0.88672049  0.62831486  1
  O  O375  1  0.63579401  0.37856806  0.12686166  1
  O  O376  1  0.63827102  0.37842624  0.63769969  1
  O  O377  1  0.63333994  0.88095725  0.12124700  1
  O  O378  1  0.62099316  0.87963315  0.63628589  1
  O  O379  1  0.12079055  0.26137601  0.25624144  1
  O  O380  1  0.12862289  0.26535301  0.75480546  1
  O  O381  1  0.11723853  0.74007015  0.25815464  1
  O  O382  1  0.11762131  0.75208295  0.75815085  1
  O  O383  1  0.61201839  0.25233192  0.25723097  1
  O  O384  1  0.63586221  0.25931258  0.75994085  1
  O  O385  1  0.62625669  0.74718840  0.26050634  1
  O  O386  1  0.62114919  0.75521064  0.75231951  1
  O  O387  1  0.38315698  0.24687813  0.24631483  1
  O  O388  1  0.37634608  0.23610685  0.75081767  1
  O  O389  1  0.37269689  0.75119935  0.23625881  1
  O  O390  1  0.37481942  0.74664994  0.74340627  1
  O  O391  1  0.88591482  0.25558962  0.24738633  1
  O  O392  1  0.86971019  0.23315155  0.75679365  1
  O  O393  1  0.87828514  0.74262571  0.24251219  1
  O  O394  1  0.88076837  0.74712242  0.74276330  1
  O  O395  1  0.37142667  0.49315414  0.48610818  1
  O  O396  1  0.37180721  0.48971293  0.98961988  1
  O  O397  1  0.39296015  1.00049744  0.50735963  1
  O  O398  1  0.37367999  0.99471144  0.99242684  1
  O  O399  1  0.88314864  0.50211514  0.48932975  1
  O  O400  1  0.87303850  0.50241434  0.98963818  1
  O  O401  1  0.87978552  0.99022249  0.50398829  1
  O  O402  1  0.87468164  0.99105716  0.98764670  1
  O  O403  1  0.11541640  0.00745037  -0.00576124  1
  O  O404  1  0.11712765  0.00082681  0.50974030  1
  O  O405  1  0.13164555  0.50828811  0.00992097  1
  O  O406  1  0.12049533  0.50856037  0.50312502  1
  O  O407  1  0.62685632  0.00391002  0.00822130  1
  O  O408  1  0.61654081  -0.00588521  0.50982668  1
  O  O409  1  0.63057270  0.49752669  0.01138890  1
  O  O410  1  0.62616743  0.51453052  0.49682384  1
  O  O411  1  0.37027398  0.37108109  0.11940762  1
  O  O412  1  0.37157305  0.37344789  0.61903006  1
  O  O413  1  0.36938609  0.86738756  0.11779990  1
  O  O414  1  0.36634782  0.86959370  0.62523227  1
  O  O415  1  0.86532457  0.36890944  0.12795468  1
  O  O416  1  0.86476160  0.38092740  0.62003840  1
  O  O417  1  0.86890735  0.86351310  0.11590590  1
  O  O418  1  0.87890903  0.86074011  0.61710514  1
  O  O419  1  0.13709159  0.13547056  0.37388617  1
  O  O420  1  0.12199674  0.13008292  0.88673111  1
  O  O421  1  0.13693422  0.63272971  0.38021967  1
  O  O422  1  0.13197809  0.63054403  0.87943673  1
  O  O423  1  0.62312613  0.13950154  0.37176081  1
  O  O424  1  0.63374160  0.12742677  0.88113010  1
  O  O425  1  0.61853709  0.63629204  0.38323366  1
  O  O426  1  0.62261026  0.63767283  0.87241005  1
