# generated using pymatgen
data_V85Zn86O256
_symmetry_space_group_name_H-M   'P 1'
_cell_length_a   16.92959373
_cell_length_b   16.94561891
_cell_length_c   16.94980776
_cell_angle_alpha   90.02293297
_cell_angle_beta   89.91575887
_cell_angle_gamma   90.00908091
_symmetry_Int_Tables_number   1
_chemical_formula_structural   V85Zn86O256
_chemical_formula_sum   'V85 Zn86 O256'
_cell_volume   4862.59656307
_cell_formula_units_Z   1
loop_
 _symmetry_equiv_pos_site_id
 _symmetry_equiv_pos_as_xyz
  1  'x, y, z'
loop_
 _atom_site_type_symbol
 _atom_site_label
 _atom_site_symmetry_multiplicity
 _atom_site_fract_x
 _atom_site_fract_y
 _atom_site_fract_z
 _atom_site_occupancy
  V  V0  1  0.00169783  0.00317655  -0.00355920  1
  V  V1  1  0.00454044  0.63016039  0.13153494  1
  V  V2  1  0.49512572  0.75159026  0.23239161  1
  V  V3  1  0.87836270  0.87749150  -0.00181181  1
  V  V4  1  0.62152227  0.00030058  0.63731925  1
  V  V5  1  0.51162919  0.75656674  0.74941466  1
  V  V6  1  0.12710475  0.75146756  0.87220002  1
  V  V7  1  0.75497239  0.12647602  0.36995315  1
  V  V8  1  0.74879707  0.75825103  0.49732258  1
  V  V9  1  0.74799738  0.62700362  0.37233221  1
  V  V10  1  0.62719622  0.62525332  0.50050848  1
  V  V11  1  0.23711335  0.49789850  0.74729256  1
  V  V12  1  0.62584079  0.49317849  0.62852648  1
  V  V13  1  0.82247692  0.18955805  0.68498546  1
  V  V14  1  0.38568506  0.24922244  0.62284646  1
  V  V15  1  0.12410172  0.74675593  0.37197655  1
  V  V16  1  0.49783496  0.23563556  0.24945289  1
  V  V17  1  0.26098646  0.87078654  0.12793070  1
  V  V18  1  0.88117352  0.75198527  0.12891016  1
  V  V19  1  0.23666395  0.37735294  0.62474022  1
  V  V20  1  0.88749580  0.60403067  0.71684983  1
  V  V21  1  0.25403398  0.01463912  0.25434251  1
  V  V22  1  0.37903079  0.23549742  0.12971355  1
  V  V23  1  0.74772540  0.87908596  0.64334564  1
  V  V24  1  0.88003081  0.37167885  0.00460883  1
  V  V25  1  0.37314696  0.62718656  0.74979124  1
  V  V26  1  0.61060700  0.75451595  0.37565750  1
  V  V27  1  0.75399214  0.37227616  0.63320036  1
  V  V28  1  0.87894172  0.00484079  0.36501895  1
  V  V29  1  0.37253924  0.76425333  0.62247529  1
  V  V30  1  0.40551583  0.45762975  0.84011629  1
  V  V31  1  0.25121055  0.37335996  0.12903313  1
  V  V32  1  0.75974053  0.24467445  0.50200895  1
  V  V33  1  0.12423660  0.25118321  0.87015559  1
  V  V34  1  0.49850418  -0.02206332  0.49738662  1
  V  V35  1  0.37229530  0.37523281  0.49630510  1
  V  V36  1  0.61334909  0.26157033  0.87306460  1
  V  V37  1  0.75265693  0.88009885  0.12855348  1
  V  V38  1  0.61253937  0.12340832  0.50014192  1
  V  V39  1  0.12513389  0.12405443  -0.00283511  1
  V  V40  1  0.11116793  0.61203020  0.50879752  1
  V  V41  1  0.25298435  -0.00901000  0.74320942  1
  V  V42  1  0.50323794  0.50112137  0.49662268  1
  V  V43  1  0.37671507  0.50232392  0.37360436  1
  V  V44  1  0.00163248  0.12495320  0.62775664  1
  V  V45  1  0.50412622  0.37528605  0.37123549  1
  V  V46  1  0.13036817  -0.00780183  0.62211861  1
  V  V47  1  0.75176232  0.75088872  0.00161931  1
  V  V48  1  0.12686443  0.87185117  0.24754370  1
  V  V49  1  0.62113080  0.50491166  0.12559478  1
  V  V50  1  0.25047224  0.24169917  0.49652921  1
  V  V51  1  0.87932843  0.62947004  0.25186583  1
  V  V52  1  0.25049327  0.76124204  0.50413700  1
  V  V53  1  0.49418258  0.50390751  0.00247386  1
  V  V54  1  0.12623036  0.62571338  -0.00085048  1
  V  V55  1  -0.00009596  0.87013237  0.37136015  1
  V  V56  1  0.61960959  0.63037831  0.00252879  1
  V  V57  1  0.12646307  0.49943973  0.12518394  1
  V  V58  1  0.74057113  0.49430013  0.75902154  1
  V  V59  1  0.87909393  0.24540877  0.13886098  1
  V  V60  1  0.86809793  0.00716425  0.86381313  1
  V  V61  1  0.37985965  -0.00052593  0.37305518  1
  V  V62  1  0.75514720  0.62487572  0.87844672  1
  V  V63  1  0.00653405  0.25169536  0.74235446  1
  V  V64  1  0.11341846  0.37159598  0.24864402  1
  V  V65  1  0.61708950  0.00967200  0.12362246  1
  V  V66  1  0.87476629  0.49987192  0.88299719  1
  V  V67  1  -0.00148112  0.74660103  0.74093293  1
  V  V68  1  0.50019768  0.62576922  0.62488792  1
  V  V69  1  0.62189612  0.87737604  0.25279037  1
  V  V70  1  0.12559232  0.24215843  0.37023870  1
  V  V71  1  0.25194715  0.62431399  0.37989916  1
  V  V72  1  0.38076237  0.37408696  0.00357963  1
  V  V73  1  0.00000056  -0.00076104  0.49998260  1
  V  V74  1  0.62528765  0.25233857  0.37755935  1
  V  V75  1  -0.00081488  0.37598216  0.38612563  1
  V  V76  1  0.25966658  0.74892924  0.00173316  1
  V  V77  1  0.25123956  0.24976094  -0.00115726  1
  V  V78  1  0.74821141  0.24427775  -0.00048492  1
  V  V79  1  0.37743994  0.62936671  0.23987165  1
  V  V80  1  0.38777465  0.12603001  0.74575510  1
  V  V81  1  -0.00104472  0.12648545  0.13492009  1
  V  V82  1  0.00769227  0.37603312  0.87055771  1
  V  V83  1  0.74941508  0.37539395  0.12792379  1
  V  V84  1  0.25185116  0.12191852  0.86803751  1
  Zn  Zn85  1  0.25130268  0.50100404  0.25121399  1
  Zn  Zn86  1  0.49173739  0.27989364  0.76027494  1
  Zn  Zn87  1  0.61547766  0.12837519  -0.00160705  1
  Zn  Zn88  1  0.87828320  0.37613037  0.50764075  1
  Zn  Zn89  1  0.12830278  -0.00142671  0.12340080  1
  Zn  Zn90  1  0.38013826  0.87298228  -0.00246624  1
  Zn  Zn91  1  0.75312813  0.00577419  0.24874263  1
  Zn  Zn92  1  0.63593318  0.75769059  0.86305878  1
  Zn  Zn93  1  0.37646829  -0.00779928  0.87443305  1
  Zn  Zn94  1  0.74955135  0.12662134  0.86652009  1
  Zn  Zn95  1  0.48878145  0.00552572  0.00055183  1
  Zn  Zn96  1  0.87795398  0.75410198  0.62114847  1
  Zn  Zn97  1  0.74954196  0.50306648  0.24844391  1
  Zn  Zn98  1  0.87314964  0.87587704  0.49831973  1
  Zn  Zn99  1  0.50909805  0.88211457  0.87922388  1
  Zn  Zn100  1  0.12878870  0.12220711  0.49622832  1
  Zn  Zn101  1  0.12769084  0.86987697  0.74339247  1
  Zn  Zn102  1  0.00156331  0.87618311  0.87004041  1
  Zn  Zn103  1  0.62555442  0.37794507  0.25187187  1
  Zn  Zn104  1  0.00375671  0.49867434  0.00090929  1
  Zn  Zn105  1  0.88449405  0.50565905  0.37983548  1
  Zn  Zn106  1  0.25452050  0.61760429  0.87403399  1
  Zn  Zn107  1  0.18363334  0.18907726  0.18390452  1
  Zn  Zn108  1  0.18905534  0.18459274  0.68260132  1
  Zn  Zn109  1  0.19251041  0.68893578  0.18985557  1
  Zn  Zn110  1  0.18658195  0.68347368  0.68286775  1
  Zn  Zn111  1  0.68728614  0.19232729  0.19183784  1
  Zn  Zn112  1  0.64901387  0.18054399  0.69690205  1
  Zn  Zn113  1  0.68682512  0.69106097  0.18655722  1
  Zn  Zn114  1  0.70278738  0.67968446  0.68160428  1
  Zn  Zn115  1  0.31204180  0.30927056  0.31086794  1
  Zn  Zn116  1  0.30632372  0.30879349  0.80568853  1
  Zn  Zn117  1  0.31756904  0.81699698  0.31778981  1
  Zn  Zn118  1  0.31654409  0.81076881  0.81392602  1
  Zn  Zn119  1  0.81365287  0.31279146  0.31319251  1
  Zn  Zn120  1  0.81145697  0.31622490  0.82116050  1
  Zn  Zn121  1  0.81239642  0.81195602  0.31236101  1
  Zn  Zn122  1  0.82207407  0.80805732  0.81365110  1
  Zn  Zn123  1  0.18628686  0.43596988  0.43655545  1
  Zn  Zn124  1  0.19484016  0.43948269  0.93428000  1
  Zn  Zn125  1  0.18975313  0.93881122  0.43201642  1
  Zn  Zn126  1  0.19292007  0.93498928  0.93577223  1
  Zn  Zn127  1  0.70722883  0.44272603  0.44717260  1
  Zn  Zn128  1  0.68552118  0.43569329  0.94604890  1
  Zn  Zn129  1  0.68567221  0.94101229  0.43473416  1
  Zn  Zn130  1  0.68664735  0.93811201  0.93573616  1
  Zn  Zn131  1  0.31029634  0.05845859  0.06231949  1
  Zn  Zn132  1  0.31973847  0.06168012  0.56194202  1
  Zn  Zn133  1  0.31124934  0.56072747  0.06183202  1
  Zn  Zn134  1  0.30922198  0.56473556  0.56328957  1
  Zn  Zn135  1  0.81481816  0.06291145  0.06220106  1
  Zn  Zn136  1  0.80741701  0.05354268  0.55420005  1
  Zn  Zn137  1  0.81261987  0.56273067  0.06552535  1
  Zn  Zn138  1  0.83047970  0.55442633  0.56385453  1
  Zn  Zn139  1  0.43794264  0.43826763  0.18771337  1
  Zn  Zn140  1  0.43034557  0.43982712  0.67190506  1
  Zn  Zn141  1  0.43689501  0.93769006  0.19140681  1
  Zn  Zn142  1  0.44170884  0.93952196  0.68805262  1
  Zn  Zn143  1  0.93675357  0.44411341  0.19017540  1
  Zn  Zn144  1  0.93226158  0.43464521  0.69163146  1
  Zn  Zn145  1  0.94371763  0.93981956  0.18664867  1
  Zn  Zn146  1  0.93853151  0.93311365  0.68630003  1
  Zn  Zn147  1  0.06781925  0.05776302  0.31165885  1
  Zn  Zn148  1  0.06266396  0.06173553  0.80780711  1
  Zn  Zn149  1  0.06467658  0.55943636  0.31380259  1
  Zn  Zn150  1  0.06135754  0.56450896  0.81365443  1
  Zn  Zn151  1  0.56454807  0.05923263  0.31775020  1
  Zn  Zn152  1  0.56183811  0.06929519  0.82318758  1
  Zn  Zn153  1  0.56231693  0.56782195  0.30841993  1
  Zn  Zn154  1  0.56344676  0.57001468  0.81536621  1
  Zn  Zn155  1  0.43246431  0.18399857  0.43143165  1
  Zn  Zn156  1  0.43764145  0.18114014  0.94082840  1
  Zn  Zn157  1  0.43460222  0.69041456  0.43909515  1
  Zn  Zn158  1  0.43945729  0.68724702  0.93087667  1
  Zn  Zn159  1  0.94219262  0.18833656  0.43531692  1
  Zn  Zn160  1  0.93637318  0.18742943  0.93650793  1
  Zn  Zn161  1  0.93703334  0.69056707  0.43827298  1
  Zn  Zn162  1  0.94273093  0.68952622  0.93743282  1
  Zn  Zn163  1  0.06272198  0.30852902  0.06230786  1
  Zn  Zn164  1  0.06330992  0.30835748  0.55868685  1
  Zn  Zn165  1  0.06699262  0.81235884  0.06174279  1
  Zn  Zn166  1  0.06459441  0.80905089  0.55793675  1
  Zn  Zn167  1  0.56114602  0.31162116  0.06395300  1
  Zn  Zn168  1  0.56615614  0.31515469  0.55891581  1
  Zn  Zn169  1  0.56581653  0.81984437  0.05905769  1
  Zn  Zn170  1  0.56847532  0.81284005  0.57080374  1
  O  O171  1  0.11818481  0.12384082  0.11349759  1
  O  O172  1  0.11596680  0.11396976  0.62078250  1
  O  O173  1  0.12164821  0.62214453  0.12134857  1
  O  O174  1  0.12460399  0.62511340  0.60773998  1
  O  O175  1  0.63426409  0.11057949  0.13055807  1
  O  O176  1  0.63037436  0.10960259  0.61306164  1
  O  O177  1  0.63171790  0.61428871  0.11679413  1
  O  O178  1  0.62446032  0.61289413  0.61956409  1
  O  O179  1  0.38169476  0.38164457  0.37847012  1
  O  O180  1  0.36163767  0.37204526  0.89026054  1
  O  O181  1  0.36394033  0.89658858  0.38236127  1
  O  O182  1  0.38512943  0.87288842  0.87625804  1
  O  O183  1  0.89238484  0.37135597  0.37220955  1
  O  O184  1  0.88586475  0.37846669  0.88593923  1
  O  O185  1  0.88543373  0.88074949  0.37296767  1
  O  O186  1  0.87809104  0.88415996  0.88390663  1
  O  O187  1  0.25278402  0.00165107  0.36025981  1
  O  O188  1  0.25052789  0.00788411  0.86310948  1
  O  O189  1  0.25723668  0.50686884  0.37336830  1
  O  O190  1  0.26263760  0.49593977  0.85923123  1
  O  O191  1  0.76068328  0.00873986  0.37478872  1
  O  O192  1  0.76381188  0.00555298  0.87905250  1
  O  O193  1  0.73620243  0.52065931  0.36607862  1
  O  O194  1  0.75073053  0.50343276  0.87543834  1
  O  O195  1  0.24398235  0.49041450  0.12721304  1
  O  O196  1  0.25462180  0.48564608  0.62958757  1
  O  O197  1  0.24879813  0.99083486  0.13786504  1
  O  O198  1  0.24217724  1.00625917  0.62997575  1
  O  O199  1  0.74254751  0.49187607  0.12533432  1
  O  O200  1  0.74329723  0.48921110  0.63797102  1
  O  O201  1  0.75009443  0.99104473  0.12896693  1
  O  O202  1  0.73843142  0.98726308  0.62018744  1
  O  O203  1  0.01057247  0.37636707  0.25121894  1
  O  O204  1  -0.00555971  0.36579545  0.75774326  1
  O  O205  1  0.01619924  0.88175213  0.25697580  1
  O  O206  1  0.00357444  0.86311449  0.75181261  1
  O  O207  1  0.50083307  0.37343408  0.26299313  1
  O  O208  1  0.46234550  0.39391175  0.77134695  1
  O  O209  1  0.50780026  0.86255353  0.24676696  1
  O  O210  1  0.50282239  0.85797416  0.74504261  1
  O  O211  1  0.50391052  0.13667258  0.25862671  1
  O  O212  1  0.48860706  0.13150726  0.75231120  1
  O  O213  1  0.49181054  0.64156985  0.25373953  1
  O  O214  1  0.49305328  0.62977736  0.74179784  1
  O  O215  1  1.00702610  0.11547688  0.23365474  1
  O  O216  1  1.00036429  0.13199366  0.73628055  1
  O  O217  1  0.99421205  0.62222320  0.24310328  1
  O  O218  1  0.98643975  0.62875357  0.75492106  1
  O  O219  1  0.36954241  0.25734401  0.00797102  1
  O  O220  1  0.36978895  0.25509097  0.50361230  1
  O  O221  1  0.36258941  0.74483015  -0.00426884  1
  O  O222  1  0.35998578  0.74603894  0.50663049  1
  O  O223  1  0.86922458  0.25968515  0.00438431  1
  O  O224  1  0.86271360  0.25179709  0.49758347  1
  O  O225  1  0.87351053  0.75873814  0.00684268  1
  O  O226  1  0.86410463  0.75464826  0.50087411  1
  O  O227  1  0.13390113  0.24716022  0.49063838  1
  O  O228  1  0.13185645  0.24445960  0.99148961  1
  O  O229  1  0.13404599  0.74148787  0.49063691  1
  O  O230  1  0.13158645  0.74258481  0.99175153  1
  O  O231  1  0.63154572  0.24079838  0.49685852  1
  O  O232  1  0.63224801  0.25037493  0.99599305  1
  O  O233  1  0.62867713  0.74752153  0.49259923  1
  O  O234  1  0.63493605  0.74226407  1.00539681  1
  O  O235  1  0.49119627  0.25672162  0.13775363  1
  O  O236  1  0.48825907  0.26595261  0.62950202  1
  O  O237  1  0.50446211  0.74979733  0.13470490  1
  O  O238  1  0.49504289  0.74420656  0.63081465  1
  O  O239  1  0.99141598  0.23903349  0.11961484  1
  O  O240  1  1.00218513  0.24194173  0.63104943  1
  O  O241  1  0.99831662  0.73767094  0.12074468  1
  O  O242  1  0.99913191  0.75216689  0.63544919  1
  O  O243  1  0.01147136  0.26281551  0.37856893  1
  O  O244  1  0.00382818  0.25554462  0.86568707  1
  O  O245  1  0.00875488  0.76207244  0.37869111  1
  O  O246  1  0.00928941  0.74983181  0.86500029  1
  O  O247  1  0.50267305  0.25817215  0.37069573  1
  O  O248  1  0.50934957  0.25374831  0.88036232  1
  O  O249  1  0.50883818  0.75026557  0.37332622  1
  O  O250  1  0.50584057  0.74473609  0.85538359  1
  O  O251  1  0.24983452  0.13860111  0.50677478  1
  O  O252  1  0.24462810  0.13030840  0.98977491  1
  O  O253  1  0.24470055  0.63016481  0.48964015  1
  O  O254  1  0.24102185  0.62960114  0.99889802  1
  O  O255  1  0.74224018  0.12971737  0.49193123  1
  O  O256  1  0.74968730  0.13900487  1.00316866  1
  O  O257  1  0.74285689  0.63932345  0.49048605  1
  O  O258  1  0.74224834  0.62896890  0.99792657  1
  O  O259  1  0.25556956  0.37062766  0.01160597  1
  O  O260  1  0.25336203  0.36876192  0.50674261  1
  O  O261  1  0.24993373  0.86466429  0.00922311  1
  O  O262  1  0.24108057  0.85941078  0.49846769  1
  O  O263  1  0.75819182  0.36735678  0.01178296  1
  O  O264  1  0.74073793  0.35601383  0.51716657  1
  O  O265  1  0.76348091  0.87346596  0.00870486  1
  O  O266  1  0.74893952  0.86627616  0.49579801  1
  O  O267  1  0.12967377  0.49055446  0.24285388  1
  O  O268  1  0.13739146  0.50457302  0.75321438  1
  O  O269  1  0.13890552  0.99029130  0.24973010  1
  O  O270  1  0.13324352  0.99780822  0.73963328  1
  O  O271  1  0.62355303  0.49976808  0.23814649  1
  O  O272  1  0.63350436  0.50617761  0.74637996  1
  O  O273  1  0.62891211  0.99279659  0.24464365  1
  O  O274  1  0.61960421  1.01265878  0.73500594  1
  O  O275  1  0.36443398  -0.00114314  0.25770465  1
  O  O276  1  0.36923600  0.00926603  0.74533547  1
  O  O277  1  0.37642499  0.50960233  0.25731784  1
  O  O278  1  0.36779179  0.50899147  0.74658016  1
  O  O279  1  0.87596415  -0.00279847  0.26134488  1
  O  O280  1  0.88165173  -0.00417028  0.76615974  1
  O  O281  1  0.87069235  0.51489229  0.25437561  1
  O  O282  1  0.86161235  0.50241219  0.76779882  1
  O  O283  1  0.11615759  0.36943251  0.36777908  1
  O  O284  1  0.11344595  0.37167114  0.88089061  1
  O  O285  1  0.12009906  0.86738559  0.36861672  1
  O  O286  1  0.12442993  0.86148199  0.87326509  1
  O  O287  1  0.61969525  0.37121575  0.37849453  1
  O  O288  1  0.62881037  0.36033081  0.88312677  1
  O  O289  1  0.63178726  0.86866584  0.36037000  1
  O  O290  1  0.62408437  0.86777569  0.87975562  1
  O  O291  1  0.36739814  0.13746489  0.12380403  1
  O  O292  1  0.37190936  0.13842865  0.63261265  1
  O  O293  1  0.36622720  0.62243560  0.14104233  1
  O  O294  1  0.38067977  0.63061970  0.63156444  1
  O  O295  1  0.88576178  0.13362676  0.11916148  1
  O  O296  1  0.87515094  0.12335274  0.62539570  1
  O  O297  1  0.88420080  0.62972659  0.13102234  1
  O  O298  1  0.83016664  0.64532741  0.63326330  1
  O  O299  1  0.25590478  0.25686422  0.11985664  1
  O  O300  1  0.25554963  0.26071600  0.61798744  1
  O  O301  1  0.24341483  0.75817372  0.11424228  1
  O  O302  1  0.25600166  0.74655219  0.61194884  1
  O  O303  1  0.75602145  0.25729199  0.12064692  1
  O  O304  1  0.75270107  0.24759635  0.62733085  1
  O  O305  1  0.75732179  0.76237239  0.12105955  1
  O  O306  1  0.73905954  0.76984101  0.61436785  1
  O  O307  1  0.24053807  0.25862069  0.38520143  1
  O  O308  1  0.24194162  0.24356418  0.87660523  1
  O  O309  1  0.24610966  0.74379963  0.38479921  1
  O  O310  1  0.24241966  0.74486606  0.88079444  1
  O  O311  1  0.74641791  0.24628579  0.38403017  1
  O  O312  1  0.74443017  0.24938494  0.88513835  1
  O  O313  1  0.74014827  0.74450154  0.37834208  1
  O  O314  1  0.75525122  0.74092160  0.88264714  1
  O  O315  1  0.00641797  0.11859702  0.00138044  1
  O  O316  1  0.00028024  0.11773998  0.51055206  1
  O  O317  1  0.01360988  0.62384159  0.00667331  1
  O  O318  1  0.01151533  0.62518895  0.49272031  1
  O  O319  1  0.50247192  0.11993075  0.00537429  1
  O  O320  1  0.51122330  0.12566081  0.49676347  1
  O  O321  1  0.51134948  0.62087412  -0.00447830  1
  O  O322  1  0.50711608  0.62149384  0.50478063  1
  O  O323  1  0.49501279  0.38002261  0.48853768  1
  O  O324  1  0.48689196  0.38329481  1.00441212  1
  O  O325  1  0.50621860  0.87999057  0.49832032  1
  O  O326  1  0.49699797  0.88375943  1.00177424  1
  O  O327  1  0.99726602  0.37555865  0.49106496  1
  O  O328  1  0.99411012  0.37475401  0.99425995  1
  O  O329  1  0.99984763  0.88210809  0.49024826  1
  O  O330  1  0.99209525  0.88200269  0.99969415  1
  O  O331  1  0.49866857  0.49547830  0.37869963  1
  O  O332  1  0.49192313  0.50657755  0.88542678  1
  O  O333  1  0.49507051  0.99702742  0.38688064  1
  O  O334  1  0.49458288  1.00001585  0.87679957  1
  O  O335  1  1.00079504  0.48190204  0.37060557  1
  O  O336  1  0.99520427  0.49205997  0.87827901  1
  O  O337  1  0.99756650  0.99341403  0.38068632  1
  O  O338  1  0.99437724  1.00026561  0.88362668  1
  O  O339  1  0.00242415  0.00688349  0.11086933  1
  O  O340  1  0.00344409  0.00470209  0.61734705  1
  O  O341  1  0.00716853  0.51170352  0.12247679  1
  O  O342  1  -0.07303417  0.53526896  0.63905144  1
  O  O343  1  0.51580522  -0.00262473  0.13092587  1
  O  O344  1  0.51385133  -0.00680196  0.61260571  1
  O  O345  1  0.50724706  0.49794451  0.11329772  1
  O  O346  1  0.50792269  0.50444088  0.61686791  1
  O  O347  1  0.24448933  0.37545978  0.23874533  1
  O  O348  1  0.25277636  0.38147927  0.73333013  1
  O  O349  1  0.24216048  0.87416862  0.24440938  1
  O  O350  1  0.24970277  0.88771688  0.75191228  1
  O  O351  1  0.74905614  0.37734347  0.23935007  1
  O  O352  1  0.75161109  0.38261393  0.74803420  1
  O  O353  1  0.74380614  0.87570980  0.24246875  1
  O  O354  1  0.75360012  0.86992293  0.74112168  1
  O  O355  1  0.24494076  0.11211713  0.24475562  1
  O  O356  1  0.25548698  0.11806673  0.75399099  1
  O  O357  1  0.25801355  0.62685383  0.26365396  1
  O  O358  1  0.25659371  0.61581504  0.74647849  1
  O  O359  1  0.74776717  0.12712262  0.26609075  1
  O  O360  1  0.75524657  0.13906401  0.74205694  1
  O  O361  1  0.75756908  0.62982403  0.25566429  1
  O  O362  1  0.75919136  0.61325376  0.76373058  1
  O  O363  1  0.37051148  0.10281248  0.38537702  1
  O  O364  1  0.36179433  0.13021963  0.86451412  1
  O  O365  1  0.36869938  0.62068637  0.37107683  1
  O  O366  1  0.37355449  0.62759893  0.85638668  1
  O  O367  1  0.86950778  0.11683721  0.38087101  1
  O  O368  1  0.87234030  0.11235138  0.87707325  1
  O  O369  1  0.86717830  0.62690245  0.36860079  1
  O  O370  1  0.86407459  0.61656490  0.89148801  1
  O  O371  1  0.13062636  0.37622283  0.13036394  1
  O  O372  1  0.13767019  0.37295359  0.61963326  1
  O  O373  1  0.13100672  0.87624956  0.13347887  1
  O  O374  1  0.12008064  0.88829072  0.62280000  1
  O  O375  1  0.63359842  0.38522445  0.12363757  1
  O  O376  1  0.63009218  0.38676763  0.62596041  1
  O  O377  1  0.63574425  0.88363047  0.13431555  1
  O  O378  1  0.63554764  0.88860221  0.62641228  1
  O  O379  1  0.13192643  0.26008637  0.25785516  1
  O  O380  1  0.11444776  0.24594273  0.75330913  1
  O  O381  1  0.13069057  0.75543156  0.26433668  1
  O  O382  1  0.12043235  0.74673132  0.75547342  1
  O  O383  1  0.61683837  0.25630063  0.25861516  1
  O  O384  1  0.61007816  0.25921217  0.76428918  1
  O  O385  1  0.61417208  0.75545069  0.25459914  1
  O  O386  1  0.61426360  0.73741990  0.74314433  1
  O  O387  1  0.38435560  0.25329253  0.24196529  1
  O  O388  1  0.37621062  0.24484059  0.74010267  1
  O  O389  1  0.38822912  0.74705858  0.25483002  1
  O  O390  1  0.38177857  0.74376950  0.73941305  1
  O  O391  1  0.87245377  0.25001992  0.23758687  1
  O  O392  1  0.87950383  0.24764187  0.74829194  1
  O  O393  1  0.87427121  0.73934537  0.24392264  1
  O  O394  1  0.88496075  0.73708024  0.74659735  1
  O  O395  1  0.38213696  0.49642023  0.49374799  1
  O  O396  1  0.38223581  0.49317684  1.00105121  1
  O  O397  1  0.39447757  0.99925190  0.50073829  1
  O  O398  1  0.36882575  0.99353642  0.99455869  1
  O  O399  1  0.83487711  0.48096977  0.48119179  1
  O  O400  1  0.87648202  0.48630341  1.00145691  1
  O  O401  1  0.88658150  0.99663243  0.48954775  1
  O  O402  1  0.88331951  0.99393984  0.99394742  1
  O  O403  1  0.11874248  0.00409346  -0.00197694  1
  O  O404  1  0.11650224  0.00187603  0.50144758  1
  O  O405  1  0.12824132  0.50859972  0.00528214  1
  O  O406  1  0.12682875  0.51335229  0.49445038  1
  O  O407  1  0.63226301  0.00386718  0.01822610  1
  O  O408  1  0.61343456  0.00500381  0.49986125  1
  O  O409  1  0.61628430  0.50773975  0.00572431  1
  O  O410  1  0.62409434  0.50459410  0.50895668  1
  O  O411  1  0.36699647  0.37080660  0.12046137  1
  O  O412  1  0.36500993  0.36778061  0.61183455  1
  O  O413  1  0.36343489  0.87431022  0.12686292  1
  O  O414  1  0.37866825  0.86325992  0.62640043  1
  O  O415  1  0.87170166  0.36999316  0.12162418  1
  O  O416  1  0.85915096  0.37198546  0.62537262  1
  O  O417  1  0.87290745  0.87275459  0.12092113  1
  O  O418  1  0.85942221  0.87617160  0.62106736  1
  O  O419  1  0.11922405  0.13800581  0.37551771  1
  O  O420  1  0.13404910  0.12878135  0.87617511  1
  O  O421  1  0.13254086  0.63134645  0.37735356  1
  O  O422  1  0.12802514  0.63222363  0.88365894  1
  O  O423  1  0.63353904  0.13069752  0.38277769  1
  O  O424  1  0.63268415  0.14180803  0.87703100  1
  O  O425  1  0.62829429  0.63683828  0.37853067  1
  O  O426  1  0.63865615  0.62971130  0.88464670  1
