# generated using pymatgen
data_V85Zn86O256
_symmetry_space_group_name_H-M   'P 1'
_cell_length_a   16.92640132
_cell_length_b   16.92925019
_cell_length_c   16.92274338
_cell_angle_alpha   90.02404648
_cell_angle_beta   90.00784932
_cell_angle_gamma   90.02660041
_symmetry_Int_Tables_number   1
_chemical_formula_structural   V85Zn86O256
_chemical_formula_sum   'V85 Zn86 O256'
_cell_volume   4849.23282966
_cell_formula_units_Z   1
loop_
 _symmetry_equiv_pos_site_id
 _symmetry_equiv_pos_as_xyz
  1  'x, y, z'
loop_
 _atom_site_type_symbol
 _atom_site_label
 _atom_site_symmetry_multiplicity
 _atom_site_fract_x
 _atom_site_fract_y
 _atom_site_fract_z
 _atom_site_occupancy
  V  V0  1  0.62356458  0.74043395  0.87833336  1
  V  V1  1  0.25421183  0.62957715  0.87784942  1
  V  V2  1  0.87539468  -0.00228962  0.37352994  1
  V  V3  1  0.74797142  0.12411758  0.37727437  1
  V  V4  1  0.49817940  0.37661488  0.37673701  1
  V  V5  1  0.22693439  0.62740370  0.37602816  1
  V  V6  1  0.25117020  0.49520080  0.24165876  1
  V  V7  1  0.49824311  0.36559075  0.87213131  1
  V  V8  1  0.11981320  0.25349660  0.36927752  1
  V  V9  1  0.12938249  0.48836710  0.11723526  1
  V  V10  1  0.37439392  0.12397264  0.25177203  1
  V  V11  1  0.38109176  0.00449082  0.87135077  1
  V  V12  1  0.12633549  0.62938349  0.00292608  1
  V  V13  1  0.24984025  0.25779177  0.00282268  1
  V  V14  1  0.74401934  0.00179320  0.24270391  1
  V  V15  1  0.49834654  0.24950203  0.25064618  1
  V  V16  1  0.75104969  0.13375842  0.88144110  1
  V  V17  1  0.50098439  0.62162645  0.10513428  1
  V  V18  1  0.75412565  0.49797792  0.75061572  1
  V  V19  1  0.75047734  0.87598437  0.62566247  1
  V  V20  1  0.37191591  0.25560659  0.12736842  1
  V  V21  1  0.62538835  0.87457694  0.75170625  1
  V  V22  1  0.62281046  0.24996037  0.37527769  1
  V  V23  1  0.37434848  0.88044307  0.00134837  1
  V  V24  1  0.62127016  0.63268154  0.50378961  1
  V  V25  1  0.87628689  -0.00055536  0.87532397  1
  V  V26  1  0.00093720  0.00163045  0.00112795  1
  V  V27  1  0.25266812  0.12421096  0.37551515  1
  V  V28  1  0.87455912  0.74819496  0.62773075  1
  V  V29  1  0.38242981  -0.01231380  0.38969726  1
  V  V30  1  0.87131728  0.26430715  0.62084186  1
  V  V31  1  0.37944952  0.38232671  0.00458410  1
  V  V32  1  0.62213313  0.36690609  0.74282503  1
  V  V33  1  0.25337273  0.37705303  0.62510098  1
  V  V34  1  0.11815699  0.86902947  0.26105345  1
  V  V35  1  0.00076109  0.25111666  0.75038379  1
  V  V36  1  -0.00670233  0.48746935  0.50181793  1
  V  V37  1  0.87536604  0.12616469  0.74581822  1
  V  V38  1  0.74753884  0.75174131  -0.00244950  1
  V  V39  1  0.62069845  0.49505629  0.10611794  1
  V  V40  1  0.49638171  0.12610438  0.64203684  1
  V  V41  1  0.25283950  -0.00414041  0.24945798  1
  V  V42  1  0.12699841  -0.00055584  0.62611144  1
  V  V43  1  0.38525725  0.62813853  0.25012969  1
  V  V44  1  0.38528394  0.50409831  0.87667829  1
  V  V45  1  0.49741522  0.50740020  0.50735883  1
  V  V46  1  -0.00528900  0.49834270  -0.00798519  1
  V  V47  1  0.61899815  -0.00078908  0.61966403  1
  V  V48  1  0.75955533  0.62193738  0.87740084  1
  V  V49  1  0.12803141  0.50533168  0.61660082  1
  V  V50  1  0.37320358  0.50476029  0.37642988  1
  V  V51  1  0.50537373  0.87953916  0.88259311  1
  V  V52  1  0.51374166  0.86111835  0.37592037  1
  V  V53  1  0.75143920  0.00039671  0.74952357  1
  V  V54  1  0.13024748  0.87518050  0.74875329  1
  V  V55  1  0.87324066  0.87571117  0.00944052  1
  V  V56  1  0.86976752  0.49010232  0.37934184  1
  V  V57  1  0.61540152  0.12303704  0.49931587  1
  V  V58  1  0.12578481  0.12609340  0.50129465  1
  V  V59  1  0.75040401  0.26095010  0.50325554  1
  V  V60  1  0.49810999  0.74498895  0.74294514  1
  V  V61  1  0.74980259  0.62187666  0.37657582  1
  V  V62  1  0.00409333  0.74946274  0.74922504  1
  V  V63  1  0.87051457  0.26215724  0.12821314  1
  V  V64  1  0.25272152  0.50435856  0.74933960  1
  V  V65  1  0.23828968  0.75545396  0.49682628  1
  V  V66  1  0.13149111  0.75326964  0.88099798  1
  V  V67  1  0.87536664  0.61962571  0.24546892  1
  V  V68  1  0.88406055  0.13088611  0.24936529  1
  V  V69  1  0.49982091  0.11637789  0.11881470  1
  V  V70  1  0.24750811  0.86436122  0.12169969  1
  V  V71  1  0.88218647  0.87363613  0.50236854  1
  V  V72  1  0.86008568  0.37398245  -0.00760731  1
  V  V73  1  0.25437711  0.25121875  0.50078121  1
  V  V74  1  0.37814607  0.24798636  0.64080839  1
  V  V75  1  0.62658231  0.37921119  0.24509921  1
  V  V76  1  0.12754946  -0.00043178  0.12448179  1
  V  V77  1  0.12559065  0.12846831  -0.00107291  1
  V  V78  1  0.69591105  0.82424296  0.18655891  1
  V  V79  1  0.00130911  -0.00096352  0.49557693  1
  V  V80  1  0.37922085  0.75038290  0.12463856  1
  V  V81  1  0.12499273  0.37902974  0.75201400  1
  V  V82  1  0.25564664  0.12649280  0.86973892  1
  V  V83  1  0.00434357  0.62655701  0.61825456  1
  V  V84  1  0.62871494  0.50422747  0.62635433  1
  Zn  Zn85  1  0.37869516  0.75029089  0.60784095  1
  Zn  Zn86  1  0.87953365  0.74913834  0.12593707  1
  Zn  Zn87  1  0.74942443  0.74968408  0.50096932  1
  Zn  Zn88  1  0.62490450  0.25069190  0.87877169  1
  Zn  Zn89  1  0.12381234  0.36770087  0.23929904  1
  Zn  Zn90  1  -0.00100748  0.62486115  0.12418133  1
  Zn  Zn91  1  0.62227308  -0.00656837  0.12007232  1
  Zn  Zn92  1  0.00254795  0.13463981  0.12868677  1
  Zn  Zn93  1  -0.01027800  0.36699209  0.36874457  1
  Zn  Zn94  1  0.26274686  0.87791126  0.61700125  1
  Zn  Zn95  1  0.37742517  0.37647396  0.50294664  1
  Zn  Zn96  1  0.75039684  0.49205757  0.23957748  1
  Zn  Zn97  1  0.12450987  0.25372412  0.87626153  1
  Zn  Zn98  1  -0.00017813  0.12704299  0.62404988  1
  Zn  Zn99  1  0.00198338  0.87368295  0.87749688  1
  Zn  Zn100  1  0.25648412  0.00388580  0.74754030  1
  Zn  Zn101  1  0.38111746  0.62420902  0.73995498  1
  Zn  Zn102  1  -0.00743759  0.38066112  0.87191364  1
  Zn  Zn103  1  0.01079580  0.73789751  0.25983262  1
  Zn  Zn104  1  0.62699487  0.12576917  0.00238334  1
  Zn  Zn105  1  0.87951794  0.61733835  0.75268348  1
  Zn  Zn106  1  0.63036844  0.74816877  0.36085063  1
  Zn  Zn107  1  0.18965299  0.18640487  0.18628955  1
  Zn  Zn108  1  0.18807970  0.18888088  0.68752438  1
  Zn  Zn109  1  0.19072408  0.68452133  0.19115793  1
  Zn  Zn110  1  0.19202802  0.68843233  0.68570135  1
  Zn  Zn111  1  0.68890741  0.18885656  0.18693446  1
  Zn  Zn112  1  0.68875254  0.18739668  0.68633315  1
  Zn  Zn113  1  0.69117785  0.66031699  0.17988057  1
  Zn  Zn114  1  0.68691001  0.68516767  0.68973577  1
  Zn  Zn115  1  0.30959813  0.31673441  0.31369513  1
  Zn  Zn116  1  0.31019167  0.31627262  0.81689679  1
  Zn  Zn117  1  0.31056292  0.80839873  0.31382199  1
  Zn  Zn118  1  0.31506835  0.81669443  0.81036642  1
  Zn  Zn119  1  0.80768905  0.30983928  0.30946777  1
  Zn  Zn120  1  0.81050588  0.31591562  0.80776844  1
  Zn  Zn121  1  0.85310163  0.78893611  0.33627625  1
  Zn  Zn122  1  0.81522869  0.81357381  0.81576651  1
  Zn  Zn123  1  0.18922071  0.43867882  0.43724665  1
  Zn  Zn124  1  0.19165661  0.44072690  0.93546190  1
  Zn  Zn125  1  0.18967690  0.93876524  0.43581340  1
  Zn  Zn126  1  0.19208091  0.93901361  0.93789112  1
  Zn  Zn127  1  0.68210903  0.43942642  0.43807420  1
  Zn  Zn128  1  0.68551060  0.43639130  0.93026509  1
  Zn  Zn129  1  0.69031368  0.93498526  0.43743072  1
  Zn  Zn130  1  0.68781003  0.94188305  0.94334838  1
  Zn  Zn131  1  0.31450509  0.06271383  0.06018357  1
  Zn  Zn132  1  0.31465950  0.06467356  0.56597755  1
  Zn  Zn133  1  0.31186486  0.56522779  0.05999818  1
  Zn  Zn134  1  0.31242477  0.57636569  0.55875396  1
  Zn  Zn135  1  0.81523093  0.06718132  0.06544356  1
  Zn  Zn136  1  0.80912919  0.06696074  0.56202641  1
  Zn  Zn137  1  0.80891656  0.55809613  0.05818502  1
  Zn  Zn138  1  0.81117690  0.56080888  0.56364458  1
  Zn  Zn139  1  0.44150347  0.44001783  0.18700989  1
  Zn  Zn140  1  0.43938690  0.43902098  0.68793849  1
  Zn  Zn141  1  0.43905104  0.93331936  0.19572145  1
  Zn  Zn142  1  0.43784671  0.93306664  0.68711171  1
  Zn  Zn143  1  0.94210650  0.43783957  0.18540705  1
  Zn  Zn144  1  0.93811856  0.43845148  0.68683591  1
  Zn  Zn145  1  0.93855019  0.94183902  0.18722289  1
  Zn  Zn146  1  0.94390979  0.93730496  0.68695279  1
  Zn  Zn147  1  0.06536774  0.06001311  0.31513762  1
  Zn  Zn148  1  0.06422930  0.06437544  0.81436772  1
  Zn  Zn149  1  0.05306473  0.53778486  0.30271814  1
  Zn  Zn150  1  0.06458908  0.56602634  0.81142616  1
  Zn  Zn151  1  0.55889583  0.05795759  0.31070394  1
  Zn  Zn152  1  0.56627552  0.05972177  0.81451301  1
  Zn  Zn153  1  0.56274989  0.56247266  0.31379606  1
  Zn  Zn154  1  0.56637447  0.56127931  0.81492075  1
  Zn  Zn155  1  0.43669183  0.18346136  0.44067107  1
  Zn  Zn156  1  0.43756739  0.19027867  0.93965750  1
  Zn  Zn157  1  0.43491582  0.69212615  0.43649148  1
  Zn  Zn158  1  0.43269512  0.69674796  0.93598618  1
  Zn  Zn159  1  0.93640225  0.18570562  0.43961536  1
  Zn  Zn160  1  0.93514979  0.19372241  0.93873151  1
  Zn  Zn161  1  0.94659812  0.67824388  0.43588168  1
  Zn  Zn162  1  0.94033210  0.69001025  0.93880387  1
  Zn  Zn163  1  0.05250697  0.31218083  0.06157999  1
  Zn  Zn164  1  0.06462175  0.31294760  0.56442499  1
  Zn  Zn165  1  0.05850092  0.81047952  0.06911538  1
  Zn  Zn166  1  0.06949916  0.81075542  0.55726151  1
  Zn  Zn167  1  0.56179855  0.30763184  0.05791068  1
  Zn  Zn168  1  0.56033031  0.31180625  0.56369348  1
  Zn  Zn169  1  0.55740170  0.80581497  0.05988966  1
  Zn  Zn170  1  0.55595346  0.81997425  0.55594001  1
  O  O171  1  0.12523419  0.12036714  0.11465802  1
  O  O172  1  0.12447094  0.11763044  0.61964781  1
  O  O173  1  0.13087369  0.62159370  0.11080309  1
  O  O174  1  0.11767451  0.61525258  0.63098917  1
  O  O175  1  0.60687475  0.12780896  0.13052825  1
  O  O176  1  0.61572367  0.12016907  0.62103882  1
  O  O177  1  0.60836649  0.61258933  0.11971651  1
  O  O178  1  0.62583228  0.61630301  0.61788859  1
  O  O179  1  0.37852288  0.38844365  0.37683064  1
  O  O180  1  0.38025822  0.38437311  0.87989786  1
  O  O181  1  0.37397751  0.88551784  0.37231011  1
  O  O182  1  0.38249051  0.88003660  0.88411137  1
  O  O183  1  0.87090008  0.38492031  0.37045063  1
  O  O184  1  0.87382156  0.37077068  0.88727315  1
  O  O185  1  0.86703246  0.89158621  0.38833775  1
  O  O186  1  0.88027964  0.88281966  0.88433611  1
  O  O187  1  0.25703439  0.00520448  0.36761008  1
  O  O188  1  0.25937732  0.01010910  0.87532214  1
  O  O189  1  0.25560622  0.50828335  0.36902922  1
  O  O190  1  0.26023112  0.50867245  0.86834263  1
  O  O191  1  0.75594949  0.00559455  0.36799576  1
  O  O192  1  0.75905628  0.00792877  0.86725813  1
  O  O193  1  0.75357264  0.50644443  0.37790428  1
  O  O194  1  0.74241387  0.51259892  0.86597097  1
  O  O195  1  0.24461930  0.50410355  0.13029790  1
  O  O196  1  0.24421732  0.49863540  0.62751138  1
  O  O197  1  0.24766606  0.99328164  0.13208880  1
  O  O198  1  0.24009170  0.99974607  0.62667881  1
  O  O199  1  0.72554597  0.50787511  0.12273262  1
  O  O200  1  0.73721011  0.50275687  0.63253434  1
  O  O201  1  0.75143403  1.00577323  0.13938655  1
  O  O202  1  0.74340531  0.99647095  0.63116650  1
  O  O203  1  0.01610147  0.40070043  0.26150772  1
  O  O204  1  0.00750517  0.37079247  0.75155803  1
  O  O205  1  0.01750287  0.88159668  0.24449090  1
  O  O206  1  0.01357932  0.86973140  0.75231421  1
  O  O207  1  0.50452568  0.36888863  0.25718019  1
  O  O208  1  0.51334935  0.38098468  0.75623389  1
  O  O209  1  0.49981456  0.88416781  0.27570930  1
  O  O210  1  0.50791540  0.86684694  0.76295009  1
  O  O211  1  0.49163016  0.13124475  0.24560439  1
  O  O212  1  0.50666064  0.12800964  0.74031805  1
  O  O213  1  0.48755324  0.62026173  0.24445093  1
  O  O214  1  0.50392360  0.64165477  0.75745815  1
  O  O215  1  0.98751712  0.11781526  0.25268792  1
  O  O216  1  0.99394650  0.13331679  0.74912735  1
  O  O217  1  0.98895658  0.61824386  0.24714725  1
  O  O218  1  0.99875518  0.63032252  0.73957854  1
  O  O219  1  0.36815970  0.25797033  0.00858020  1
  O  O220  1  0.36376548  0.24958244  0.50541504  1
  O  O221  1  0.37641615  0.76351219  0.01313539  1
  O  O222  1  0.34906108  0.73850524  0.49199820  1
  O  O223  1  0.87709679  0.26591963  0.00939249  1
  O  O224  1  0.86444951  0.24260119  0.50912293  1
  O  O225  1  0.87030154  0.75913150  0.00324390  1
  O  O226  1  0.87650252  0.75767553  0.51365779  1
  O  O227  1  0.13618900  0.24615326  0.49626708  1
  O  O228  1  0.13154768  0.24551729  1.00051427  1
  O  O229  1  0.13562778  0.74503309  0.49227688  1
  O  O230  1  0.11995349  0.74398400  0.99136684  1
  O  O231  1  0.62845201  0.24271396  0.49512272  1
  O  O232  1  0.61821141  0.23924720  0.99217629  1
  O  O233  1  0.62660418  0.73921160  0.50512216  1
  O  O234  1  0.63437088  0.75560748  0.98979788  1
  O  O235  1  0.48678552  0.24187325  0.13154896  1
  O  O236  1  0.49158875  0.23706644  0.62191566  1
  O  O237  1  0.49378722  0.73379864  0.12404712  1
  O  O238  1  0.50597667  0.75673345  0.64126700  1
  O  O239  1  0.98286025  0.24852913  0.12490328  1
  O  O240  1  0.99410594  0.24934193  0.63411871  1
  O  O241  1  0.99716996  0.74323196  0.13653884  1
  O  O242  1  0.99750568  0.74328084  0.62743514  1
  O  O243  1  0.01546544  0.24986848  0.38257301  1
  O  O244  1  0.00209083  0.25267343  0.86136971  1
  O  O245  1  -0.03709748  0.75682706  0.36172400  1
  O  O246  1  0.01343646  0.75022215  0.86750231  1
  O  O247  1  0.50241890  0.25502642  0.37182149  1
  O  O248  1  0.49448168  0.26226001  0.87034114  1
  O  O249  1  0.50716648  0.75557689  0.37162021  1
  O  O250  1  0.50927894  0.75781682  0.87158403  1
  O  O251  1  0.24522783  0.13235174  0.49681115  1
  O  O252  1  0.24460505  0.13545697  0.99478878  1
  O  O253  1  0.24074936  0.62328644  0.47995933  1
  O  O254  1  0.24309775  0.62373676  0.98588056  1
  O  O255  1  0.73751883  0.13054583  0.49478172  1
  O  O256  1  0.75975863  0.12517028  0.98282105  1
  O  O257  1  0.73996913  0.62404914  0.49478977  1
  O  O258  1  0.75615537  0.64002689  0.99208156  1
  O  O259  1  0.25941025  0.36360618  -0.00695245  1
  O  O260  1  0.25301431  0.36818714  0.50699643  1
  O  O261  1  0.25879038  0.87931583  0.01139186  1
  O  O262  1  0.24340652  0.86105759  0.49740628  1
  O  O263  1  0.76123260  0.38016735  -0.00306280  1
  O  O264  1  0.73989038  0.35996849  0.49688379  1
  O  O265  1  0.76061602  0.86303495  -0.00790798  1
  O  O266  1  0.76308521  0.87445360  0.50890788  1
  O  O267  1  0.13680462  0.50542006  0.23082620  1
  O  O268  1  0.13007561  0.49495053  0.74172834  1
  O  O269  1  0.13619399  0.99576719  0.24560939  1
  O  O270  1  0.12471490  0.99424955  0.74245768  1
  O  O271  1  0.62066744  0.49138168  0.24196717  1
  O  O272  1  0.63024695  0.49529889  0.74213709  1
  O  O273  1  0.63988989  1.00465923  0.24741050  1
  O  O274  1  0.63123115  0.99383765  0.74025973  1
  O  O275  1  0.36315485  0.00316794  0.25529907  1
  O  O276  1  0.37407881  -0.00539403  0.76661880  1
  O  O277  1  0.36973238  0.50580939  0.25527179  1
  O  O278  1  0.37059142  0.50363282  0.75725050  1
  O  O279  1  0.86859818  0.00531124  0.25797678  1
  O  O280  1  0.87518635  0.00765084  0.75349302  1
  O  O281  1  0.86938765  0.50343228  0.25557408  1
  O  O282  1  0.85942748  0.49797284  0.74463908  1
  O  O283  1  0.12895940  0.35793588  0.37830586  1
  O  O284  1  0.12705818  0.37591879  0.86131127  1
  O  O285  1  0.12619477  0.88114825  0.35911324  1
  O  O286  1  0.12649947  0.86921119  0.87000250  1
  O  O287  1  0.61571806  0.37131049  0.36730020  1
  O  O288  1  0.61437311  0.37373884  0.86450555  1
  O  O289  1  0.62099076  0.86614366  0.37870129  1
  O  O290  1  0.62073975  0.87009682  0.87191920  1
  O  O291  1  0.38141890  0.13034724  0.13203478  1
  O  O292  1  0.38847704  0.12994996  0.62583376  1
  O  O293  1  0.38233783  0.63036974  0.12759487  1
  O  O294  1  0.37296922  0.63702302  0.62819758  1
  O  O295  1  0.88007836  0.13229241  0.13502277  1
  O  O296  1  0.87670688  0.12843581  0.63650604  1
  O  O297  1  0.87356868  0.61945119  0.13209011  1
  O  O298  1  0.88174022  0.63366083  0.62832288  1
  O  O299  1  0.26268551  0.24588597  0.11863925  1
  O  O300  1  0.25684697  0.25407678  0.61859738  1
  O  O301  1  0.25689355  0.75949794  0.12740261  1
  O  O302  1  0.24346846  0.75190054  0.60763235  1
  O  O303  1  0.77033466  0.24159703  0.12663829  1
  O  O304  1  0.75886904  0.24505515  0.61598135  1
  O  O305  1  0.74494057  0.75529509  0.11967532  1
  O  O306  1  0.75916395  0.75597338  0.62685974  1
  O  O307  1  0.24568327  0.24475763  0.38318760  1
  O  O308  1  0.24911648  0.24389285  0.88463926  1
  O  O309  1  0.24542962  0.73397120  0.37518818  1
  O  O310  1  0.24050496  0.74480297  0.87002784  1
  O  O311  1  0.74201168  0.24252724  0.38071966  1
  O  O312  1  0.75176991  0.23568953  0.86756271  1
  O  O313  1  0.75504525  0.73413617  0.38106225  1
  O  O314  1  0.74375380  0.74482370  0.87925364  1
  O  O315  1  0.00887781  0.12103752  -0.00184402  1
  O  O316  1  0.00725791  0.11700542  0.50294056  1
  O  O317  1  0.00889782  0.61911443  -0.00013654  1
  O  O318  1  -0.00252144  0.61318194  0.51319634  1
  O  O319  1  0.49232392  0.12425609  0.01739315  1
  O  O320  1  0.51200691  0.12679600  0.50823333  1
  O  O321  1  0.49274798  0.62561380  0.00674931  1
  O  O322  1  0.50856063  0.61793533  0.49245551  1
  O  O323  1  0.49896066  0.38391479  0.49321155  1
  O  O324  1  0.48584579  0.37194692  0.98969524  1
  O  O325  1  0.49745523  0.87625214  0.47808699  1
  O  O326  1  0.49350089  0.87219535  0.98993281  1
  O  O327  1  1.00211808  0.38423307  0.49831753  1
  O  O328  1  0.99316080  0.38364361  0.99268981  1
  O  O329  1  0.98980223  0.88276670  0.50720010  1
  O  O330  1  0.99539086  0.88499526  0.99959472  1
  O  O331  1  0.49237170  0.49655487  0.38378608  1
  O  O332  1  0.48898418  0.49396176  0.87033531  1
  O  O333  1  0.48445461  1.00135185  0.37701411  1
  O  O334  1  0.49577240  0.99175574  0.87364312  1
  O  O335  1  0.98749008  0.50011369  0.38914580  1
  O  O336  1  1.00466306  0.50241796  0.88656868  1
  O  O337  1  0.99324302  1.00337131  0.38784828  1
  O  O338  1  0.99593904  1.00107295  0.88626077  1
  O  O339  1  0.00690715  0.00622383  0.11378777  1
  O  O340  1  0.01109814  0.00222448  0.61521541  1
  O  O341  1  0.01249209  0.50347874  0.10969699  1
  O  O342  1  0.00651644  0.50575564  0.62089543  1
  O  O343  1  0.49821721  0.01357402  0.13436159  1
  O  O344  1  0.50761189  0.01216586  0.63149257  1
  O  O345  1  0.50369488  0.51333867  0.12306062  1
  O  O346  1  0.50702083  0.49766932  0.61292366  1
  O  O347  1  0.24473862  0.39091962  0.25446226  1
  O  O348  1  0.24394293  0.38348104  0.74508150  1
  O  O349  1  0.24295938  0.88033640  0.24292548  1
  O  O350  1  0.23898354  0.87870903  0.74912581  1
  O  O351  1  0.73105006  0.37421531  0.25060052  1
  O  O352  1  0.73336957  0.38500084  0.75685234  1
  O  O353  1  0.75403192  0.88363117  0.24624780  1
  O  O354  1  0.74581529  0.88021094  0.74583054  1
  O  O355  1  0.25479713  0.11604520  0.25439246  1
  O  O356  1  0.24365387  0.12528202  0.76588234  1
  O  O357  1  0.25967556  0.61612578  0.25840584  1
  O  O358  1  0.25032514  0.62075458  0.76160372  1
  O  O359  1  0.75902172  0.11750890  0.25753499  1
  O  O360  1  0.75891979  0.11963738  0.75444277  1
  O  O361  1  0.75347219  0.61143648  0.26058548  1
  O  O362  1  0.75266036  0.61731134  0.75780376  1
  O  O363  1  0.36973414  0.11753162  0.37007275  1
  O  O364  1  0.36799326  0.11706652  0.88362669  1
  O  O365  1  0.37419852  0.61508362  0.36619203  1
  O  O366  1  0.36926021  0.62089448  0.87459650  1
  O  O367  1  0.86970068  0.11604772  0.37148202  1
  O  O368  1  0.86932686  0.12302841  0.86453042  1
  O  O369  1  0.86650221  0.60964004  0.36961696  1
  O  O370  1  0.86419442  0.63355243  0.87036619  1
  O  O371  1  0.12612995  0.38451393  0.11829700  1
  O  O372  1  0.13182577  0.38191060  0.63490366  1
  O  O373  1  0.13403459  0.88154509  0.12785922  1
  O  O374  1  0.12756851  0.88349652  0.63183038  1
  O  O375  1  0.60819750  0.38770420  0.13037817  1
  O  O376  1  0.61853566  0.38284616  0.63662963  1
  O  O377  1  0.62439164  0.87331868  0.13076066  1
  O  O378  1  0.62829591  0.88321808  0.62766525  1
  O  O379  1  0.13221344  0.24975992  0.26442104  1
  O  O380  1  0.11752689  0.25952597  0.74879184  1
  O  O381  1  0.12680313  0.76384866  0.24811713  1
  O  O382  1  0.12297921  0.75747595  0.75559840  1
  O  O383  1  0.61819707  0.25548121  0.25538594  1
  O  O384  1  0.62908253  0.26442250  0.75039059  1
  O  O385  1  0.64573666  0.75426909  0.24158219  1
  O  O386  1  0.61886750  0.75559827  0.75814237  1
  O  O387  1  0.37548817  0.24683851  0.24541491  1
  O  O388  1  0.36731018  0.25307269  0.73969212  1
  O  O389  1  0.36889616  0.74124308  0.23687014  1
  O  O390  1  0.39318328  0.74897457  0.75955758  1
  O  O391  1  0.87457345  0.24431376  0.24284905  1
  O  O392  1  0.88070870  0.24507361  0.74275693  1
  O  O393  1  0.85992115  0.72689144  0.24018002  1
  O  O394  1  0.88463973  0.75453971  0.73964721  1
  O  O395  1  0.38084139  0.50245793  0.49280344  1
  O  O396  1  0.36826982  0.49177183  0.99090376  1
  O  O397  1  0.36688115  1.00067670  0.48706183  1
  O  O398  1  0.37282683  0.98826173  0.99216220  1
  O  O399  1  0.88072618  0.49991301  0.49420634  1
  O  O400  1  0.88245277  0.48583164  1.00539025  1
  O  O401  1  0.88246666  0.99732570  0.49725726  1
  O  O402  1  0.88236721  0.99620764  0.99728501  1
  O  O403  1  0.12004440  0.00778653  0.00305632  1
  O  O404  1  0.11954635  0.00361484  0.50477749  1
  O  O405  1  0.12261396  0.50784234  0.00162339  1
  O  O406  1  0.11796616  0.49361139  0.51223120  1
  O  O407  1  0.63250237  0.01172945  0.00860466  1
  O  O408  1  0.63199663  0.00688766  0.51250629  1
  O  O409  1  0.61828022  0.49138160  0.00761020  1
  O  O410  1  0.61763452  0.50866152  0.50766474  1
  O  O411  1  0.38062333  0.36812036  0.11762720  1
  O  O412  1  0.37099161  0.36748518  0.62432562  1
  O  O413  1  0.37239061  0.86971287  0.12210943  1
  O  O414  1  0.37432348  0.86325146  0.63001956  1
  O  O415  1  0.87467784  0.36845402  0.11948767  1
  O  O416  1  0.87536707  0.36347945  0.62698068  1
  O  O417  1  0.87758387  0.87641132  0.11331359  1
  O  O418  1  0.87227941  0.87040508  0.62127563  1
  O  O419  1  0.13200103  0.13426994  0.38051372  1
  O  O420  1  0.13317322  0.12742626  0.88648146  1
  O  O421  1  0.13034247  0.61466394  0.36203298  1
  O  O422  1  0.13274133  0.63288672  0.88269252  1
  O  O423  1  0.62566794  0.12806251  0.38196186  1
  O  O424  1  0.64255883  0.12517268  0.86966930  1
  O  O425  1  0.63231616  0.62758203  0.38154779  1
  O  O426  1  0.63483034  0.63630080  0.87299737  1
