# generated using pymatgen
data_V85Zn86O256
_symmetry_space_group_name_H-M   'P 1'
_cell_length_a   16.94661722
_cell_length_b   16.96062297
_cell_length_c   16.96481804
_cell_angle_alpha   89.94534208
_cell_angle_beta   90.02621955
_cell_angle_gamma   90.00220013
_symmetry_Int_Tables_number   1
_chemical_formula_structural   V85Zn86O256
_chemical_formula_sum   'V85 Zn86 O256'
_cell_volume   4876.11323851
_cell_formula_units_Z   1
loop_
 _symmetry_equiv_pos_site_id
 _symmetry_equiv_pos_as_xyz
  1  'x, y, z'
loop_
 _atom_site_type_symbol
 _atom_site_label
 _atom_site_symmetry_multiplicity
 _atom_site_fract_x
 _atom_site_fract_y
 _atom_site_fract_z
 _atom_site_occupancy
  V  V0  1  0.74946201  0.25048264  0.49815560  1
  V  V1  1  -0.00419202  0.13111199  0.63573984  1
  V  V2  1  0.49858643  0.62678403  0.62549307  1
  V  V3  1  0.62540111  -0.00412968  0.62882204  1
  V  V4  1  0.62467716  0.75117433  0.37374895  1
  V  V5  1  0.74961731  0.87794057  0.12561459  1
  V  V6  1  0.88663619  0.00553084  0.87071093  1
  V  V7  1  0.47876996  0.87602784  0.87994761  1
  V  V8  1  0.37269119  0.75112461  0.62075482  1
  V  V9  1  0.12429409  0.23293376  0.86612885  1
  V  V10  1  0.26225795  0.11970149  0.37848268  1
  V  V11  1  0.62594213  0.36735187  0.25167636  1
  V  V12  1  0.75536352  0.76130005  0.49978502  1
  V  V13  1  0.87748898  0.24884269  0.12265463  1
  V  V14  1  0.25345877  0.87990942  0.11725282  1
  V  V15  1  0.87491966  -0.00391366  0.38048219  1
  V  V16  1  0.12562597  0.87518958  0.25459681  1
  V  V17  1  0.24837081  0.24894345  0.50316594  1
  V  V18  1  0.87538407  0.24876500  0.63654312  1
  V  V19  1  0.12271079  0.00196810  0.10968797  1
  V  V20  1  0.87941331  0.75075654  0.12318310  1
  V  V21  1  0.62351209  0.37482820  0.74995842  1
  V  V22  1  0.12215450  0.38411805  0.23688424  1
  V  V23  1  0.48830331  0.24471224  0.75316906  1
  V  V24  1  0.12018372  0.62279909  0.48451266  1
  V  V25  1  0.49223966  0.37583675  0.87300966  1
  V  V26  1  0.62591934  0.62642969  0.50024929  1
  V  V27  1  0.01255618  0.37322053  0.86270702  1
  V  V28  1  0.88064363  0.88471433  0.00033225  1
  V  V29  1  0.25668065  0.00158698  0.25351301  1
  V  V30  1  0.12121316  0.11996397  0.49936967  1
  V  V31  1  0.62444971  0.24738964  0.87355305  1
  V  V32  1  0.87843702  0.76354071  0.62310596  1
  V  V33  1  0.75689856  0.12509240  0.86954007  1
  V  V34  1  0.87486878  0.49846173  0.87916526  1
  V  V35  1  0.75104249  0.50151001  0.25024088  1
  V  V36  1  0.35978611  0.62973943  0.25321266  1
  V  V37  1  0.37705372  0.75675064  0.11784689  1
  V  V38  1  0.62319080  0.50106581  0.62520747  1
  V  V39  1  0.01334695  0.49595299  0.00198075  1
  V  V40  1  0.74538258  0.75275633  -0.00425451  1
  V  V41  1  0.12582230  0.73716929  0.87527492  1
  V  V42  1  0.30481369  0.05873249  0.79578020  1
  V  V43  1  0.00358944  0.11959467  0.11303982  1
  V  V44  1  0.12417442  0.24840224  0.37425236  1
  V  V45  1  0.61609886  0.11845873  0.00006785  1
  V  V46  1  0.37252900  0.37568856  0.50261211  1
  V  V47  1  0.87733966  0.62544105  0.25041417  1
  V  V48  1  0.00177508  0.38040070  0.37885796  1
  V  V49  1  0.36038676  0.50409900  0.37794753  1
  V  V50  1  0.50074099  0.74859487  0.24958542  1
  V  V51  1  0.23977107  0.23480804  0.00499848  1
  V  V52  1  0.00679044  0.62142379  0.12247664  1
  V  V53  1  0.24233909  0.49966007  0.75405233  1
  V  V54  1  0.62725750  0.50203625  0.12285205  1
  V  V55  1  0.87715263  0.62724625  0.74689185  1
  V  V56  1  0.49225926  0.12200649  0.63142899  1
  V  V57  1  0.24352857  0.37660432  0.63109554  1
  V  V58  1  0.50015923  0.62504557  0.12624152  1
  V  V59  1  0.49816165  0.50086439  0.49978983  1
  V  V60  1  0.24593990  0.74303506  0.48487232  1
  V  V61  1  0.00997861  0.87433247  0.88003860  1
  V  V62  1  -0.00255120  -0.00208101  0.50576547  1
  V  V63  1  0.36905104  0.62621648  0.75344869  1
  V  V64  1  0.36715038  0.50312654  0.87861925  1
  V  V65  1  0.75047827  0.62643615  0.37482087  1
  V  V66  1  0.62427470  0.12371274  0.50163620  1
  V  V67  1  0.49915953  0.37141251  0.37407594  1
  V  V68  1  0.00303676  0.24718771  0.24982436  1
  V  V69  1  0.23967226  0.87400806  0.62468189  1
  V  V70  1  0.25131222  0.74731806  -0.00529759  1
  V  V71  1  0.62985007  0.87121517  0.76548241  1
  V  V72  1  0.38580314  0.13903529  0.23862562  1
  V  V73  1  0.75214082  0.37509717  0.12256776  1
  V  V74  1  0.11739354  0.50334758  0.62317491  1
  V  V75  1  0.74446728  0.63111225  0.87383170  1
  V  V76  1  0.75074868  0.00113336  0.24947908  1
  V  V77  1  0.28778815  0.45747708  0.19955091  1
  V  V78  1  0.49281969  0.88007009  0.37703977  1
  V  V79  1  0.49965078  0.50179635  -0.00281079  1
  V  V80  1  0.87918973  0.38005093  0.50067245  1
  V  V81  1  0.00234544  0.87156496  0.37898873  1
  V  V82  1  0.74886322  0.37481034  0.62462666  1
  V  V83  1  0.87731066  0.12422273  0.25022061  1
  V  V84  1  0.74823564  0.50149512  0.75091163  1
  Zn  Zn85  1  0.36684149  0.88279541  0.49499897  1
  Zn  Zn86  1  0.00789173  0.74797796  0.25576385  1
  Zn  Zn87  1  0.16540998  0.03563495  0.67232579  1
  Zn  Zn88  1  0.36857793  0.32999969  0.04207639  1
  Zn  Zn89  1  0.61987131  0.24563724  0.37250561  1
  Zn  Zn90  1  0.61642792  0.01204771  0.13017328  1
  Zn  Zn91  1  0.47700043  -0.00471667  0.00627554  1
  Zn  Zn92  1  0.87846714  0.50355107  0.38139238  1
  Zn  Zn93  1  0.62307464  0.87842142  0.24919248  1
  Zn  Zn94  1  0.00266237  0.74811688  0.74820435  1
  Zn  Zn95  1  0.75458465  0.88054533  0.62483998  1
  Zn  Zn96  1  0.74829046  0.12494638  0.37430840  1
  Zn  Zn97  1  0.13459934  0.61810497  0.00241574  1
  Zn  Zn98  1  0.87808130  0.37367434  -0.00175968  1
  Zn  Zn99  1  0.75955879  0.00216583  0.74777891  1
  Zn  Zn100  1  0.36989044  0.24747785  0.63080120  1
  Zn  Zn101  1  0.75060657  0.24835246  -0.00074360  1
  Zn  Zn102  1  0.62365035  0.63196070  -0.00418636  1
  Zn  Zn103  1  0.49584584  0.00186307  0.49810941  1
  Zn  Zn104  1  -0.00211496  0.62404325  0.61707644  1
  Zn  Zn105  1  0.50395113  0.75027774  0.75354150  1
  Zn  Zn106  1  0.12979432  0.86968925  0.75105091  1
  Zn  Zn107  1  0.18919315  0.18485746  0.18852045  1
  Zn  Zn108  1  0.17912607  0.20072064  0.69266397  1
  Zn  Zn109  1  0.18697949  0.69294687  0.18498671  1
  Zn  Zn110  1  0.18677546  0.68631016  0.68411460  1
  Zn  Zn111  1  0.68826677  0.18725479  0.18436872  1
  Zn  Zn112  1  0.68533523  0.18545947  0.68830655  1
  Zn  Zn113  1  0.68860032  0.69005404  0.18527054  1
  Zn  Zn114  1  0.69015034  0.69214210  0.68630489  1
  Zn  Zn115  1  0.31091151  0.30939815  0.31692918  1
  Zn  Zn116  1  0.30369967  0.31238040  0.82308522  1
  Zn  Zn117  1  0.31241730  0.81369466  0.30648649  1
  Zn  Zn118  1  0.30876508  0.80767516  0.80687660  1
  Zn  Zn119  1  0.81390820  0.31177294  0.31291251  1
  Zn  Zn120  1  0.81212821  0.31545891  0.81521202  1
  Zn  Zn121  1  0.81667555  0.81399650  0.31221433  1
  Zn  Zn122  1  0.81718419  0.81658089  0.81144011  1
  Zn  Zn123  1  0.18214251  0.43604752  0.44098053  1
  Zn  Zn124  1  0.19524378  0.42362352  0.94671717  1
  Zn  Zn125  1  0.18664015  0.93743194  0.44016828  1
  Zn  Zn126  1  0.29870147  0.94586913  0.93692843  1
  Zn  Zn127  1  0.68845521  0.43856500  0.43679762  1
  Zn  Zn128  1  0.68545658  0.43799795  0.93815550  1
  Zn  Zn129  1  0.68308816  0.93919360  0.43630629  1
  Zn  Zn130  1  0.69530600  0.94297457  0.93663941  1
  Zn  Zn131  1  0.30644115  0.07684891  0.06386902  1
  Zn  Zn132  1  0.31701609  0.05793594  0.56001170  1
  Zn  Zn133  1  0.31718175  0.56809675  0.06051291  1
  Zn  Zn134  1  0.30652161  0.56454769  0.56353025  1
  Zn  Zn135  1  0.80968505  0.06581516  0.05819005  1
  Zn  Zn136  1  0.81383816  0.06294031  0.56378338  1
  Zn  Zn137  1  0.81564389  0.56485426  0.06032265  1
  Zn  Zn138  1  0.81153659  0.56540378  0.56304805  1
  Zn  Zn139  1  0.46257997  0.40109839  0.16578986  1
  Zn  Zn140  1  0.43205008  0.43748385  0.68912011  1
  Zn  Zn141  1  0.43776258  0.94289457  0.18955900  1
  Zn  Zn142  1  0.43932817  0.93203909  0.68764163  1
  Zn  Zn143  1  0.93981898  0.43824500  0.18743553  1
  Zn  Zn144  1  0.93485594  0.43890955  0.68779789  1
  Zn  Zn145  1  0.94020426  0.93847967  0.18952735  1
  Zn  Zn146  1  0.98467145  0.96810240  0.71677666  1
  Zn  Zn147  1  0.06558112  0.05850270  0.31166517  1
  Zn  Zn148  1  0.11818998  0.02422451  0.85588768  1
  Zn  Zn149  1  0.06151982  0.55947866  0.31022980  1
  Zn  Zn150  1  0.06059303  0.55975222  0.81329738  1
  Zn  Zn151  1  0.56218913  0.06421654  0.31177177  1
  Zn  Zn152  1  0.55957756  0.05614820  0.81502173  1
  Zn  Zn153  1  0.55820912  0.55844407  0.31075225  1
  Zn  Zn154  1  0.55989283  0.56552202  0.81096743  1
  Zn  Zn155  1  0.43719020  0.18880613  0.44210112  1
  Zn  Zn156  1  0.42556598  0.17006939  0.93029865  1
  Zn  Zn157  1  0.43509524  0.68840798  0.43661928  1
  Zn  Zn158  1  0.44010336  0.69094844  0.93448238  1
  Zn  Zn159  1  0.93482116  0.18883257  0.43855190  1
  Zn  Zn160  1  0.94331714  0.19024223  0.93451507  1
  Zn  Zn161  1  0.93826585  0.68931904  0.43857095  1
  Zn  Zn162  1  0.93649793  0.68702619  0.93880740  1
  Zn  Zn163  1  0.06446878  0.30847622  0.05645990  1
  Zn  Zn164  1  0.06261023  0.31094649  0.56488703  1
  Zn  Zn165  1  0.06746323  0.81322013  0.06218005  1
  Zn  Zn166  1  0.06117430  0.80589519  0.55670728  1
  Zn  Zn167  1  0.56173875  0.30882760  0.05514801  1
  Zn  Zn168  1  0.55986599  0.30986332  0.56357383  1
  Zn  Zn169  1  0.56088335  0.82316510  0.06249535  1
  Zn  Zn170  1  0.56345931  0.81284606  0.56292188  1
  O  O171  1  0.11646265  0.10973323  0.13330147  1
  O  O172  1  0.11181999  0.12879626  0.61687935  1
  O  O173  1  0.10957871  0.63334780  0.12366617  1
  O  O174  1  0.12198012  0.61772457  0.61649565  1
  O  O175  1  0.62688184  0.12975408  0.10575099  1
  O  O176  1  0.61892598  0.11510830  0.62112036  1
  O  O177  1  0.61917640  0.61883864  0.12467827  1
  O  O178  1  0.61995356  0.62127977  0.62121718  1
  O  O179  1  0.38079297  0.38309236  0.38052361  1
  O  O180  1  0.38572325  0.38511934  0.86876846  1
  O  O181  1  0.38996038  0.86776468  0.37424666  1
  O  O182  1  0.37487026  0.87660550  0.87231305  1
  O  O183  1  0.88207871  0.37516044  0.38293561  1
  O  O184  1  0.88003358  0.38421800  0.87757169  1
  O  O185  1  0.88373819  0.88902710  0.36912879  1
  O  O186  1  0.88329437  0.88141375  0.88478800  1
  O  O187  1  0.24415104  0.00936493  0.36789184  1
  O  O188  1  0.23707993  0.00270564  0.85745338  1
  O  O189  1  0.26126746  0.49578232  0.38211447  1
  O  O190  1  0.26007076  0.49387967  0.86974553  1
  O  O191  1  0.75690941  -0.00020108  0.36825954  1
  O  O192  1  0.76596480  0.00856424  0.87261522  1
  O  O193  1  0.75272660  0.50791245  0.36797695  1
  O  O194  1  0.75668297  0.50553455  0.87089982  1
  O  O195  1  0.24108403  0.51807089  0.13602035  1
  O  O196  1  0.24186105  0.49501889  0.63338425  1
  O  O197  1  0.24008675  0.99578406  0.13237430  1
  O  O198  1  0.24484573  0.97866444  0.60962183  1
  O  O199  1  0.74889294  0.49447282  0.12892739  1
  O  O200  1  0.74309843  0.49575150  0.63115065  1
  O  O201  1  0.75023931  0.99356254  0.13194332  1
  O  O202  1  0.74338136  1.00027469  0.62872922  1
  O  O203  1  0.00764276  0.36881681  0.25609330  1
  O  O204  1  -0.00432605  0.38150884  0.76504408  1
  O  O205  1  0.00849079  0.87706876  0.25911233  1
  O  O206  1  -0.00489797  0.86469195  0.77182793  1
  O  O207  1  0.51448528  0.38497177  0.26349608  1
  O  O208  1  0.50531811  0.37019811  0.75593741  1
  O  O209  1  0.50233964  0.86652054  0.26195359  1
  O  O210  1  0.51124357  0.87419223  0.76102304  1
  O  O211  1  0.48509519  0.12235401  0.25435141  1
  O  O212  1  0.50823572  0.13374914  0.74389971  1
  O  O213  1  0.49513970  0.63081026  0.24340704  1
  O  O214  1  0.49042091  0.62708757  0.74161458  1
  O  O215  1  0.99454853  0.12914144  0.24571325  1
  O  O216  1  0.99814436  0.11914450  0.73068808  1
  O  O217  1  0.99373664  0.62702485  0.24385244  1
  O  O218  1  0.98530258  0.62459220  0.75152306  1
  O  O219  1  0.35017775  0.23077509  -0.01343729  1
  O  O220  1  0.36580189  0.25694660  0.50534268  1
  O  O221  1  0.37079052  0.74464460  0.01207197  1
  O  O222  1  0.36307317  0.74826819  0.50491064  1
  O  O223  1  0.87474140  0.25172149  0.01257242  1
  O  O224  1  0.86558899  0.25981568  0.50591309  1
  O  O225  1  0.86741056  0.75733269  0.00809138  1
  O  O226  1  0.86547487  0.74385316  0.50950493  1
  O  O227  1  0.12896417  0.24013460  0.49497314  1
  O  O228  1  0.13113032  0.25929383  0.98089767  1
  O  O229  1  0.13607428  0.73581416  0.49874075  1
  O  O230  1  0.13502019  0.74760675  0.99433599  1
  O  O231  1  0.63325679  0.24331166  0.50143410  1
  O  O232  1  0.62465660  0.24271544  0.98744940  1
  O  O233  1  0.63280207  0.74450495  0.49322256  1
  O  O234  1  0.64205263  0.75124739  1.00796100  1
  O  O235  1  0.46342909  0.30701272  0.10293521  1
  O  O236  1  0.49965162  0.24223450  0.63674133  1
  O  O237  1  0.49443473  0.74899534  0.12880211  1
  O  O238  1  0.49091575  0.74439647  0.62439688  1
  O  O239  1  0.99518262  0.24290640  0.12997217  1
  O  O240  1  0.99050946  0.24045382  0.62134104  1
  O  O241  1  0.98965484  0.74605470  0.12545799  1
  O  O242  1  0.99171991  0.74572050  0.62640484  1
  O  O243  1  0.00335491  0.25738374  0.36866135  1
  O  O244  1  0.00762325  0.26683689  0.88042926  1
  O  O245  1  -0.00778400  0.76729748  0.37391433  1
  O  O246  1  0.00741910  0.75439729  0.87729658  1
  O  O247  1  0.50156264  0.26730181  0.38533011  1
  O  O248  1  0.50345144  0.25665661  0.87058775  1
  O  O249  1  0.50846715  0.75391416  0.37047328  1
  O  O250  1  0.49508371  0.76709123  0.86944279  1
  O  O251  1  0.24197736  0.12788683  0.49710736  1
  O  O252  1  0.22998940  0.13389688  1.00067243  1
  O  O253  1  0.24114520  0.63602845  0.50037208  1
  O  O254  1  0.25001823  0.64141317  1.00455198  1
  O  O255  1  0.73962073  0.13244707  0.50118670  1
  O  O256  1  0.74082780  0.12900019  0.98756279  1
  O  O257  1  0.74385589  0.63156965  0.49233332  1
  O  O258  1  0.75140401  0.63450953  0.99122608  1
  O  O259  1  0.26597426  0.35359965  -0.00573528  1
  O  O260  1  0.25357616  0.36900638  0.50736734  1
  O  O261  1  0.25271827  0.86673237  0.01250230  1
  O  O262  1  0.24727593  0.86011055  0.50492159  1
  O  O263  1  0.75137313  0.37417422  0.01227461  1
  O  O264  1  0.75338474  0.36814435  0.50610269  1
  O  O265  1  0.75932825  0.87101992  0.00653749  1
  O  O266  1  0.74566328  0.86399180  0.50027018  1
  O  O267  1  0.12235864  0.48361242  0.25087288  1
  O  O268  1  0.13719260  0.50893803  0.74326834  1
  O  O269  1  0.13510124  0.99093867  0.24590077  1
  O  O270  1  0.10031403  0.98296316  0.74672667  1
  O  O271  1  0.63296208  0.49237098  0.24383542  1
  O  O272  1  0.62886656  0.49626704  0.74453995  1
  O  O273  1  0.63839670  1.00064994  0.24855981  1
  O  O274  1  0.62841317  0.98814551  0.74476110  1
  O  O275  1  0.36120423  0.00833990  0.24787581  1
  O  O276  1  0.36406646  -0.00258733  0.74328229  1
  O  O277  1  0.36142965  0.50889040  0.25742225  1
  O  O278  1  0.36623710  0.50734429  0.75647523  1
  O  O279  1  0.86670784  0.00470229  0.25493614  1
  O  O280  1  0.88162890  -0.00296701  0.76778151  1
  O  O281  1  0.87055048  0.51252161  0.24941296  1
  O  O282  1  0.86740691  0.50668189  0.75838149  1
  O  O283  1  0.11715434  0.36763485  0.37244767  1
  O  O284  1  0.11290749  0.38300023  0.87244951  1
  O  O285  1  0.11547744  0.88185861  0.36687791  1
  O  O286  1  0.11265669  0.86409913  0.87825324  1
  O  O287  1  0.61916776  0.37515414  0.36823283  1
  O  O288  1  0.61936546  0.36778569  0.86844285  1
  O  O289  1  0.61987396  0.86229087  0.37310661  1
  O  O290  1  0.63168714  0.87565740  0.86577102  1
  O  O291  1  0.37237017  0.13044221  0.14023144  1
  O  O292  1  0.38896419  0.12741415  0.62217729  1
  O  O293  1  0.38250771  0.63361591  0.13458946  1
  O  O294  1  0.37845153  0.63291128  0.62905365  1
  O  O295  1  0.88026806  0.13064004  0.12982712  1
  O  O296  1  0.88534454  0.13674816  0.61713352  1
  O  O297  1  0.88196077  0.63328758  0.13035527  1
  O  O298  1  0.87671706  0.62866882  0.63302371  1
  O  O299  1  0.23539884  0.24721314  0.10702985  1
  O  O300  1  0.24875705  0.25955444  0.62219787  1
  O  O301  1  0.25752551  0.75991114  0.11868430  1
  O  O302  1  0.25632568  0.75420412  0.61422448  1
  O  O303  1  0.75933017  0.25829882  0.12396198  1
  O  O304  1  0.75335841  0.25386896  0.61656214  1
  O  O305  1  0.76298464  0.75654536  0.12069581  1
  O  O306  1  0.75788586  0.75205269  0.61447465  1
  O  O307  1  0.24267213  0.24227254  0.38437815  1
  O  O308  1  0.23073736  0.24455981  0.87463102  1
  O  O309  1  0.25527532  0.75256987  0.38675109  1
  O  O310  1  0.23978425  0.75705946  0.88397447  1
  O  O311  1  0.74877100  0.24943739  0.38775835  1
  O  O312  1  0.74146022  0.24631372  0.87645732  1
  O  O313  1  0.74523022  0.74704301  0.37985964  1
  O  O314  1  0.75965843  0.74272237  0.88372620  1
  O  O315  1  -0.00266340  0.12692084  0.01462184  1
  O  O316  1  0.00645126  0.11978369  0.49989565  1
  O  O317  1  -0.00071594  0.61504045  0.00701689  1
  O  O318  1  0.01490416  0.62787838  0.49823007  1
  O  O319  1  0.51341554  0.11874535  -0.01377111  1
  O  O320  1  0.51162081  0.12814301  0.50996534  1
  O  O321  1  0.50350502  0.61835996  0.00387267  1
  O  O322  1  0.50586929  0.62103164  0.50573064  1
  O  O323  1  0.49330895  0.38209535  0.49776690  1
  O  O324  1  0.51119111  0.39281960  0.98136499  1
  O  O325  1  0.50057604  0.86978337  0.48449750  1
  O  O326  1  0.49794828  0.87213867  0.98216944  1
  O  O327  1  0.99065096  0.36758254  0.49172425  1
  O  O328  1  0.99717423  0.38409555  0.99438398  1
  O  O329  1  1.00816499  0.88649871  0.49291337  1
  O  O330  1  0.99064761  0.86458148  0.99192328  1
  O  O331  1  0.49360678  0.49132885  0.38336740  1
  O  O332  1  0.49200585  0.49609570  0.87669297  1
  O  O333  1  0.51069592  0.98166865  0.37528186  1
  O  O334  1  0.50273211  0.97980871  0.87803475  1
  O  O335  1  0.99640301  0.48460701  0.37168223  1
  O  O336  1  0.99296500  0.49325155  0.88218193  1
  O  O337  1  0.99299716  0.99507563  0.38365961  1
  O  O338  1  1.00170469  0.98224717  0.88353489  1
  O  O339  1  0.01239799  0.00488791  0.12860959  1
  O  O340  1  -0.01071407  0.01461957  0.61097356  1
  O  O341  1  -0.00729053  0.50889650  0.11353464  1
  O  O342  1  0.01363930  0.49986488  0.63005115  1
  O  O343  1  0.51188229  -0.02579474  0.11410591  1
  O  O344  1  0.50831093  0.00623536  0.62690818  1
  O  O345  1  0.50562476  0.50159675  0.11332458  1
  O  O346  1  0.50315633  0.50575236  0.62025314  1
  O  O347  1  0.23748283  0.37909987  0.25319830  1
  O  O348  1  0.25536120  0.38606809  0.74126016  1
  O  O349  1  0.24515347  0.88292744  0.24324470  1
  O  O350  1  0.24811777  0.86736695  0.72867520  1
  O  O351  1  0.74746960  0.38041695  0.24142848  1
  O  O352  1  0.74296574  0.38156062  0.74439510  1
  O  O353  1  0.75256435  0.88334442  0.24249716  1
  O  O354  1  0.74084960  0.87837497  0.74799855  1
  O  O355  1  0.25466126  0.11933914  0.26101959  1
  O  O356  1  0.24040956  0.10916740  0.72828923  1
  O  O357  1  0.26039192  0.63772345  0.25241597  1
  O  O358  1  0.26198973  0.61663130  0.74409438  1
  O  O359  1  0.75675012  0.11815899  0.25023644  1
  O  O360  1  0.74518330  0.12394931  0.76507429  1
  O  O361  1  0.75750033  0.62295052  0.25478287  1
  O  O362  1  0.75801575  0.62262237  0.75495712  1
  O  O363  1  0.36416587  0.12841721  0.37589077  1
  O  O364  1  0.36366698  0.12095852  0.84754078  1
  O  O365  1  0.38404101  0.61454965  0.36408934  1
  O  O366  1  0.38059740  0.61638910  0.86404037  1
  O  O367  1  0.87280795  0.11594773  0.36812723  1
  O  O368  1  0.87112881  0.11749090  0.88375126  1
  O  O369  1  0.87179585  0.62441272  0.36678903  1
  O  O370  1  0.86642328  0.61799139  0.86852263  1
  O  O371  1  0.11629521  0.37289966  0.13879883  1
  O  O372  1  0.13584972  0.38459766  0.61670826  1
  O  O373  1  0.13182093  0.88527029  0.13033231  1
  O  O374  1  0.13672615  0.86300396  0.62402022  1
  O  O375  1  0.63380764  0.37953941  0.13150903  1
  O  O376  1  0.62869695  0.38019823  0.63018853  1
  O  O377  1  0.64344533  0.87051907  0.12876279  1
  O  O378  1  0.62520622  0.88701225  0.62821397  1
  O  O379  1  0.12192731  0.25740857  0.25700163  1
  O  O380  1  0.11740424  0.25602475  0.76640569  1
  O  O381  1  0.12402659  0.76899402  0.24346163  1
  O  O382  1  0.12387898  0.74861500  0.75964642  1
  O  O383  1  0.63166841  0.26299062  0.25192314  1
  O  O384  1  0.61791444  0.25403962  0.76015998  1
  O  O385  1  0.62056515  0.75081504  0.25814580  1
  O  O386  1  0.62398755  0.76794804  0.74186522  1
  O  O387  1  0.37222113  0.23812431  0.25580070  1
  O  O388  1  0.38623295  0.25887889  0.75109212  1
  O  O389  1  0.38179170  0.74462576  0.24199467  1
  O  O390  1  0.37555628  0.74094585  0.73966415  1
  O  O391  1  0.88034433  0.24569778  0.24029031  1
  O  O392  1  0.86680728  0.25515408  0.73542737  1
  O  O393  1  0.87681174  0.73988691  0.24239044  1
  O  O394  1  0.87349095  0.74177681  0.74074417  1
  O  O395  1  0.37820322  0.49786813  0.49545504  1
  O  O396  1  0.38467580  0.50661299  0.99005862  1
  O  O397  1  0.38342442  0.99467897  0.49811161  1
  O  O398  1  0.36575772  1.01130764  0.99660429  1
  O  O399  1  0.86765287  0.48480057  0.50100372  1
  O  O400  1  0.87989439  0.50053412  0.98781572  1
  O  O401  1  0.88177855  1.00479728  0.48974589  1
  O  O402  1  0.87249601  0.98887951  0.99590992  1
  O  O403  1  0.12704659  -0.00413045  0.01414858  1
  O  O404  1  0.11538670  0.01275178  0.49671034  1
  O  O405  1  0.11714845  0.49971959  -0.00409778  1
  O  O406  1  0.13233926  0.51480360  0.50855330  1
  O  O407  1  0.63094384  0.01491375  -0.00056524  1
  O  O408  1  0.62146894  0.00778417  0.50845347  1
  O  O409  1  0.61974626  0.50683304  0.00492642  1
  O  O410  1  0.62038947  0.50640716  0.50583866  1
  O  O411  1  0.34918919  0.40644854  0.13826305  1
  O  O412  1  0.36282397  0.37624829  0.61873865  1
  O  O413  1  0.36471608  0.86566822  0.13563788  1
  O  O414  1  0.36879749  0.86136439  0.62116679  1
  O  O415  1  0.86889751  0.36739112  0.12573210  1
  O  O416  1  0.86954762  0.37012238  0.61877279  1
  O  O417  1  0.87048926  0.87023113  0.12055664  1
  O  O418  1  0.87427205  0.86291250  0.62979912  1
  O  O419  1  0.13027925  0.13091768  0.38140377  1
  O  O420  1  0.10512842  0.13564071  0.87192156  1
  O  O421  1  0.12322487  0.61923288  0.38528323  1
  O  O422  1  0.11971651  0.63398139  0.88022004  1
  O  O423  1  0.62639516  0.12694704  0.38603048  1
  O  O424  1  0.63093821  0.13100662  0.88042627  1
  O  O425  1  0.62776700  0.63468862  0.37780494  1
  O  O426  1  0.64003946  0.62282831  0.87257833  1
