# generated using pymatgen
data_V85Zn86O256
_symmetry_space_group_name_H-M   'P 1'
_cell_length_a   16.92684388
_cell_length_b   16.92785623
_cell_length_c   16.92490934
_cell_angle_alpha   90.01835743
_cell_angle_beta   90.04280800
_cell_angle_gamma   89.93365373
_symmetry_Int_Tables_number   1
_chemical_formula_structural   V85Zn86O256
_chemical_formula_sum   'V85 Zn86 O256'
_cell_volume   4849.57708684
_cell_formula_units_Z   1
loop_
 _symmetry_equiv_pos_site_id
 _symmetry_equiv_pos_as_xyz
  1  'x, y, z'
loop_
 _atom_site_type_symbol
 _atom_site_label
 _atom_site_symmetry_multiplicity
 _atom_site_fract_x
 _atom_site_fract_y
 _atom_site_fract_z
 _atom_site_occupancy
  V  V0  1  0.24759244  0.12396934  0.87220840  1
  V  V1  1  0.61882383  0.86335901  0.24671093  1
  V  V2  1  0.24233685  0.38053716  0.62580039  1
  V  V3  1  0.37386434  0.25119610  0.62617286  1
  V  V4  1  -0.00202635  0.24718613  0.24551049  1
  V  V5  1  0.87342433  0.24851431  0.62515316  1
  V  V6  1  0.74489026  0.50231233  0.74560493  1
  V  V7  1  0.00089698  0.49939140  0.51191887  1
  V  V8  1  0.62546181  0.25025547  0.87335654  1
  V  V9  1  0.49690445  0.11956951  0.62256091  1
  V  V10  1  0.87252608  0.00030920  0.37382411  1
  V  V11  1  0.74737703  0.25216051  0.00760865  1
  V  V12  1  0.25400268  0.12298611  0.37250905  1
  V  V13  1  0.24450877  0.74452225  0.01301436  1
  V  V14  1  0.87446101  -0.00583566  0.87502935  1
  V  V15  1  -0.00282955  0.64285243  0.12249982  1
  V  V16  1  0.62428288  0.75123932  0.87149151  1
  V  V17  1  0.74752220  0.12094609  0.87210572  1
  V  V18  1  0.75176121  0.75517296  0.01295529  1
  V  V19  1  0.12484226  -0.00757282  0.62989262  1
  V  V20  1  0.37861924  0.12614643  0.23391930  1
  V  V21  1  0.50996622  0.62429049  0.62694424  1
  V  V22  1  0.25146877  0.50240724  0.24786628  1
  V  V23  1  0.12591474  0.62119191  0.50391379  1
  V  V24  1  0.38065991  0.75387078  0.60446826  1
  V  V25  1  0.88277589  0.75137887  0.62718942  1
  V  V26  1  0.87958514  0.62934927  0.75018650  1
  V  V27  1  0.87504831  0.50036880  0.88109257  1
  V  V28  1  0.87620005  0.50267538  0.36427672  1
  V  V29  1  0.12646809  0.24848720  0.37421076  1
  V  V30  1  0.49736608  0.24847613  0.23397577  1
  V  V31  1  0.25216537  0.24791717  0.00838853  1
  V  V32  1  0.49796299  0.00509191  0.00441744  1
  V  V33  1  0.24470240  0.50105310  0.75026094  1
  V  V34  1  0.74286462  0.75112682  0.49796306  1
  V  V35  1  0.49842784  0.25169519  0.74829842  1
  V  V36  1  0.74952655  0.24658423  0.49945170  1
  V  V37  1  0.36922151  0.50753499  0.87581105  1
  V  V38  1  0.61868371  0.24906101  0.37471225  1
  V  V39  1  0.19134214  0.68252406  0.82522622  1
  V  V40  1  0.50667730  0.86199685  0.38489602  1
  V  V41  1  0.62390745  0.37965967  0.74620894  1
  V  V42  1  0.74489369  0.62811136  0.37028521  1
  V  V43  1  0.51398627  0.49717097  0.50115118  1
  V  V44  1  0.25515164  0.87336719  0.60571448  1
  V  V45  1  0.74919881  -0.00512133  0.24297761  1
  V  V46  1  0.62544397  0.87600797  0.75184167  1
  V  V47  1  0.87034882  0.37695557  0.00807824  1
  V  V48  1  0.25075000  0.25059805  0.49945622  1
  V  V49  1  0.12374950  0.25069408  0.87316137  1
  V  V50  1  -0.00190235  0.37639880  0.88017551  1
  V  V51  1  0.00092151  -0.00104079  0.49835972  1
  V  V52  1  0.25146622  0.63056153  0.38115093  1
  V  V53  1  0.49943317  0.50305572  0.00453378  1
  V  V54  1  0.62444931  0.62838105  0.00193426  1
  V  V55  1  0.87588595  0.87192850  0.01273047  1
  V  V56  1  0.74424679  0.38101481  0.61874278  1
  V  V57  1  0.12879224  0.86908965  0.24395554  1
  V  V58  1  0.49409971  0.63847158  0.13286528  1
  V  V59  1  0.87976089  0.64606486  0.24947850  1
  V  V60  1  0.74991449  0.62776542  0.87563525  1
  V  V61  1  0.87169820  0.11932338  0.75075677  1
  V  V62  1  0.38975633  0.00091593  0.38670020  1
  V  V63  1  0.37444409  -0.00154964  0.87421394  1
  V  V64  1  0.37629840  0.50083644  0.37378370  1
  V  V65  1  0.63700844  0.49794689  0.13130312  1
  V  V66  1  0.00090916  0.12360866  0.62660831  1
  V  V67  1  0.37551217  0.37692239  0.50072050  1
  V  V68  1  0.12195168  0.74919136  0.38012772  1
  V  V69  1  0.49865312  0.37740017  0.87325476  1
  V  V70  1  0.75096671  0.87871911  0.62860929  1
  V  V71  1  0.38085001  0.63744751  0.75191442  1
  V  V72  1  0.62526921  0.00423248  0.12449540  1
  V  V73  1  0.00771553  0.85966997  0.86159117  1
  V  V74  1  0.12575877  0.37645335  0.24891066  1
  V  V75  1  0.00039690  0.37666546  0.37711855  1
  V  V76  1  0.11387212  0.49896748  0.11745638  1
  V  V77  1  0.49887338  0.87115719  0.87377256  1
  V  V78  1  0.25450738  -0.00654453  0.24489915  1
  V  V79  1  0.00018746  0.87055853  0.36984771  1
  V  V80  1  0.62200689  0.11709601  0.50084641  1
  V  V81  1  0.24798479  -0.01124597  0.75016622  1
  V  V82  1  0.36983249  0.86951709  0.00943102  1
  V  V83  1  0.62283796  -0.00173020  0.63013314  1
  V  V84  1  0.37447345  0.37243768  0.00654637  1
  Zn  Zn85  1  0.12488335  -0.00114413  0.12330237  1
  Zn  Zn86  1  0.12052227  0.62616924  -0.00416232  1
  Zn  Zn87  1  0.31789774  0.81088283  0.17890124  1
  Zn  Zn88  1  0.87382314  0.37711557  0.50024547  1
  Zn  Zn89  1  0.63693689  0.36864150  0.23693031  1
  Zn  Zn90  1  0.00453148  0.62667376  0.62944775  1
  Zn  Zn91  1  0.12737944  0.12383708  0.50112705  1
  Zn  Zn92  1  0.61915632  0.12706842  0.00155111  1
  Zn  Zn93  1  0.87328129  0.12284185  0.24571466  1
  Zn  Zn94  1  0.37721664  0.64352664  0.25120896  1
  Zn  Zn95  1  -0.00174740  0.25087681  0.75040493  1
  Zn  Zn96  1  0.62923774  0.62099917  0.49797477  1
  Zn  Zn97  1  0.11839045  0.37957539  0.74689450  1
  Zn  Zn98  1  0.25242570  0.37546057  0.12574622  1
  Zn  Zn99  1  0.37352488  0.12331438  0.74851238  1
  Zn  Zn100  1  0.86872056  0.25000556  0.12781361  1
  Zn  Zn101  1  0.12240351  0.12033869  0.00301962  1
  Zn  Zn102  1  0.74859554  0.12084848  0.37423363  1
  Zn  Zn103  1  -0.00228766  0.11896027  0.12041697  1
  Zn  Zn104  1  0.00416160  -0.00158657  -0.00017469  1
  Zn  Zn105  1  0.87307387  0.87341616  0.49944427  1
  Zn  Zn106  1  0.49660477  0.37261956  0.36851839  1
  Zn  Zn107  1  0.18551028  0.18353502  0.18741652  1
  Zn  Zn108  1  0.18644207  0.18539155  0.68918527  1
  Zn  Zn109  1  0.18033950  0.68246260  0.19408080  1
  Zn  Zn110  1  0.19491215  0.69098927  0.66415083  1
  Zn  Zn111  1  0.68586458  0.18002322  0.18862684  1
  Zn  Zn112  1  0.68675028  0.18788082  0.68813307  1
  Zn  Zn113  1  0.68746589  0.68087366  0.19032563  1
  Zn  Zn114  1  0.69053032  0.69253543  0.68801772  1
  Zn  Zn115  1  0.31642087  0.31204326  0.30914476  1
  Zn  Zn116  1  0.31218488  0.31503669  0.81503391  1
  Zn  Zn117  1  0.31505471  0.81520852  0.34341173  1
  Zn  Zn118  1  0.31436330  0.81694315  0.81130552  1
  Zn  Zn119  1  0.81171459  0.31304545  0.31208849  1
  Zn  Zn120  1  0.81115908  0.31152024  0.81290566  1
  Zn  Zn121  1  0.80686406  0.81663176  0.31289607  1
  Zn  Zn122  1  0.81202522  0.81347915  0.81412354  1
  Zn  Zn123  1  0.18706248  0.44091999  0.43758751  1
  Zn  Zn124  1  0.18772746  0.43773730  0.93765051  1
  Zn  Zn125  1  0.18679173  0.94197552  0.43342109  1
  Zn  Zn126  1  0.18515452  0.93022946  0.93854629  1
  Zn  Zn127  1  0.69990402  0.42613324  0.40479157  1
  Zn  Zn128  1  0.68703360  0.43892398  0.93816815  1
  Zn  Zn129  1  0.68377265  0.93509244  0.43673750  1
  Zn  Zn130  1  0.69132309  0.93868063  0.94068153  1
  Zn  Zn131  1  0.30810081  0.05805262  0.05972904  1
  Zn  Zn132  1  0.31090846  0.06241359  0.56235288  1
  Zn  Zn133  1  0.31142672  0.56682802  0.06450130  1
  Zn  Zn134  1  0.31730015  0.56321851  0.56362796  1
  Zn  Zn135  1  0.81429115  0.06325920  0.06228686  1
  Zn  Zn136  1  0.81131175  0.05875325  0.56234973  1
  Zn  Zn137  1  0.81591577  0.56961877  0.06381628  1
  Zn  Zn138  1  0.81505684  0.56356055  0.55820697  1
  Zn  Zn139  1  0.44269721  0.43811031  0.18838556  1
  Zn  Zn140  1  0.43273787  0.44378716  0.68581077  1
  Zn  Zn141  1  0.44545093  0.94202921  0.19222611  1
  Zn  Zn142  1  0.43862663  0.93382444  0.68721664  1
  Zn  Zn143  1  0.93733774  0.43638378  0.18824671  1
  Zn  Zn144  1  0.93028737  0.43561069  0.69186524  1
  Zn  Zn145  1  0.94126888  0.93640571  0.18862264  1
  Zn  Zn146  1  0.93613294  0.93773977  0.69060239  1
  Zn  Zn147  1  0.06525989  0.06011799  0.30861206  1
  Zn  Zn148  1  0.05989459  0.05790298  0.81398576  1
  Zn  Zn149  1  0.06004949  0.56450878  0.31047977  1
  Zn  Zn150  1  0.05599007  0.55547125  0.81137879  1
  Zn  Zn151  1  0.56324308  0.06605573  0.30694858  1
  Zn  Zn152  1  0.56113384  0.06056715  0.81098346  1
  Zn  Zn153  1  0.56167390  0.56278741  0.30997990  1
  Zn  Zn154  1  0.56053966  0.56429635  0.81354766  1
  Zn  Zn155  1  0.43760921  0.18528847  0.43629081  1
  Zn  Zn156  1  0.43425878  0.18780619  0.93592793  1
  Zn  Zn157  1  0.44428405  0.68156957  0.43499158  1
  Zn  Zn158  1  0.43452305  0.69033279  0.94202156  1
  Zn  Zn159  1  0.93731616  0.18520839  0.43570493  1
  Zn  Zn160  1  0.93602246  0.18794105  0.94003210  1
  Zn  Zn161  1  0.93596318  0.68802839  0.44149874  1
  Zn  Zn162  1  0.93844418  0.69021591  0.94034192  1
  Zn  Zn163  1  0.06287696  0.31190362  0.05919998  1
  Zn  Zn164  1  0.06261978  0.31010201  0.56179679  1
  Zn  Zn165  1  0.06290034  0.81702348  0.05519629  1
  Zn  Zn166  1  0.06484795  0.81362940  0.56061653  1
  Zn  Zn167  1  0.56574468  0.31731395  0.05951837  1
  Zn  Zn168  1  0.56332430  0.31106577  0.56019763  1
  Zn  Zn169  1  0.56421747  0.81853666  0.06174752  1
  Zn  Zn170  1  0.56133026  0.81029435  0.56184873  1
  O  O171  1  0.11942779  0.12100167  0.12342559  1
  O  O172  1  0.11810285  0.11656167  0.62320954  1
  O  O173  1  0.11038672  0.61648698  0.12832280  1
  O  O174  1  0.12258808  0.62468209  0.61030577  1
  O  O175  1  0.62549060  0.11050837  0.11935521  1
  O  O176  1  0.61908880  0.11696104  0.62269011  1
  O  O177  1  0.61462007  0.61688570  0.12073344  1
  O  O178  1  0.61308862  0.63021790  0.62752392  1
  O  O179  1  0.37621167  0.38203577  0.38226422  1
  O  O180  1  0.38114074  0.38600347  0.88172919  1
  O  O181  1  0.39411775  0.89162404  0.37581234  1
  O  O182  1  0.38307430  0.87898805  0.88153512  1
  O  O183  1  0.88858697  0.38191737  0.37780597  1
  O  O184  1  0.87840001  0.38204718  0.88037734  1
  O  O185  1  0.88304274  0.88425107  0.37589276  1
  O  O186  1  0.87860684  0.88184107  0.87766227  1
  O  O187  1  0.26084065  0.00660393  0.36721931  1
  O  O188  1  0.25220291  0.00358397  0.86721109  1
  O  O189  1  0.25654837  0.50621391  0.36821430  1
  O  O190  1  0.26145641  0.49627972  0.86859050  1
  O  O191  1  0.75818462  -0.00110456  0.37103376  1
  O  O192  1  0.76051431  0.00903445  0.87820514  1
  O  O193  1  0.76874776  0.51696583  0.38891633  1
  O  O194  1  0.75383133  0.50761872  0.86787990  1
  O  O195  1  0.24194726  0.50233801  0.13453722  1
  O  O196  1  0.25842521  0.49179785  0.63555582  1
  O  O197  1  0.24960054  1.00057927  0.14116560  1
  O  O198  1  0.24486423  0.99454322  0.62962727  1
  O  O199  1  0.73517253  0.51007507  0.12112291  1
  O  O200  1  0.75556085  0.49225417  0.63145723  1
  O  O201  1  0.74236202  1.00008805  0.13218550  1
  O  O202  1  0.74267985  0.98608647  0.62245884  1
  O  O203  1  0.00566854  0.36912114  0.25887574  1
  O  O204  1  -0.00148627  0.37298471  0.76194963  1
  O  O205  1  0.01114017  0.87967349  0.26437628  1
  O  O206  1  -0.00463413  0.87454322  0.76172198  1
  O  O207  1  0.50571710  0.36191675  0.24981330  1
  O  O208  1  0.50326077  0.37489181  0.75219323  1
  O  O209  1  0.51308670  0.87916198  0.26058762  1
  O  O210  1  0.51307693  0.87807663  0.75943252  1
  O  O211  1  0.49228828  0.13775082  0.24865059  1
  O  O212  1  0.49851488  0.13130376  0.73926035  1
  O  O213  1  0.49833798  0.62578926  0.23722850  1
  O  O214  1  0.49090547  0.61750917  0.73982549  1
  O  O215  1  0.99825065  0.13608567  0.25377738  1
  O  O216  1  0.99058509  0.12606842  0.74410645  1
  O  O217  1  0.98816719  0.62496123  0.24128390  1
  O  O218  1  0.98418250  0.61649269  0.74616963  1
  O  O219  1  0.36620832  0.26099947  -0.00773963  1
  O  O220  1  0.36957754  0.25671475  0.50449729  1
  O  O221  1  0.36226592  0.75810687  -0.00037633  1
  O  O222  1  0.37784467  0.74669605  0.50596547  1
  O  O223  1  0.86363492  0.25977057  -0.00105310  1
  O  O224  1  0.86634055  0.24879450  0.50546911  1
  O  O225  1  0.86562809  0.76253159  -0.00353916  1
  O  O226  1  0.86543240  0.75193699  0.51049753  1
  O  O227  1  0.13226191  0.24704234  0.49178795  1
  O  O228  1  0.13425441  0.25030594  0.98744799  1
  O  O229  1  0.12077378  0.73824926  0.49067047  1
  O  O230  1  0.14005205  0.74900965  1.00059811  1
  O  O231  1  0.63046783  0.23555037  0.49954452  1
  O  O232  1  0.62893790  0.24919261  0.99080482  1
  O  O233  1  0.63920456  0.74547367  0.50537929  1
  O  O234  1  0.63126613  0.75045605  0.99044159  1
  O  O235  1  0.50796614  0.25131457  0.13512793  1
  O  O236  1  0.49394402  0.24456214  0.63041653  1
  O  O237  1  0.50399709  0.73623778  0.11700787  1
  O  O238  1  0.48898572  0.74170436  0.62098000  1
  O  O239  1  1.00057322  0.25491371  0.13894390  1
  O  O240  1  0.99259134  0.24345970  0.62596396  1
  O  O241  1  1.00533179  0.74085268  0.12574874  1
  O  O242  1  0.98665680  0.75118666  0.62038805  1
  O  O243  1  0.00515373  0.25716570  0.36991857  1
  O  O244  1  0.00775850  0.25609664  0.87297839  1
  O  O245  1  0.00635687  0.76021359  0.38250816  1
  O  O246  1  -0.00393724  0.75944279  0.87228907  1
  O  O247  1  0.50458674  0.24708405  0.36572093  1
  O  O248  1  0.50455194  0.25575034  0.86792987  1
  O  O249  1  0.50156370  0.76248577  0.37949210  1
  O  O250  1  0.50772359  0.76343397  0.88360000  1
  O  O251  1  0.25038041  0.13194967  0.49064921  1
  O  O252  1  0.24990424  0.13187264  0.98988109  1
  O  O253  1  0.24022965  0.61160531  0.49165864  1
  O  O254  1  0.24923411  0.63989349  0.99952404  1
  O  O255  1  0.74178010  0.13038766  0.50168672  1
  O  O256  1  0.74866354  0.13402250  0.98716627  1
  O  O257  1  0.74891432  0.63345800  0.49341447  1
  O  O258  1  0.74426351  0.63314572  0.99370360  1
  O  O259  1  0.25835888  0.36694541  -0.00129844  1
  O  O260  1  0.25547331  0.37295283  0.50631099  1
  O  O261  1  0.25926873  0.86060087  -0.00415997  1
  O  O262  1  0.25493836  0.88360124  0.50607203  1
  O  O263  1  0.75763879  0.36467033  -0.00895857  1
  O  O264  1  0.75076827  0.36638902  0.50363344  1
  O  O265  1  0.76323643  0.86730368  -0.00410836  1
  O  O266  1  0.75001840  0.86881208  0.50736543  1
  O  O267  1  0.13182121  0.49557991  0.24362279  1
  O  O268  1  0.13958663  0.49958363  0.75429164  1
  O  O269  1  0.13792667  0.98707337  0.25566710  1
  O  O270  1  0.13149975  1.00299950  0.73732068  1
  O  O271  1  0.61920060  0.49827357  0.23340645  1
  O  O272  1  0.63716577  0.49695792  0.75487204  1
  O  O273  1  0.63004431  0.99791288  0.24182465  1
  O  O274  1  0.62470905  0.99366794  0.73843670  1
  O  O275  1  0.37207278  0.00799154  0.25782208  1
  O  O276  1  0.36778423  -0.00023748  0.75639027  1
  O  O277  1  0.36973662  0.49853694  0.26055718  1
  O  O278  1  0.36516548  0.51142585  0.75695087  1
  O  O279  1  0.86641594  -0.00418890  0.25696950  1
  O  O280  1  0.87307891  0.01224946  0.75560735  1
  O  O281  1  0.88000913  0.50346843  0.26157565  1
  O  O282  1  0.86181295  0.50512900  0.75966221  1
  O  O283  1  0.11677061  0.37107506  0.37115360  1
  O  O284  1  0.11567235  0.36967550  0.87502256  1
  O  O285  1  0.11985564  0.86700425  0.37333212  1
  O  O286  1  0.10652724  0.87699202  0.87480345  1
  O  O287  1  0.61071593  0.35237120  0.39539006  1
  O  O288  1  0.61755175  0.37174694  0.86769653  1
  O  O289  1  0.61400533  0.88163930  0.36283170  1
  O  O290  1  0.62093277  0.87194349  0.87034661  1
  O  O291  1  0.37052175  0.12106758  0.13475181  1
  O  O292  1  0.38168086  0.13033926  0.62584577  1
  O  O293  1  0.38998547  0.62188335  0.12874140  1
  O  O294  1  0.38046489  0.63766428  0.63017982  1
  O  O295  1  0.87822490  0.13165032  0.12764913  1
  O  O296  1  0.87809672  0.12662825  0.63209539  1
  O  O297  1  0.88684106  0.62373336  0.13707896  1
  O  O298  1  0.87420047  0.63384388  0.63303000  1
  O  O299  1  0.24503440  0.25263068  0.11148091  1
  O  O300  1  0.25529831  0.25532606  0.62039255  1
  O  O301  1  0.24539597  0.74475127  0.11806423  1
  O  O302  1  0.26833576  0.76018774  0.61948740  1
  O  O303  1  0.74429190  0.24656399  0.11167434  1
  O  O304  1  0.75213616  0.25464884  0.61522445  1
  O  O305  1  0.74310387  0.74399385  0.11153100  1
  O  O306  1  0.75637431  0.76105553  0.61942751  1
  O  O307  1  0.24808272  0.24299316  0.37751177  1
  O  O308  1  0.24461844  0.24214902  0.87896892  1
  O  O309  1  0.24199939  0.73622429  0.38478928  1
  O  O310  1  0.24948815  0.74706855  0.87998164  1
  O  O311  1  0.74233053  0.24269901  0.38803038  1
  O  O312  1  0.74153629  0.24436992  0.87991837  1
  O  O313  1  0.75896153  0.74146590  0.38576689  1
  O  O314  1  0.74200143  0.74442011  0.88125067  1
  O  O315  1  0.00296048  0.12063711  -0.00125594  1
  O  O316  1  0.00084485  0.11298983  0.50529440  1
  O  O317  1  -0.00098053  0.62752779  0.01683014  1
  O  O318  1  0.00589965  0.61551076  0.50292886  1
  O  O319  1  0.49866173  0.10941858  -0.01078240  1
  O  O320  1  0.50740133  0.13100397  0.51409738  1
  O  O321  1  0.50445932  0.61935822  0.00651007  1
  O  O322  1  0.50749475  0.61549047  0.50586213  1
  O  O323  1  0.48920507  0.38134503  0.50493914  1
  O  O324  1  0.49348784  0.38307434  0.99386369  1
  O  O325  1  0.51367057  0.87912666  0.48416146  1
  O  O326  1  0.49197259  0.88362333  0.99313157  1
  O  O327  1  0.99994774  0.38094134  0.49383201  1
  O  O328  1  0.98843051  0.36875408  0.98796357  1
  O  O329  1  0.99966839  0.88616655  0.49192586  1
  O  O330  1  0.98646034  0.87367954  0.98938983  1
  O  O331  1  0.49216927  0.49841160  0.38041990  1
  O  O332  1  0.49378080  0.49751877  0.88612126  1
  O  O333  1  0.49134154  1.00584040  0.37411868  1
  O  O334  1  0.49538559  0.98951701  0.87919998  1
  O  O335  1  0.99607732  0.49303343  0.38084847  1
  O  O336  1  0.98621318  0.49129074  0.87490122  1
  O  O337  1  0.99571343  0.99514989  0.38172804  1
  O  O338  1  0.98519301  0.99504249  0.87528797  1
  O  O339  1  0.00491091  -0.00087748  0.12163179  1
  O  O340  1  0.00693575  0.00028256  0.61858742  1
  O  O341  1  0.01208392  0.50212698  0.12864485  1
  O  O342  1  -0.00660626  0.49721649  0.61499583  1
  O  O343  1  0.50800626  -0.00136322  0.11422572  1
  O  O344  1  0.50754081  0.00823537  0.62865453  1
  O  O345  1  0.50461133  0.50595639  0.11365194  1
  O  O346  1  0.49197033  0.51158692  0.61320254  1
  O  O347  1  0.24575657  0.38465682  0.24884591  1
  O  O348  1  0.25038092  0.38441953  0.74292830  1
  O  O349  1  0.24719703  0.87956159  0.25741074  1
  O  O350  1  0.25480594  0.88606018  0.73953509  1
  O  O351  1  0.73053024  0.38543612  0.29658367  1
  O  O352  1  0.74516000  0.38271422  0.74191336  1
  O  O353  1  0.73445445  0.88639767  0.25691462  1
  O  O354  1  0.73603571  0.87067647  0.74332916  1
  O  O355  1  0.25900699  0.12051441  0.25696287  1
  O  O356  1  0.25161554  0.11371930  0.75588906  1
  O  O357  1  0.25107999  0.61431668  0.25994795  1
  O  O358  1  0.25328181  0.62384218  0.75573293  1
  O  O359  1  0.75087916  0.11064821  0.25477461  1
  O  O360  1  0.75555046  0.13065429  0.76236649  1
  O  O361  1  0.76742154  0.63016139  0.25671528  1
  O  O362  1  0.75562025  0.61886507  0.75425054  1
  O  O363  1  0.36833915  0.11871789  0.36804974  1
  O  O364  1  0.36254082  0.11841893  0.87220538  1
  O  O365  1  0.36815675  0.61696424  0.37479413  1
  O  O366  1  0.38460538  0.61702270  0.86688416  1
  O  O367  1  0.87451162  0.11031201  0.37319793  1
  O  O368  1  0.86782539  0.11957765  0.86808256  1
  O  O369  1  0.87612611  0.62234936  0.36285439  1
  O  O370  1  0.87090717  0.61862258  0.87043447  1
  O  O371  1  0.12666974  0.38538100  0.12808728  1
  O  O372  1  0.13824864  0.36979295  0.62681424  1
  O  O373  1  0.12172718  0.87043528  0.14149778  1
  O  O374  1  0.13796927  0.88161303  0.61922879  1
  O  O375  1  0.62703986  0.39180645  0.12118363  1
  O  O376  1  0.63705144  0.37083926  0.62893855  1
  O  O377  1  0.61850198  0.88528783  0.13863071  1
  O  O378  1  0.62743313  0.87954739  0.63239622  1
  O  O379  1  0.12006793  0.25729359  0.25634230  1
  O  O380  1  0.12560513  0.25389305  0.76227240  1
  O  O381  1  0.13135560  0.75583864  0.26809510  1
  O  O382  1  0.14038142  0.73452247  0.75839016  1
  O  O383  1  0.61656132  0.24751759  0.25755136  1
  O  O384  1  0.61863219  0.25835127  0.75378803  1
  O  O385  1  0.62901927  0.76489098  0.24484206  1
  O  O386  1  0.62705269  0.75632726  0.76413642  1
  O  O387  1  0.38821557  0.24384632  0.24841414  1
  O  O388  1  0.38033670  0.24962223  0.74486592  1
  O  O389  1  0.36559284  0.75504267  0.26127676  1
  O  O390  1  0.37274565  0.73943376  0.74812168  1
  O  O391  1  0.88234500  0.24997221  0.25011036  1
  O  O392  1  0.87322111  0.23897517  0.74321390  1
  O  O393  1  0.87746797  0.74457308  0.25263165  1
  O  O394  1  0.86426739  0.73926100  0.74131383  1
  O  O395  1  0.38058583  0.49561621  0.48922326  1
  O  O396  1  0.37949754  0.49800256  0.99303723  1
  O  O397  1  0.37641795  1.00886902  0.48481822  1
  O  O398  1  0.37823990  0.99187601  0.99295704  1
  O  O399  1  0.88711621  0.49972286  0.49043751  1
  O  O400  1  0.86390591  0.49371400  0.98884704  1
  O  O401  1  0.88289933  0.99673229  0.49345285  1
  O  O402  1  0.87287318  0.98640129  0.99246318  1
  O  O403  1  0.12587780  -0.00031478  0.00363042  1
  O  O404  1  0.11790342  0.00227010  0.50807188  1
  O  O405  1  0.13239075  0.50498950  0.01445137  1
  O  O406  1  0.11246501  0.50791930  0.49322321  1
  O  O407  1  0.61593629  -0.00269866  0.00639107  1
  O  O408  1  0.63026375  0.01096313  0.51148901  1
  O  O409  1  0.61671389  0.50707844  0.00463251  1
  O  O410  1  0.61462444  0.49560019  0.49001240  1
  O  O411  1  0.37376246  0.38391994  0.11025283  1
  O  O412  1  0.36492157  0.37052355  0.62014507  1
  O  O413  1  0.37918092  0.88251278  0.11401317  1
  O  O414  1  0.37455233  0.86134445  0.62440196  1
  O  O415  1  0.87645943  0.37491852  0.11204520  1
  O  O416  1  0.86166540  0.36715151  0.62411809  1
  O  O417  1  0.87870983  0.87443492  0.11141634  1
  O  O418  1  0.86640175  0.87032336  0.62572275  1
  O  O419  1  0.13922799  0.12793354  0.37406853  1
  O  O420  1  0.13468084  0.13096858  0.87271734  1
  O  O421  1  0.12976861  0.62975417  0.38082876  1
  O  O422  1  0.12432040  0.62273783  0.87726409  1
  O  O423  1  0.62366296  0.13115359  0.38512820  1
  O  O424  1  0.63126409  0.12950620  0.87430908  1
  O  O425  1  0.64139991  0.62006650  0.37056294  1
  O  O426  1  0.62647707  0.63409478  0.88131542  1
