# generated using pymatgen
data_V85Zn86O256
_symmetry_space_group_name_H-M   'P 1'
_cell_length_a   16.96479300
_cell_length_b   16.94615443
_cell_length_c   16.96140779
_cell_angle_alpha   90.06603415
_cell_angle_beta   90.01207540
_cell_angle_gamma   90.08580132
_symmetry_Int_Tables_number   1
_chemical_formula_structural   V85Zn86O256
_chemical_formula_sum   'V85 Zn86 O256'
_cell_volume   4876.19241987
_cell_formula_units_Z   1
loop_
 _symmetry_equiv_pos_site_id
 _symmetry_equiv_pos_as_xyz
  1  'x, y, z'
loop_
 _atom_site_type_symbol
 _atom_site_label
 _atom_site_symmetry_multiplicity
 _atom_site_fract_x
 _atom_site_fract_y
 _atom_site_fract_z
 _atom_site_occupancy
  V  V0  1  0.50366981  0.74677965  0.74761428  1
  V  V1  1  0.87923919  0.24742701  0.12921110  1
  V  V2  1  -0.00424981  -0.00810656  0.49686650  1
  V  V3  1  0.87679822  0.73539767  0.62721904  1
  V  V4  1  -0.00028803  0.12557185  0.62597660  1
  V  V5  1  0.01112725  0.75215806  0.25302687  1
  V  V6  1  0.49767090  0.37206499  0.86983880  1
  V  V7  1  0.87420623  0.50307480  0.37010752  1
  V  V8  1  -0.00693162  0.76153589  0.74989502  1
  V  V9  1  0.13187391  0.62427110  0.00570023  1
  V  V10  1  0.62282821  0.37664789  0.23848631  1
  V  V11  1  0.62199865  0.24730208  0.86726872  1
  V  V12  1  0.12881891  0.48222082  0.12862922  1
  V  V13  1  0.74892449  0.11070040  0.87046492  1
  V  V14  1  0.24820729  0.25669263  0.00514831  1
  V  V15  1  0.25223378  0.62930251  0.87568942  1
  V  V16  1  0.86752779  0.11793958  0.74723534  1
  V  V17  1  0.37972160  0.74580325  0.62350912  1
  V  V18  1  0.62950121  0.74380004  0.88860309  1
  V  V19  1  0.74620607  0.37496995  0.62554512  1
  V  V20  1  0.63306395  0.87917634  0.75064364  1
  V  V21  1  0.50546046  0.87721879  0.87848641  1
  V  V22  1  0.87314711  0.25107048  0.62630359  1
  V  V23  1  0.75792609  0.75511920  0.50172065  1
  V  V24  1  0.37940760  0.87493701  0.00529672  1
  V  V25  1  0.49955728  0.00241439  0.50327360  1
  V  V26  1  0.87318450  0.74983670  0.12190770  1
  V  V27  1  0.24974392  -0.01750834  0.24283318  1
  V  V28  1  0.50054223  0.37711062  0.37505757  1
  V  V29  1  0.12512709  0.12468563  0.49557560  1
  V  V30  1  0.20626144  0.80690145  0.05813282  1
  V  V31  1  0.25474273  -0.00053643  0.74907347  1
  V  V32  1  0.49929686  0.11379863  0.12666214  1
  V  V33  1  0.62093114  0.62726174  0.50586869  1
  V  V34  1  0.87108396  -0.01145859  0.37174499  1
  V  V35  1  0.75160126  0.62646944  0.37345148  1
  V  V36  1  0.67364827  0.55855154  0.07188775  1
  V  V37  1  0.05795973  0.57027146  0.67199465  1
  V  V38  1  0.37562510  0.62374990  0.74818125  1
  V  V39  1  0.61729660  0.50312807  0.62771107  1
  V  V40  1  0.12620519  -0.00002906  0.62279049  1
  V  V41  1  0.49849866  0.75063947  0.25056617  1
  V  V42  1  0.62427835  0.75167170  0.37901556  1
  V  V43  1  0.75970995  0.88129211  0.62601688  1
  V  V44  1  0.05917318  0.30219190  0.70331585  1
  V  V45  1  0.11987896  0.25315628  0.36038261  1
  V  V46  1  0.25101441  0.87658744  0.62510887  1
  V  V47  1  0.12247513  0.11578126  0.00416752  1
  V  V48  1  0.74796754  0.11852086  0.36630464  1
  V  V49  1  0.37170528  0.50083100  0.37656779  1
  V  V50  1  0.37260195  0.37562421  0.00446352  1
  V  V51  1  0.37901389  -0.00118939  0.88223008  1
  V  V52  1  0.49674277  0.50618342  0.50283736  1
  V  V53  1  0.62602565  0.12562870  0.49950970  1
  V  V54  1  0.01404035  0.87272966  0.37039901  1
  V  V55  1  0.00078987  0.62240212  0.13318867  1
  V  V56  1  0.11835963  0.62897582  0.49106180  1
  V  V57  1  0.74480505  0.50454037  0.25051855  1
  V  V58  1  0.12526076  0.75781742  0.87224757  1
  V  V59  1  0.25323874  0.12713255  0.87726084  1
  V  V60  1  0.62604581  0.25130255  0.37168656  1
  V  V61  1  0.25058426  0.25143265  0.50025827  1
  V  V62  1  0.25574064  0.12657142  0.36214922  1
  V  V63  1  0.74783616  0.24349273  -0.00192939  1
  V  V64  1  0.49837880  0.50357254  0.00582177  1
  V  V65  1  -0.00070727  0.37295999  0.36075118  1
  V  V66  1  0.00139656  0.36789968  0.87398335  1
  V  V67  1  0.75130951  0.50969316  0.75136683  1
  V  V68  1  0.37183708  0.37821247  0.50424728  1
  V  V69  1  0.00395770  0.49375382  0.00284728  1
  V  V70  1  0.37459722  0.74971401  0.12066014  1
  V  V71  1  0.37309581  0.62133857  0.24891787  1
  V  V72  1  0.87421831  0.36696621  -0.00234097  1
  V  V73  1  0.00045492  0.50376948  0.49717313  1
  V  V74  1  0.37407237  0.24651295  0.13251590  1
  V  V75  1  0.24659299  0.48620329  0.24851004  1
  V  V76  1  0.38182605  0.25257442  0.63064327  1
  V  V77  1  0.38620703  0.12884854  0.75237584  1
  V  V78  1  0.37559668  0.87628378  0.50120561  1
  V  V79  1  0.87903912  0.12383009  0.25137460  1
  V  V80  1  0.00223455  0.11455810  0.12984518  1
  V  V81  1  0.87833068  0.88763886  -0.00829664  1
  V  V82  1  0.12311262  0.24974247  0.87571105  1
  V  V83  1  0.24353928  0.75090946  0.49362496  1
  V  V84  1  0.50008428  0.87783538  0.37279207  1
  Zn  Zn85  1  0.12249322  0.88043233  0.75398174  1
  Zn  Zn86  1  0.61455271  0.11336855  -0.00310060  1
  Zn  Zn87  1  0.74727750  0.37447754  0.12207217  1
  Zn  Zn88  1  0.50576279  0.12919320  0.62938945  1
  Zn  Zn89  1  0.63463066  -0.00372579  0.12521288  1
  Zn  Zn90  1  0.50519831  0.62373704  0.12311786  1
  Zn  Zn91  1  0.12571174  -0.01619082  0.12816343  1
  Zn  Zn92  1  0.90224074  -0.01409287  0.86619108  1
  Zn  Zn93  1  0.75085312  0.87757256  0.12297986  1
  Zn  Zn94  1  0.61875203  0.37239644  0.74830274  1
  Zn  Zn95  1  0.87219117  0.37501628  0.49674350  1
  Zn  Zn96  1  0.75147387  0.25060490  0.49801196  1
  Zn  Zn97  1  0.24634055  0.62631262  0.37454735  1
  Zn  Zn98  1  0.64938075  0.89488149  0.25533187  1
  Zn  Zn99  1  0.74949687  0.62862873  0.87990712  1
  Zn  Zn100  1  0.63293983  0.00368528  0.63009787  1
  Zn  Zn101  1  0.49640245  0.24763508  0.25021137  1
  Zn  Zn102  1  0.87707090  0.50258217  0.86953769  1
  Zn  Zn103  1  0.37208368  0.50012045  0.87506387  1
  Zn  Zn104  1  0.37619732  0.00723469  0.37145804  1
  Zn  Zn105  1  0.23587445  0.37584259  0.63654285  1
  Zn  Zn106  1  0.23547870  0.49627909  0.74588882  1
  Zn  Zn107  1  0.18797493  0.19017231  0.18503624  1
  Zn  Zn108  1  0.19894152  0.18144031  0.68380259  1
  Zn  Zn109  1  0.18513766  0.67760525  0.19491429  1
  Zn  Zn110  1  0.19263179  0.69463217  0.68936344  1
  Zn  Zn111  1  0.68588598  0.18347867  0.18572291  1
  Zn  Zn112  1  0.68826992  0.18787745  0.68811764  1
  Zn  Zn113  1  0.69912742  0.71761573  0.20173151  1
  Zn  Zn114  1  0.68682478  0.69119017  0.68765233  1
  Zn  Zn115  1  0.31080432  0.31307456  0.31593392  1
  Zn  Zn116  1  0.30946311  0.31665240  0.81195454  1
  Zn  Zn117  1  0.31545470  0.81332162  0.31431879  1
  Zn  Zn118  1  0.31340790  0.81228338  0.81384455  1
  Zn  Zn119  1  0.80975513  0.31385797  0.30867152  1
  Zn  Zn120  1  0.81092273  0.30777509  0.80922658  1
  Zn  Zn121  1  0.82435946  0.80483810  0.30752566  1
  Zn  Zn122  1  0.81052331  0.81147970  0.81509335  1
  Zn  Zn123  1  0.18300160  0.43805094  0.43749993  1
  Zn  Zn124  1  0.18800964  0.43800530  0.93086772  1
  Zn  Zn125  1  0.18967507  0.94052328  0.43524067  1
  Zn  Zn126  1  0.18841324  0.94207710  0.93486884  1
  Zn  Zn127  1  0.68559475  0.43789116  0.43834368  1
  Zn  Zn128  1  0.68667395  0.43137870  0.93371587  1
  Zn  Zn129  1  0.68750641  0.93762114  0.44045688  1
  Zn  Zn130  1  0.69533824  0.93320395  0.95206934  1
  Zn  Zn131  1  0.31108450  0.06419694  0.06589244  1
  Zn  Zn132  1  0.31559486  0.06710289  0.56113592  1
  Zn  Zn133  1  0.31113506  0.56057564  0.06522031  1
  Zn  Zn134  1  0.30102970  0.56237914  0.56842311  1
  Zn  Zn135  1  0.80739619  0.05834269  0.06318132  1
  Zn  Zn136  1  0.81314878  0.06262445  0.55463313  1
  Zn  Zn137  1  0.84442788  0.58492993  0.02362428  1
  Zn  Zn138  1  0.80987086  0.56149939  0.55977996  1
  Zn  Zn139  1  0.43598691  0.43474195  0.18532880  1
  Zn  Zn140  1  0.43305288  0.43864748  0.68793705  1
  Zn  Zn141  1  0.43068755  0.93835169  0.19221690  1
  Zn  Zn142  1  0.44183435  0.93652398  0.68998604  1
  Zn  Zn143  1  0.92940663  0.44041003  0.18455753  1
  Zn  Zn144  1  0.92712591  0.43831019  0.68733486  1
  Zn  Zn145  1  0.93383959  0.93537404  0.18895790  1
  Zn  Zn146  1  0.93503620  0.93544299  0.68268105  1
  Zn  Zn147  1  0.06550244  0.06063650  0.30799747  1
  Zn  Zn148  1  0.06620510  0.06778264  0.80538918  1
  Zn  Zn149  1  0.06344971  0.56167946  0.31039544  1
  Zn  Zn150  1  0.05566943  0.57040578  0.83311693  1
  Zn  Zn151  1  0.55727554  0.06506332  0.30638432  1
  Zn  Zn152  1  0.56465039  0.05816409  0.81654993  1
  Zn  Zn153  1  0.56212127  0.56450853  0.31344902  1
  Zn  Zn154  1  0.55998747  0.56186488  0.81586857  1
  Zn  Zn155  1  0.43843710  0.19003182  0.43886183  1
  Zn  Zn156  1  0.43847351  0.18916284  0.94287520  1
  Zn  Zn157  1  0.43467675  0.68719665  0.43810700  1
  Zn  Zn158  1  0.44097544  0.68916806  0.93806305  1
  Zn  Zn159  1  0.93618007  0.18601784  0.43691077  1
  Zn  Zn160  1  0.95324902  0.15261827  0.92221966  1
  Zn  Zn161  1  0.93631149  0.68779453  0.43580149  1
  Zn  Zn162  1  0.94274860  0.69066224  0.93590785  1
  Zn  Zn163  1  0.05751883  0.30249904  0.06344934  1
  Zn  Zn164  1  0.05796965  0.31296640  0.53550983  1
  Zn  Zn165  1  0.04060707  0.81143258  0.05708352  1
  Zn  Zn166  1  0.06065251  0.81282021  0.56480983  1
  Zn  Zn167  1  0.55845872  0.30636947  0.05610277  1
  Zn  Zn168  1  0.56072571  0.31412434  0.56038487  1
  Zn  Zn169  1  0.56293701  0.81875817  0.06650257  1
  Zn  Zn170  1  0.56570229  0.81610710  0.56550937  1
  O  O171  1  0.11789630  0.12774100  0.11951878  1
  O  O172  1  0.11901155  0.12099353  0.61769034  1
  O  O173  1  0.11920192  0.61638633  0.11954310  1
  O  O174  1  0.12401853  0.62776476  0.61750932  1
  O  O175  1  0.60817017  0.12825959  0.12280486  1
  O  O176  1  0.62463346  0.12363026  0.61559742  1
  O  O177  1  0.62520469  0.62690515  0.12928765  1
  O  O178  1  0.62981261  0.61883918  0.61384698  1
  O  O179  1  0.37974562  0.38051193  0.38388919  1
  O  O180  1  0.38105253  0.37493244  0.88661457  1
  O  O181  1  0.38374109  0.87742298  0.38549456  1
  O  O182  1  0.38300605  0.87985067  0.88060476  1
  O  O183  1  0.87557722  0.38635606  0.37500144  1
  O  O184  1  0.88498338  0.36907942  0.87947203  1
  O  O185  1  0.88229072  0.88551464  0.36783533  1
  O  O186  1  0.87364343  0.87610350  0.88382867  1
  O  O187  1  0.24959280  0.01416403  0.36900298  1
  O  O188  1  0.25907361  0.00649980  0.86826361  1
  O  O189  1  0.25598298  0.50065068  0.37000166  1
  O  O190  1  0.24870622  0.51519099  0.86830192  1
  O  O191  1  0.75905351  0.00588721  0.38015080  1
  O  O192  1  0.75192785  0.01070364  0.87664751  1
  O  O193  1  0.75398595  0.50624249  0.37077505  1
  O  O194  1  0.74588968  0.49825083  0.86009376  1
  O  O195  1  0.24065847  0.50133410  0.13487844  1
  O  O196  1  0.24821716  0.49016769  0.63135784  1
  O  O197  1  0.24993385  0.99942845  0.13856609  1
  O  O198  1  0.24818643  0.99721842  0.62867031  1
  O  O199  1  0.74055021  0.50292129  0.13093562  1
  O  O200  1  0.74008006  0.49596140  0.63268332  1
  O  O201  1  0.75285667  0.99364673  0.13266598  1
  O  O202  1  0.75117789  0.98642851  0.61461268  1
  O  O203  1  -0.00810286  0.38212359  0.26181041  1
  O  O204  1  -0.00429951  0.37085104  0.75485127  1
  O  O205  1  0.00158576  0.86247089  0.25502272  1
  O  O206  1  0.00193394  0.86570629  0.75069515  1
  O  O207  1  0.50637202  0.37475363  0.25730574  1
  O  O208  1  0.49696484  0.38059343  0.76579360  1
  O  O209  1  0.49130755  0.86678825  0.26385011  1
  O  O210  1  0.50573645  0.86500625  0.75819689  1
  O  O211  1  0.49470428  0.13224619  0.23472751  1
  O  O212  1  0.48962725  0.11858214  0.74986362  1
  O  O213  1  0.48704846  0.62924235  0.25018942  1
  O  O214  1  0.49340553  0.63922558  0.75561932  1
  O  O215  1  0.99145099  0.12596408  0.24471138  1
  O  O216  1  0.99379931  0.12728583  0.72995358  1
  O  O217  1  1.00303359  0.63277647  0.24281275  1
  O  O218  1  1.00627066  0.62939134  0.73834892  1
  O  O219  1  0.36586819  0.25700963  0.00662439  1
  O  O220  1  0.36792167  0.25620535  0.50629886  1
  O  O221  1  0.37714963  0.75497117  0.01254047  1
  O  O222  1  0.37029279  0.75496465  0.50873809  1
  O  O223  1  0.86867085  0.25717412  0.00588331  1
  O  O224  1  0.87286000  0.25049663  0.51157038  1
  O  O225  1  0.89522205  0.75560075  0.01681509  1
  O  O226  1  0.86607558  0.74545762  0.50882830  1
  O  O227  1  0.13436832  0.24184849  0.49025719  1
  O  O228  1  0.13286723  0.24454782  0.99407948  1
  O  O229  1  0.13227843  0.74320533  0.50593181  1
  O  O230  1  0.13070179  0.74560957  0.99929596  1
  O  O231  1  0.62376354  0.24026206  0.49237114  1
  O  O232  1  0.63380629  0.24554989  0.99045997  1
  O  O233  1  0.63102683  0.74376978  0.49778545  1
  O  O234  1  0.61531265  0.75128739  0.98619375  1
  O  O235  1  0.48514668  0.24893687  0.12609231  1
  O  O236  1  0.48631810  0.24854673  0.61991487  1
  O  O237  1  0.49084982  0.74674856  0.13513376  1
  O  O238  1  0.49114762  0.75710503  0.63371829  1
  O  O239  1  0.98415190  0.24174530  0.12693005  1
  O  O240  1  0.99589519  0.24719961  0.62495089  1
  O  O241  1  1.00206429  0.73963665  0.13615137  1
  O  O242  1  0.99208068  0.75385226  0.63864947  1
  O  O243  1  0.00736217  0.25937681  0.38138398  1
  O  O244  1  0.01509785  0.25004938  0.87596666  1
  O  O245  1  -0.00951939  0.75766462  0.36140178  1
  O  O246  1  0.01024907  0.73945881  0.85804246  1
  O  O247  1  0.50997262  0.25560664  0.37351989  1
  O  O248  1  0.50844652  0.25917486  0.88308012  1
  O  O249  1  0.50121891  0.75904861  0.37296031  1
  O  O250  1  0.50665892  0.75955414  0.86818834  1
  O  O251  1  0.24576328  0.13523644  0.49371372  1
  O  O252  1  0.24545156  0.13605795  0.99633658  1
  O  O253  1  0.24004167  0.63452915  0.49965964  1
  O  O254  1  0.23968974  0.62065200  0.99400111  1
  O  O255  1  0.74125157  0.12737214  0.48743842  1
  O  O256  1  0.75448660  0.13475404  0.98908639  1
  O  O257  1  0.74169605  0.63118491  0.49178606  1
  O  O258  1  0.73223937  0.60821354  1.00625089  1
  O  O259  1  0.25627885  0.36480485  -0.00801884  1
  O  O260  1  0.25121057  0.36272616  0.49968489  1
  O  O261  1  0.26182092  0.86992862  -0.00686832  1
  O  O262  1  0.25501190  0.87055896  0.50449418  1
  O  O263  1  0.75608041  0.36419320  0.00018799  1
  O  O264  1  0.74966768  0.37626516  0.51265324  1
  O  O265  1  0.77092669  0.86587774  0.00530979  1
  O  O266  1  0.74373966  0.86157261  0.50840041  1
  O  O267  1  0.13490923  0.50368930  0.24097229  1
  O  O268  1  0.11081823  0.51693843  0.74055862  1
  O  O269  1  0.14316258  1.00368410  0.24674067  1
  O  O270  1  0.13447205  1.00177771  0.74204676  1
  O  O271  1  0.63422978  0.49129478  0.25880201  1
  O  O272  1  0.63024017  0.49861814  0.74252216  1
  O  O273  1  0.61754374  0.99966260  0.24148229  1
  O  O274  1  0.61881964  0.98361726  0.74779116  1
  O  O275  1  0.35702256  -0.00174376  0.25648050  1
  O  O276  1  0.37343410  0.00411729  0.76084634  1
  O  O277  1  0.36966726  0.50482096  0.25390912  1
  O  O278  1  0.38175035  0.51777284  0.75346784  1
  O  O279  1  0.87950858  0.01211668  0.26024417  1
  O  O280  1  0.88186023  0.01318879  0.74940420  1
  O  O281  1  0.85589026  0.49886470  0.25556773  1
  O  O282  1  0.85686738  0.50007158  0.75183423  1
  O  O283  1  0.11253995  0.36542231  0.38016919  1
  O  O284  1  0.11106382  0.36655910  0.87767062  1
  O  O285  1  0.11304547  0.87676230  0.37903049  1
  O  O286  1  0.13013969  0.86227419  0.87621658  1
  O  O287  1  0.62102119  0.36774465  0.36969876  1
  O  O288  1  0.61523544  0.36551970  0.87280828  1
  O  O289  1  0.61799245  0.86900762  0.37336450  1
  O  O290  1  0.62095992  0.86704609  0.87017292  1
  O  O291  1  0.38020555  0.14026773  0.12062088  1
  O  O292  1  0.37764266  0.13270427  0.63531206  1
  O  O293  1  0.37597802  0.63212542  0.13286156  1
  O  O294  1  0.36975620  0.63872767  0.63178116  1
  O  O295  1  0.88288555  0.12696481  0.13247641  1
  O  O296  1  0.87998896  0.13065036  0.62499625  1
  O  O297  1  0.89542732  0.62927998  0.11558895  1
  O  O298  1  0.86795833  0.63583682  0.62514532  1
  O  O299  1  0.26058778  0.24790100  0.11622455  1
  O  O300  1  0.26066338  0.25192735  0.61580644  1
  O  O301  1  0.25593895  0.74497835  0.12822551  1
  O  O302  1  0.25873210  0.75856860  0.61704187  1
  O  O303  1  0.75841305  0.24558493  0.11485823  1
  O  O304  1  0.75441516  0.25835253  0.62154771  1
  O  O305  1  0.77476950  0.73112294  0.11629662  1
  O  O306  1  0.75753125  0.75485033  0.61958305  1
  O  O307  1  0.24420801  0.24240041  0.38016806  1
  O  O308  1  0.24118935  0.24569177  0.88244593  1
  O  O309  1  0.25728202  0.74889307  0.39058678  1
  O  O310  1  0.24146073  0.73861994  0.86843496  1
  O  O311  1  0.73880329  0.24544902  0.37680659  1
  O  O312  1  0.73978956  0.24635204  0.88031450  1
  O  O313  1  0.74959627  0.74304441  0.38464694  1
  O  O314  1  0.73399651  0.74706981  0.87302132  1
  O  O315  1  0.01420218  0.13586901  0.01749305  1
  O  O316  1  0.00509643  0.11753996  0.50683230  1
  O  O317  1  0.01624514  0.61734325  0.00546308  1
  O  O318  1  0.00599874  0.61994201  0.49799827  1
  O  O319  1  0.49831231  0.13129204  0.01898822  1
  O  O320  1  0.50695546  0.11817456  0.50087837  1
  O  O321  1  0.49529413  0.60970302  0.00084064  1
  O  O322  1  0.50840797  0.61843543  0.49650807  1
  O  O323  1  0.49397884  0.38512050  0.49422369  1
  O  O324  1  0.49215974  0.38244913  0.99342502  1
  O  O325  1  0.49869500  0.88198245  0.49206651  1
  O  O326  1  0.48745136  0.87028588  0.99194993  1
  O  O327  1  0.99145479  0.38819846  0.48683791  1
  O  O328  1  0.99357677  0.37105025  0.99163808  1
  O  O329  1  1.00215868  0.88620931  0.49395383  1
  O  O330  1  0.98157075  0.88164566  0.99717139  1
  O  O331  1  0.49205387  0.49644130  0.38144786  1
  O  O332  1  0.49908552  0.49167969  0.88719537  1
  O  O333  1  0.49786649  0.99481224  0.38494899  1
  O  O334  1  0.49310604  0.98566718  0.87261019  1
  O  O335  1  0.99075504  0.49760842  0.37792900  1
  O  O336  1  0.99701520  0.48731615  0.88384613  1
  O  O337  1  0.99562217  0.99258545  0.37857077  1
  O  O338  1  0.99294318  1.04811303  0.88393379  1
  O  O339  1  0.00631970  0.00990921  0.13300451  1
  O  O340  1  0.00324254  0.00558537  0.61534193  1
  O  O341  1  0.00654118  0.50426606  0.12225677  1
  O  O342  1  -0.00406456  0.50372152  0.61868682  1
  O  O343  1  0.48799417  0.01344250  0.12661911  1
  O  O344  1  0.50327832  -0.00049438  0.61226605  1
  O  O345  1  0.49637256  0.50118364  0.11275752  1
  O  O346  1  0.51099149  0.49716270  0.62122017  1
  O  O347  1  0.25230171  0.38698682  0.25305222  1
  O  O348  1  0.24346214  0.38079060  0.75212521  1
  O  O349  1  0.24825212  0.88344097  0.25512257  1
  O  O350  1  0.25065827  0.88351680  0.74476723  1
  O  O351  1  0.74036640  0.38475380  0.24528283  1
  O  O352  1  0.74652092  0.38248172  0.73796766  1
  O  O353  1  0.73971085  0.82813731  0.23813341  1
  O  O354  1  0.74327595  0.86916597  0.74017427  1
  O  O355  1  0.25094420  0.12759394  0.26176552  1
  O  O356  1  0.26356929  0.11737887  0.75655692  1
  O  O357  1  0.26156426  0.61711237  0.25487353  1
  O  O358  1  0.25858154  0.62535761  0.75645445  1
  O  O359  1  0.75438084  0.12802466  0.26263786  1
  O  O360  1  0.75568870  0.12332033  0.75487276  1
  O  O361  1  0.73973744  0.62195358  0.26677985  1
  O  O362  1  0.74402975  0.61189732  0.75135220  1
  O  O363  1  0.35936787  0.12809767  0.38082912  1
  O  O364  1  0.37402682  0.11869050  0.87196254  1
  O  O365  1  0.37286941  0.61727854  0.36767871  1
  O  O366  1  0.36732530  0.62867257  0.86860878  1
  O  O367  1  0.86730413  0.11963883  0.36894723  1
  O  O368  1  0.85925810  0.13951293  0.85799296  1
  O  O369  1  0.86530537  0.61246831  0.37822884  1
  O  O370  1  0.86329076  0.61350315  0.90766644  1
  O  O371  1  0.11819935  0.38365879  0.11849309  1
  O  O372  1  0.11391518  0.35311682  0.63062792  1
  O  O373  1  0.13419186  0.86674953  0.10491749  1
  O  O374  1  0.13243922  0.88385663  0.62669944  1
  O  O375  1  0.62384333  0.36611583  0.13611743  1
  O  O376  1  0.62875484  0.38269445  0.62630447  1
  O  O377  1  0.62977450  0.87163996  0.13493806  1
  O  O378  1  0.63716569  0.87563409  0.63379167  1
  O  O379  1  0.12831829  0.25071431  0.26143004  1
  O  O380  1  0.12649516  0.23996360  0.75658738  1
  O  O381  1  0.11121119  0.74454578  0.25114425  1
  O  O382  1  0.11635268  0.75453078  0.75570195  1
  O  O383  1  0.62442491  0.25824863  0.25769172  1
  O  O384  1  0.62592622  0.25141226  0.76235179  1
  O  O385  1  0.60369487  0.73893726  0.26326295  1
  O  O386  1  0.61740449  0.75873883  0.75327407  1
  O  O387  1  0.37246180  0.25903363  0.23496165  1
  O  O388  1  0.37035498  0.24044507  0.74322794  1
  O  O389  1  0.38047994  0.74248851  0.24530224  1
  O  O390  1  0.38163165  0.74383709  0.74385133  1
  O  O391  1  0.86607437  0.23654057  0.24249143  1
  O  O392  1  0.87001166  0.23998212  0.73297647  1
  O  O393  1  0.89178850  0.74706087  0.23137589  1
  O  O394  1  0.88757509  0.74910169  0.74817122  1
  O  O395  1  0.37785496  0.49826818  0.49742137  1
  O  O396  1  0.37953333  0.49233881  0.99835618  1
  O  O397  1  0.38307322  0.99578231  0.49816509  1
  O  O398  1  0.36752476  0.99247696  0.98887807  1
  O  O399  1  0.88297725  0.50136476  0.49151133  1
  O  O400  1  0.88529897  0.47792233  1.00375461  1
  O  O401  1  0.88686241  1.00672484  0.48581056  1
  O  O402  1  0.87301466  0.99096694  0.99383725  1
  O  O403  1  0.13462246  0.01269944  0.00667022  1
  O  O404  1  0.11877967  0.00671990  0.50371259  1
  O  O405  1  0.12249615  0.50459252  0.00609722  1
  O  O406  1  0.10880885  0.50804502  0.49682941  1
  O  O407  1  0.62813210  0.00099008  0.00844062  1
  O  O408  1  0.61823526  0.01215202  0.49932843  1
  O  O409  1  0.61764285  0.49473734  0.00857340  1
  O  O410  1  0.61891605  0.50788405  0.50714716  1
  O  O411  1  0.37755904  0.36464160  0.11165891  1
  O  O412  1  0.37467556  0.36796231  0.61907007  1
  O  O413  1  0.37740758  0.86542492  0.11663188  1
  O  O414  1  0.37156022  0.86782205  0.62094116  1
  O  O415  1  0.87023285  0.36454058  0.11873336  1
  O  O416  1  0.86526592  0.36759333  0.62168534  1
  O  O417  1  0.87694542  0.86291908  0.11996147  1
  O  O418  1  0.86462610  0.86242761  0.62936947  1
  O  O419  1  0.13355316  0.13167650  0.37806117  1
  O  O420  1  0.13526778  0.13249481  0.88373261  1
  O  O421  1  0.12670871  0.62362281  0.38708274  1
  O  O422  1  0.13173955  0.63707027  0.88612516  1
  O  O423  1  0.62905572  0.13160460  0.37857833  1
  O  O424  1  0.63092719  0.12970056  0.87609646  1
  O  O425  1  0.62984422  0.63041233  0.38767772  1
  O  O426  1  0.62399528  0.64039735  0.87180912  1
