# generated using pymatgen
data_V85Zn86O256
_symmetry_space_group_name_H-M   'P 1'
_cell_length_a   16.94121757
_cell_length_b   16.94829039
_cell_length_c   16.93450593
_cell_angle_alpha   90.05890245
_cell_angle_beta   89.99976773
_cell_angle_gamma   89.89286390
_symmetry_Int_Tables_number   1
_chemical_formula_structural   V85Zn86O256
_chemical_formula_sum   'V85 Zn86 O256'
_cell_volume   4862.30343837
_cell_formula_units_Z   1
loop_
 _symmetry_equiv_pos_site_id
 _symmetry_equiv_pos_as_xyz
  1  'x, y, z'
loop_
 _atom_site_type_symbol
 _atom_site_label
 _atom_site_symmetry_multiplicity
 _atom_site_fract_x
 _atom_site_fract_y
 _atom_site_fract_z
 _atom_site_occupancy
  V  V0  1  0.87684554  0.86426183  0.50098312  1
  V  V1  1  0.73891496  0.24778932  -0.00722139  1
  V  V2  1  0.51095525  0.37564749  0.87737864  1
  V  V3  1  0.25330821  0.12504383  0.87202062  1
  V  V4  1  0.39431175  0.75079231  0.12720868  1
  V  V5  1  0.49604058  0.38243559  0.38157915  1
  V  V6  1  0.74199217  0.37173919  0.63128004  1
  V  V7  1  0.87595981  0.50538942  0.87171312  1
  V  V8  1  0.87545770  0.37626933  0.00005482  1
  V  V9  1  0.12583590  0.87267431  0.25043620  1
  V  V10  1  0.38234013  0.88354023  -0.00423373  1
  V  V11  1  0.75434163  0.86396369  0.62481750  1
  V  V12  1  0.12815011  -0.00115636  0.62144823  1
  V  V13  1  0.74668039  0.12194995  0.37390919  1
  V  V14  1  0.50526144  0.85577291  0.87147181  1
  V  V15  1  0.88289860  0.74736163  0.12316188  1
  V  V16  1  0.61800500  0.50476696  0.62593534  1
  V  V17  1  0.00550857  0.38009354  0.87106020  1
  V  V18  1  0.12656302  0.87324053  0.74821488  1
  V  V19  1  0.62328089  0.25073918  0.37802517  1
  V  V20  1  0.37458329  0.24920961  0.12591199  1
  V  V21  1  0.37854559  0.12432005  0.25353364  1
  V  V22  1  -0.00346194  0.62720651  0.62437760  1
  V  V23  1  0.25306768  0.87948267  0.12266423  1
  V  V24  1  0.12406166  0.12479875  -0.00119696  1
  V  V25  1  0.49736164  0.00620627  0.50377477  1
  V  V26  1  0.25405849  -0.00028110  0.74749511  1
  V  V27  1  0.50157112  0.24832182  0.25245823  1
  V  V28  1  -0.00010484  0.50687249  0.00902881  1
  V  V29  1  0.51015793  0.25818353  0.74856730  1
  V  V30  1  0.62531332  0.61782569  0.01897289  1
  V  V31  1  0.87117900  -0.00350581  0.37102435  1
  V  V32  1  0.87396222  0.37435930  0.49921811  1
  V  V33  1  0.62343237  0.75223753  0.36800596  1
  V  V34  1  0.61603326  0.62803542  0.50243072  1
  V  V35  1  0.87316087  0.12259071  0.25204272  1
  V  V36  1  0.62589481  0.00537697  0.62842774  1
  V  V37  1  0.74801968  0.24880982  0.50434086  1
  V  V38  1  0.24135915  0.12850543  0.37542340  1
  V  V39  1  0.12637767  0.48764184  0.63398258  1
  V  V40  1  0.62890675  0.00663695  0.11221306  1
  V  V41  1  0.74038512  0.62692226  0.87250099  1
  V  V42  1  -0.00606930  0.00266550  -0.00907250  1
  V  V43  1  0.75511334  -0.00418392  0.75560633  1
  V  V44  1  0.34606228  0.50585959  0.37341727  1
  V  V45  1  0.74380266  0.49785118  0.75133988  1
  V  V46  1  0.74998520  0.62478228  0.37566479  1
  V  V47  1  0.87771315  0.11695514  0.76131984  1
  V  V48  1  0.25668925  0.86558770  0.62244374  1
  V  V49  1  0.49973258  0.50113296  0.01907751  1
  V  V50  1  0.38173125  0.12961786  0.73976658  1
  V  V51  1  0.62300590  0.85934355  0.74784797  1
  V  V52  1  0.24201042  0.25547490  0.50293327  1
  V  V53  1  0.87208048  0.24813844  0.62764309  1
  V  V54  1  0.39017920  0.00326915  0.87096014  1
  V  V55  1  -0.00043306  0.12610929  0.12384653  1
  V  V56  1  -0.00658265  0.75055692  0.74510194  1
  V  V57  1  0.25813248  0.74230157  0.49186555  1
  V  V58  1  0.25021084  0.25055846  -0.00039351  1
  V  V59  1  0.87540361  0.49410823  0.37370600  1
  V  V60  1  0.12253439  0.75153684  0.87363069  1
  V  V61  1  0.12561130  0.25372448  0.87139493  1
  V  V62  1  -0.00024421  0.12293377  0.62452924  1
  V  V63  1  0.74419057  0.75042955  -0.00114198  1
  V  V64  1  -0.00112301  0.49395963  0.49943948  1
  V  V65  1  0.00110940  -0.00408453  0.49639729  1
  V  V66  1  0.75438940  0.88003164  0.13409780  1
  V  V67  1  0.00257356  0.25158390  0.26673237  1
  V  V68  1  0.24830453  0.49148951  0.75191252  1
  V  V69  1  0.24180629  0.37694619  0.12847051  1
  V  V70  1  0.12268090  0.37563148  0.26315282  1
  V  V71  1  0.37052513  0.26545405  0.62851680  1
  V  V72  1  0.25231528  0.75321017  -0.00298772  1
  V  V73  1  0.87181550  0.87918710  -0.00863466  1
  V  V74  1  0.88273607  0.62298021  0.24596175  1
  V  V75  1  0.37362133  0.50305639  0.88385930  1
  V  V76  1  0.87556533  0.25113823  0.12498060  1
  V  V77  1  0.12100400  0.62987180  0.01045138  1
  V  V78  1  0.25098524  0.00204806  0.24953160  1
  V  V79  1  0.61977443  0.88433600  0.25082502  1
  V  V80  1  0.74590951  0.38016475  0.12644579  1
  V  V81  1  0.50442307  0.12314932  0.11144604  1
  V  V82  1  0.12611262  0.62418300  0.49585418  1
  V  V83  1  0.00361433  0.25442662  0.74844798  1
  V  V84  1  0.62311913  0.38194639  0.24945498  1
  Zn  Zn85  1  0.37489995  0.37926053  0.00619847  1
  Zn  Zn86  1  0.75517760  0.74401962  0.50473833  1
  Zn  Zn87  1  0.74637153  0.50449034  0.24506225  1
  Zn  Zn88  1  0.12495172  0.50642087  0.13366647  1
  Zn  Zn89  1  0.00754582  0.74284831  0.24527733  1
  Zn  Zn90  1  -0.00527911  0.88028892  0.86971101  1
  Zn  Zn91  1  0.39682010  0.72821814  0.62320957  1
  Zn  Zn92  1  0.37085129  0.37604068  0.50188955  1
  Zn  Zn93  1  0.12314541  0.00027767  0.12215690  1
  Zn  Zn94  1  0.38581882  0.62455543  0.74624956  1
  Zn  Zn95  1  0.38070260  0.86914276  0.49691805  1
  Zn  Zn96  1  0.62109132  0.12847904  0.51009706  1
  Zn  Zn97  1  0.37335397  0.62027379  0.24735513  1
  Zn  Zn98  1  0.86715473  0.63118576  0.73981196  1
  Zn  Zn99  1  0.37596078  -0.00193855  0.37705885  1
  Zn  Zn100  1  0.48728337  0.50651600  0.50770488  1
  Zn  Zn101  1  0.12772752  0.74119107  0.36966709  1
  Zn  Zn102  1  0.74145224  0.11710023  0.88555398  1
  Zn  Zn103  1  0.25126011  0.62507022  0.87472177  1
  Zn  Zn104  1  0.00028175  0.86800575  0.36975958  1
  Zn  Zn105  1  0.49584720  0.87812197  0.37289289  1
  Zn  Zn106  1  0.12260148  0.12648300  0.49458329  1
  Zn  Zn107  1  0.18469384  0.18996896  0.18866888  1
  Zn  Zn108  1  0.18742071  0.18729171  0.68519207  1
  Zn  Zn109  1  0.20005348  0.68907850  0.18679397  1
  Zn  Zn110  1  0.19451276  0.68027537  0.68679873  1
  Zn  Zn111  1  0.68850881  0.18992339  0.18845674  1
  Zn  Zn112  1  0.67308824  0.17174738  0.72464841  1
  Zn  Zn113  1  0.69459562  0.69463493  0.19107906  1
  Zn  Zn114  1  0.55603268  0.68660411  0.68838244  1
  Zn  Zn115  1  0.30971629  0.31313411  0.31583422  1
  Zn  Zn116  1  0.31715952  0.31974644  0.81664015  1
  Zn  Zn117  1  0.31595559  0.81205459  0.31131410  1
  Zn  Zn118  1  0.31914768  0.80829215  0.80776058  1
  Zn  Zn119  1  0.80983895  0.31086956  0.31278818  1
  Zn  Zn120  1  0.81660790  0.31395123  0.81272346  1
  Zn  Zn121  1  0.81343529  0.80876577  0.31195853  1
  Zn  Zn122  1  0.80827997  0.80842999  0.81223698  1
  Zn  Zn123  1  0.17889802  0.43178339  0.44247340  1
  Zn  Zn124  1  0.18624953  0.43992094  0.94073536  1
  Zn  Zn125  1  0.19231473  0.93504822  0.43493172  1
  Zn  Zn126  1  0.18831212  0.94027308  0.93373037  1
  Zn  Zn127  1  0.68567626  0.43981155  0.44017135  1
  Zn  Zn128  1  0.68699499  0.44060040  0.94334768  1
  Zn  Zn129  1  0.68818926  0.93965581  0.44144800  1
  Zn  Zn130  1  0.68500529  0.93333648  0.93377128  1
  Zn  Zn131  1  0.31679633  0.06368135  0.06062590  1
  Zn  Zn132  1  0.31346299  0.06621723  0.56255011  1
  Zn  Zn133  1  0.30786885  0.57376274  0.08295902  1
  Zn  Zn134  1  0.31093099  0.56045047  0.56527186  1
  Zn  Zn135  1  0.81093904  0.06341656  0.06252469  1
  Zn  Zn136  1  0.81154069  0.05864763  0.56483362  1
  Zn  Zn137  1  0.81311862  0.56348489  0.06249838  1
  Zn  Zn138  1  0.80886998  0.56253822  0.56332033  1
  Zn  Zn139  1  0.43013577  0.43352472  0.19587182  1
  Zn  Zn140  1  0.43521463  0.44530941  0.69464051  1
  Zn  Zn141  1  0.44199403  0.94147566  0.18335472  1
  Zn  Zn142  1  0.44309985  0.92916852  0.68403279  1
  Zn  Zn143  1  0.93914137  0.43443834  0.19098580  1
  Zn  Zn144  1  0.93450610  0.43859742  0.68637845  1
  Zn  Zn145  1  0.93993216  0.93769697  0.18384286  1
  Zn  Zn146  1  0.93804701  0.93566831  0.68399748  1
  Zn  Zn147  1  0.06235858  0.05905854  0.30996907  1
  Zn  Zn148  1  0.06580313  0.06300031  0.81092100  1
  Zn  Zn149  1  0.06076946  0.55683723  0.31605387  1
  Zn  Zn150  1  0.06489197  0.56850744  0.81315489  1
  Zn  Zn151  1  0.56457797  0.05952608  0.31225063  1
  Zn  Zn152  1  0.56708183  0.06287518  0.81178645  1
  Zn  Zn153  1  0.55868076  0.56309076  0.30452101  1
  Zn  Zn154  1  0.56391577  0.55716318  0.82281496  1
  Zn  Zn155  1  0.43494420  0.18759538  0.44148200  1
  Zn  Zn156  1  0.43813298  0.19266395  0.93300659  1
  Zn  Zn157  1  0.45392402  0.66705865  0.39308276  1
  Zn  Zn158  1  0.43765809  0.68225595  0.94891970  1
  Zn  Zn159  1  0.93321406  0.18271102  0.44174162  1
  Zn  Zn160  1  0.93383963  0.19062116  0.93639640  1
  Zn  Zn161  1  0.94374672  0.68425109  0.43083013  1
  Zn  Zn162  1  0.93603186  0.68963512  0.93551748  1
  Zn  Zn163  1  0.06117633  0.31422168  0.06187211  1
  Zn  Zn164  1  0.06134752  0.31224813  0.56105716  1
  Zn  Zn165  1  0.06207335  0.81825744  0.06193820  1
  Zn  Zn166  1  0.06704506  0.80975411  0.56055033  1
  Zn  Zn167  1  0.56138478  0.31413909  0.06462019  1
  Zn  Zn168  1  0.55981320  0.31340176  0.56686196  1
  Zn  Zn169  1  0.56857038  0.82103292  0.05574617  1
  Zn  Zn170  1  0.56878396  0.81827041  0.55366905  1
  O  O171  1  0.11728774  0.12615686  0.11676488  1
  O  O172  1  0.11799540  0.11380888  0.62407343  1
  O  O173  1  0.12239274  0.62737304  0.11341741  1
  O  O174  1  0.11390717  0.61560556  0.61554859  1
  O  O175  1  0.62131504  0.11395813  0.13107811  1
  O  O176  1  0.63170887  0.10937563  0.63128783  1
  O  O177  1  0.63478783  0.62660640  0.11791137  1
  O  O178  1  0.62373131  0.61694960  0.61419446  1
  O  O179  1  0.38156391  0.38026407  0.37698304  1
  O  O180  1  0.38158042  0.38774337  0.88546257  1
  O  O181  1  0.37748187  0.87951916  0.37771887  1
  O  O182  1  0.38626921  0.88182663  0.87546678  1
  O  O183  1  0.86560791  0.38679980  0.38082225  1
  O  O184  1  0.88455564  0.38661399  0.87912123  1
  O  O185  1  0.87565164  0.88157757  0.37994153  1
  O  O186  1  0.87436743  0.87038962  0.88788975  1
  O  O187  1  0.25393956  0.00962697  0.36785077  1
  O  O188  1  0.26016242  0.00501102  0.86531624  1
  O  O189  1  0.24865849  0.48832832  0.37138961  1
  O  O190  1  0.25649893  0.50134414  0.87508050  1
  O  O191  1  0.75907122  0.01019325  0.38071091  1
  O  O192  1  0.74717935  -0.00185258  0.86084900  1
  O  O193  1  0.75520046  0.51030009  0.37368130  1
  O  O194  1  0.75744286  0.50107786  0.87081673  1
  O  O195  1  0.24193530  0.47775809  0.11068323  1
  O  O196  1  0.23353869  0.50021354  0.63347186  1
  O  O197  1  0.25081108  0.99223653  0.12673729  1
  O  O198  1  0.24535073  0.99402520  0.62788640  1
  O  O199  1  0.75738950  0.48391630  0.12574974  1
  O  O200  1  0.74365129  0.49373301  0.63367475  1
  O  O201  1  0.74077731  0.99477610  0.12335487  1
  O  O202  1  0.74530893  0.99063570  0.63318152  1
  O  O203  1  0.00706265  0.35917745  0.24794983  1
  O  O204  1  -0.00738901  0.36582759  0.75811793  1
  O  O205  1  0.01260648  0.87341501  0.24652232  1
  O  O206  1  0.00813993  0.86883516  0.74842835  1
  O  O207  1  0.50652864  0.36730079  0.25839571  1
  O  O208  1  0.49182147  0.36936539  0.76665355  1
  O  O209  1  0.51610788  0.88214544  0.25191760  1
  O  O210  1  0.50782837  0.87566698  0.76273061  1
  O  O211  1  0.49375185  0.12927126  0.24590545  1
  O  O212  1  0.49173580  0.14741077  0.75903907  1
  O  O213  1  0.48068033  0.63654445  0.28275786  1
  O  O214  1  0.50186740  0.61846587  0.75684851  1
  O  O215  1  0.99520118  0.13454674  0.24552107  1
  O  O216  1  0.99435355  0.12902306  0.74489769  1
  O  O217  1  0.98722556  0.62152870  0.25173062  1
  O  O218  1  0.99846369  0.63378496  0.74238728  1
  O  O219  1  0.36541492  0.25117878  0.00672742  1
  O  O220  1  0.36616799  0.25037397  0.51274465  1
  O  O221  1  0.36861596  0.76706453  0.00002711  1
  O  O222  1  0.36133647  0.74724419  0.50342485  1
  O  O223  1  0.87191672  0.25852061  0.00879108  1
  O  O224  1  0.86946335  0.25465989  0.50704589  1
  O  O225  1  0.86668915  0.75575611  0.00548896  1
  O  O226  1  0.87715937  0.76111261  0.49193745  1
  O  O227  1  0.13680379  0.24531091  0.50588036  1
  O  O228  1  0.12942509  0.24405730  0.99239894  1
  O  O229  1  0.13129331  0.73922817  0.49521327  1
  O  O230  1  0.12994411  0.74971870  0.99430114  1
  O  O231  1  0.62941253  0.24742182  0.49728814  1
  O  O232  1  0.64059433  0.25331748  1.00465138  1
  O  O233  1  0.63475185  0.74303653  0.49092571  1
  O  O234  1  0.63791051  0.74091639  1.00670827  1
  O  O235  1  0.49591830  0.24351734  0.13287335  1
  O  O236  1  0.48766569  0.25900038  0.64091861  1
  O  O237  1  0.49163514  0.77059801  0.12321038  1
  O  O238  1  0.50443057  0.76440220  0.62570067  1
  O  O239  1  0.98799316  0.24480347  0.12616318  1
  O  O240  1  0.99565675  0.24477954  0.63181943  1
  O  O241  1  0.98664393  0.75507655  0.12325931  1
  O  O242  1  1.00740277  0.74102500  0.63336503  1
  O  O243  1  -0.00640826  0.24497291  0.36484070  1
  O  O244  1  0.00281945  0.25887854  0.86786836  1
  O  O245  1  0.00846856  0.75079423  0.36563585  1
  O  O246  1  0.00740559  0.75418231  0.86718540  1
  O  O247  1  0.50436124  0.25582329  0.37235337  1
  O  O248  1  0.49491695  0.26700643  0.86725182  1
  O  O249  1  0.52113514  0.76189280  0.38299557  1
  O  O250  1  0.49528966  0.75830524  0.87837581  1
  O  O251  1  0.24779601  0.13116584  0.49131658  1
  O  O252  1  0.24712148  0.13402112  0.99480807  1
  O  O253  1  0.24042481  0.63644166  0.50799987  1
  O  O254  1  0.24148109  0.63908588  0.99985046  1
  O  O255  1  0.75018051  0.13205307  0.49239437  1
  O  O256  1  0.75596832  0.14204296  0.99920870  1
  O  O257  1  0.74298798  0.62478640  0.49190064  1
  O  O258  1  0.74252472  0.62978009  0.99749341  1
  O  O259  1  0.24612838  0.36075897  0.00557436  1
  O  O260  1  0.24879597  0.35868034  0.49911101  1
  O  O261  1  0.25733625  0.87457567  0.00339137  1
  O  O262  1  0.24964534  0.86189060  0.50602937  1
  O  O263  1  0.75538226  0.36807998  0.00779083  1
  O  O264  1  0.75517978  0.36821875  0.50705475  1
  O  O265  1  0.75381664  0.86826483  0.00537596  1
  O  O266  1  0.76020328  0.87444495  0.50682413  1
  O  O267  1  0.11319772  0.48080206  0.24771447  1
  O  O268  1  0.12526869  0.50177842  0.74000653  1
  O  O269  1  0.13327679  0.99383505  0.24387010  1
  O  O270  1  0.13139598  0.99333656  0.74281442  1
  O  O271  1  0.62700372  0.48637556  0.25458055  1
  O  O272  1  0.63777171  0.50158615  0.74411234  1
  O  O273  1  0.62994310  0.98875670  0.24271760  1
  O  O274  1  0.63347347  0.98795982  0.74251791  1
  O  O275  1  0.37005644  0.00942783  0.24794403  1
  O  O276  1  0.37564844  0.00892358  0.75247146  1
  O  O277  1  0.37607526  0.49627003  0.27238138  1
  O  O278  1  0.36454364  0.50145233  0.76437141  1
  O  O279  1  0.88322222  0.00433940  0.26346897  1
  O  O280  1  0.87102230  0.00504115  0.74756193  1
  O  O281  1  0.87340334  0.50325258  0.25736130  1
  O  O282  1  0.86691240  0.50329027  0.75741086  1
  O  O283  1  0.12181528  0.37064114  0.36224348  1
  O  O284  1  0.11153666  0.37087889  0.88072029  1
  O  O285  1  0.12757958  0.87594010  0.35827610  1
  O  O286  1  0.12303185  0.86616890  0.86895615  1
  O  O287  1  0.61983648  0.36762975  0.37127504  1
  O  O288  1  0.61015341  0.38202081  0.87940892  1
  O  O289  1  0.63453184  0.87361053  0.36125950  1
  O  O290  1  0.61235740  0.87345300  0.86722092  1
  O  O291  1  0.38301060  0.12832404  0.13374965  1
  O  O292  1  0.37322974  0.13386797  0.63727351  1
  O  O293  1  0.39474231  0.65292487  0.09901841  1
  O  O294  1  0.38272925  0.61420727  0.62860444  1
  O  O295  1  0.87799800  0.13176045  0.13264629  1
  O  O296  1  0.88396420  0.12932171  0.62860170  1
  O  O297  1  0.86893907  0.63451718  0.13302259  1
  O  O298  1  0.89020271  0.61843696  0.62367453  1
  O  O299  1  0.25235633  0.25318137  0.11662250  1
  O  O300  1  0.25604474  0.24392356  0.61278787  1
  O  O301  1  0.25762382  0.76716784  0.11047639  1
  O  O302  1  0.23819185  0.75796393  0.61199423  1
  O  O303  1  0.76042075  0.25684843  0.11970577  1
  O  O304  1  0.75416089  0.25670241  0.62268891  1
  O  O305  1  0.76069952  0.76093881  0.11756327  1
  O  O306  1  0.75491314  0.76466131  0.62382955  1
  O  O307  1  0.25663526  0.24127273  0.39163211  1
  O  O308  1  0.24694830  0.24670338  0.88124915  1
  O  O309  1  0.24736653  0.75240788  0.38848819  1
  O  O310  1  0.24355986  0.75544448  0.88564312  1
  O  O311  1  0.74420299  0.24433857  0.38442688  1
  O  O312  1  0.75633414  0.25638867  0.89150375  1
  O  O313  1  0.74668947  0.73847782  0.37619910  1
  O  O314  1  0.75532547  0.73801571  0.88566469  1
  O  O315  1  0.00127057  0.12095700  0.00247839  1
  O  O316  1  0.00208253  0.11527837  0.50540165  1
  O  O317  1  0.00654569  0.61770148  -0.00645502  1
  O  O318  1  0.00412322  0.61417305  0.50601909  1
  O  O319  1  0.49554797  0.13194629  0.01230271  1
  O  O320  1  0.50266342  0.11268952  0.49974171  1
  O  O321  1  0.51884522  0.61625470  -0.00115360  1
  O  O322  1  0.51324397  0.62191077  0.48581282  1
  O  O323  1  0.49380831  0.37444031  0.49353071  1
  O  O324  1  0.49867880  0.38092095  0.99464644  1
  O  O325  1  0.50113901  0.89210476  0.49479071  1
  O  O326  1  0.49551569  0.87716454  0.98298962  1
  O  O327  1  0.99114773  0.38562445  0.50569762  1
  O  O328  1  0.99387540  0.38263991  0.99147544  1
  O  O329  1  0.99502136  0.88032257  0.49735348  1
  O  O330  1  0.99066495  0.88536485  0.99815473  1
  O  O331  1  0.50745515  0.48507704  0.38151863  1
  O  O332  1  0.49346842  0.48967185  0.88865327  1
  O  O333  1  0.50039994  1.00118458  0.38787801  1
  O  O334  1  0.49197240  0.99877344  0.86971167  1
  O  O335  1  0.98786345  0.50090182  0.38745666  1
  O  O336  1  0.99467233  0.49644013  0.87818355  1
  O  O337  1  0.99469130  0.99785455  0.38436581  1
  O  O338  1  1.00351261  1.00062911  0.88624556  1
  O  O339  1  0.00051328  0.00966182  0.11307306  1
  O  O340  1  0.00651517  0.00160043  0.61329512  1
  O  O341  1  -0.00011144  0.49453807  0.11142685  1
  O  O342  1  0.00699383  0.50480980  0.62128736  1
  O  O343  1  0.51645916  0.00948491  0.12606759  1
  O  O344  1  0.51075596  -0.00446151  0.61545610  1
  O  O345  1  0.49381305  0.49002051  0.11829404  1
  O  O346  1  0.51478947  0.48733358  0.62385173  1
  O  O347  1  0.23079427  0.36051848  0.24323891  1
  O  O348  1  0.24619594  0.39017602  0.76023178  1
  O  O349  1  0.24741670  0.88111218  0.23955722  1
  O  O350  1  0.24488251  0.88041034  0.74201456  1
  O  O351  1  0.74110116  0.37401933  0.24344429  1
  O  O352  1  0.75775452  0.38275028  0.74155620  1
  O  O353  1  0.74882200  0.87423666  0.23716030  1
  O  O354  1  0.74694543  0.87835102  0.74432078  1
  O  O355  1  0.25691669  0.12384467  0.25469282  1
  O  O356  1  0.25818906  0.11985280  0.75395955  1
  O  O357  1  0.27424912  0.60840185  0.19257716  1
  O  O358  1  0.24384069  0.60764444  0.75835071  1
  O  O359  1  0.75863214  0.13430321  0.26473533  1
  O  O360  1  0.76883534  0.11006110  0.73836989  1
  O  O361  1  0.76090129  0.62281674  0.25739573  1
  O  O362  1  0.75364644  0.61399581  0.76334814  1
  O  O363  1  0.36875433  0.12511926  0.36331562  1
  O  O364  1  0.37151717  0.11965803  0.86695665  1
  O  O365  1  0.35356858  0.60906629  0.37801991  1
  O  O366  1  0.37359338  0.61262215  0.88191845  1
  O  O367  1  0.86788435  0.11640344  0.37209292  1
  O  O368  1  0.86957060  0.12801200  0.86333511  1
  O  O369  1  0.86890948  0.61482169  0.36979831  1
  O  O370  1  0.86717350  0.61359970  0.87798716  1
  O  O371  1  0.12797261  0.37175086  0.13418625  1
  O  O372  1  0.11801091  0.38916193  0.62549739  1
  O  O373  1  0.13542080  0.87759979  0.13125816  1
  O  O374  1  0.13393815  0.88186358  0.62799865  1
  O  O375  1  0.63423652  0.36707605  0.13722386  1
  O  O376  1  0.63864131  0.38377370  0.61764068  1
  O  O377  1  0.63257292  0.88630260  0.13168182  1
  O  O378  1  0.63678406  0.88370433  0.63017539  1
  O  O379  1  0.10817975  0.25445282  0.24825968  1
  O  O380  1  0.11173624  0.24391433  0.75451050  1
  O  O381  1  0.13021388  0.75582468  0.24733139  1
  O  O382  1  0.11983967  0.75339164  0.75691218  1
  O  O383  1  0.62067595  0.25785856  0.25835870  1
  O  O384  1  0.60763286  0.26610816  0.73605019  1
  O  O385  1  0.63459898  0.76837544  0.25532165  1
  O  O386  1  0.63250022  0.76116716  0.74645216  1
  O  O387  1  0.37934832  0.24259912  0.24569518  1
  O  O388  1  0.37443741  0.24661161  0.74486141  1
  O  O389  1  0.36872924  0.75096968  0.22886811  1
  O  O390  1  0.35693354  0.73725173  0.73398276  1
  O  O391  1  0.88449829  0.24698988  0.24466896  1
  O  O392  1  0.88529557  0.24131987  0.74630777  1
  O  O393  1  0.87713956  0.74117012  0.24078368  1
  O  O394  1  0.88930097  0.74926832  0.75418828  1
  O  O395  1  0.36971535  0.49420378  0.48680838  1
  O  O396  1  0.38184363  0.50275151  1.00202391  1
  O  O397  1  0.38740775  1.00124953  0.50234959  1
  O  O398  1  0.37076716  0.99113598  0.98718803  1
  O  O399  1  0.87932128  0.49448137  0.49470179  1
  O  O400  1  0.88102072  0.49626396  0.99252587  1
  O  O401  1  0.88328960  0.99317558  0.49025857  1
  O  O402  1  0.88121896  0.99222499  1.00304106  1
  O  O403  1  0.11789368  0.00786230  -0.00039699  1
  O  O404  1  0.11793206  -0.00119985  0.50290206  1
  O  O405  1  0.11567605  0.51250241  -0.00011617  1
  O  O406  1  0.11665756  0.50206424  0.51025417  1
  O  O407  1  0.63041767  -0.00126726  0.01279603  1
  O  O408  1  0.61870287  0.00389510  0.50990783  1
  O  O409  1  0.62026396  0.50976892  0.00910637  1
  O  O410  1  0.62635752  0.51019562  0.51007406  1
  O  O411  1  0.36264933  0.36535674  0.12822513  1
  O  O412  1  0.37204977  0.36851451  0.62810329  1
  O  O413  1  0.37208900  0.87664023  0.11372983  1
  O  O414  1  0.36163064  0.87647167  0.62126710  1
  O  O415  1  0.86991176  0.36686421  0.12266100  1
  O  O416  1  0.86610902  0.36904611  0.61922125  1
  O  O417  1  0.86890028  0.87129459  0.11605097  1
  O  O418  1  0.86820546  0.88118325  0.61167104  1
  O  O419  1  0.13738671  0.12269261  0.37207983  1
  O  O420  1  0.13333152  0.13205701  0.87881879  1
  O  O421  1  0.12212472  0.61787478  0.39085955  1
  O  O422  1  0.12580953  0.64039883  0.88423123  1
  O  O423  1  0.63295239  0.13217085  0.37546134  1
  O  O424  1  0.64373759  0.13825014  0.83378607  1
  O  O425  1  0.63458048  0.63307599  0.37584133  1
  O  O426  1  0.63900616  0.61540696  0.89136970  1
