# generated using pymatgen
data_V85Zn86O256
_symmetry_space_group_name_H-M   'P 1'
_cell_length_a   16.92566084
_cell_length_b   16.92526400
_cell_length_c   16.92646900
_cell_angle_alpha   90.00877524
_cell_angle_beta   89.94622792
_cell_angle_gamma   90.00522464
_symmetry_Int_Tables_number   1
_chemical_formula_structural   V85Zn86O256
_chemical_formula_sum   'V85 Zn86 O256'
_cell_volume   4848.94499288
_cell_formula_units_Z   1
loop_
 _symmetry_equiv_pos_site_id
 _symmetry_equiv_pos_as_xyz
  1  'x, y, z'
loop_
 _atom_site_type_symbol
 _atom_site_label
 _atom_site_symmetry_multiplicity
 _atom_site_fract_x
 _atom_site_fract_y
 _atom_site_fract_z
 _atom_site_occupancy
  V  V0  1  0.37854784  0.12180647  0.24978544  1
  V  V1  1  0.37390582  0.74799473  0.12553632  1
  V  V2  1  0.12295526  0.88032927  0.75442697  1
  V  V3  1  -0.00948125  0.49563339  0.50012472  1
  V  V4  1  0.74749339  0.11721689  0.87860773  1
  V  V5  1  0.37521033  0.13329646  0.76117073  1
  V  V6  1  -0.00443994  0.63417194  0.62550781  1
  V  V7  1  0.13176710  0.25838684  0.87509125  1
  V  V8  1  -0.01465827  0.87711200  0.88160212  1
  V  V9  1  0.12917750  0.13544527  0.50247733  1
  V  V10  1  0.86282295  0.61847051  0.25581736  1
  V  V11  1  0.50123674  0.49023288  -0.00140585  1
  V  V12  1  0.24559451  0.75217855  0.49126695  1
  V  V13  1  0.74598049  0.74889920  0.00118106  1
  V  V14  1  0.24874705  0.62386967  0.87364506  1
  V  V15  1  0.37025637  0.36903688  0.49766167  1
  V  V16  1  0.61594180  0.36842152  0.75051738  1
  V  V17  1  0.24691093  0.36913194  0.62209787  1
  V  V18  1  0.36941552  0.50055319  0.37058182  1
  V  V19  1  0.87311562  0.87271585  0.51563076  1
  V  V20  1  0.87652731  0.49259854  0.87405497  1
  V  V21  1  0.36617564  0.25917525  0.11242684  1
  V  V22  1  0.74351122  0.24751120  -0.00043233  1
  V  V23  1  0.74112175  0.62284938  0.88065581  1
  V  V24  1  -0.00959518  -0.00221676  -0.00039832  1
  V  V25  1  0.49849594  0.75902598  0.75341534  1
  V  V26  1  0.24799645  0.87784188  0.62802127  1
  V  V27  1  0.75219739  0.12428695  0.37582663  1
  V  V28  1  0.87745578  0.25085163  0.12122535  1
  V  V29  1  0.38424169  0.25080518  0.62722978  1
  V  V30  1  0.25415475  0.11936211  0.37920059  1
  V  V31  1  0.74796598  0.75680928  0.51527487  1
  V  V32  1  0.75607526  0.37375932  0.62481268  1
  V  V33  1  0.37353261  0.75085803  0.62299566  1
  V  V34  1  0.24968565  0.50010831  0.74735763  1
  V  V35  1  0.38959610  0.87147065  -0.00579822  1
  V  V36  1  0.37601248  -0.00825064  0.87221827  1
  V  V37  1  0.23585232  0.38109087  0.11938697  1
  V  V38  1  0.12626540  0.87186695  0.25477348  1
  V  V39  1  0.63399441  0.50274907  0.12116613  1
  V  V40  1  0.37252796  0.88574250  0.49610396  1
  V  V41  1  0.62889106  0.87676470  0.24978022  1
  V  V42  1  0.00586719  0.12433962  0.12331311  1
  V  V43  1  0.87811214  0.12671931  0.75496637  1
  V  V44  1  0.37441789  0.62510451  0.74829060  1
  V  V45  1  0.62466937  0.50184592  0.62346803  1
  V  V46  1  0.00225796  0.00415521  0.50345747  1
  V  V47  1  0.49724796  0.88104338  0.37470371  1
  V  V48  1  0.49894438  0.24842983  0.23704238  1
  V  V49  1  0.00014534  0.61567058  0.12657973  1
  V  V50  1  0.12079966  0.63109108  0.49423720  1
  V  V51  1  0.14864773  0.12315548  -0.00901750  1
  V  V52  1  0.25005794  0.74783365  0.00001067  1
  V  V53  1  0.68438260  0.58561908  0.43946030  1
  V  V54  1  0.75570317  0.87654752  0.12153819  1
  V  V55  1  0.75507724  -0.00717274  0.74751929  1
  V  V56  1  0.87611419  0.75096892  0.12005012  1
  V  V57  1  0.49903007  0.37179679  0.37069545  1
  V  V58  1  0.13490094  0.25898093  0.36916803  1
  V  V59  1  0.37461054  0.49141179  0.87891252  1
  V  V60  1  0.12414805  0.50160903  0.62318733  1
  V  V61  1  0.12084347  0.62021178  -0.00087134  1
  V  V62  1  0.37359994  0.62386936  0.24998279  1
  V  V63  1  0.13332095  0.00105245  0.12558254  1
  V  V64  1  0.50373254  0.62725560  0.61958616  1
  V  V65  1  0.25193057  0.87241092  0.12499358  1
  V  V66  1  0.62440951  0.12556827  0.50171218  1
  V  V67  1  0.63210779  0.75164089  0.37688612  1
  V  V68  1  0.62210163  0.00987533  0.11930864  1
  V  V69  1  0.62419682  -0.00827892  0.62492648  1
  V  V70  1  0.00117263  0.48967363  -0.00307505  1
  V  V71  1  0.00088184  0.74895186  0.25215824  1
  V  V72  1  0.88201312  0.12606457  0.25129618  1
  V  V73  1  -0.00918903  0.37503459  0.37169317  1
  V  V74  1  0.74581153  0.49969753  0.75207937  1
  V  V75  1  0.61801932  0.24225926  0.87361913  1
  V  V76  1  0.00064572  0.86915744  0.37811659  1
  V  V77  1  0.50270284  0.62347908  0.11607816  1
  V  V78  1  0.87186795  0.63250483  0.74973085  1
  V  V79  1  0.50049582  0.50430711  0.49595017  1
  V  V80  1  0.87658051  -0.00214810  0.37663895  1
  V  V81  1  0.12043701  0.75210305  0.87416526  1
  V  V82  1  0.61904958  0.75636540  0.88034854  1
  V  V83  1  0.75870038  0.25015548  0.50097745  1
  V  V84  1  0.63348139  0.37692519  0.24564103  1
  Zn  Zn85  1  0.11824743  0.38002474  0.75573940  1
  Zn  Zn86  1  0.25723294  -0.00345115  0.25455082  1
  Zn  Zn87  1  0.62413976  0.87627179  0.75073798  1
  Zn  Zn88  1  0.12601316  0.00785414  0.62907626  1
  Zn  Zn89  1  0.00251366  0.13264335  0.62894093  1
  Zn  Zn90  1  0.24250944  0.62484255  0.37202941  1
  Zn  Zn91  1  -0.00317959  0.26682814  0.75773152  1
  Zn  Zn92  1  0.50228448  0.12815912  0.62978040  1
  Zn  Zn93  1  0.75504747  0.37820642  0.12434593  1
  Zn  Zn94  1  0.51213772  0.00675131  -0.00878910  1
  Zn  Zn95  1  0.49632286  0.00547338  0.49846069  1
  Zn  Zn96  1  0.62491908  0.24616219  0.37127434  1
  Zn  Zn97  1  0.21549167  0.48150716  0.25141435  1
  Zn  Zn98  1  0.49168365  0.36358547  0.87425559  1
  Zn  Zn99  1  0.88012287  0.25324624  0.62604329  1
  Zn  Zn100  1  0.50317095  0.74931297  0.25082558  1
  Zn  Zn101  1  0.00846382  0.26093098  0.24305732  1
  Zn  Zn102  1  0.87742664  0.36911302  -0.00674846  1
  Zn  Zn103  1  0.75375459  0.00052628  0.24876264  1
  Zn  Zn104  1  -0.00837651  0.75642324  0.74819512  1
  Zn  Zn105  1  0.85943585  0.49922090  0.37538488  1
  Zn  Zn106  1  0.24687108  0.00927915  0.75744888  1
  Zn  Zn107  1  0.19551724  0.18825079  0.18812639  1
  Zn  Zn108  1  0.19050799  0.19217951  0.69216715  1
  Zn  Zn109  1  0.16965065  0.65868379  0.20283736  1
  Zn  Zn110  1  0.18382164  0.69050954  0.68522239  1
  Zn  Zn111  1  0.69180715  0.18847576  0.18948193  1
  Zn  Zn112  1  0.68884133  0.18455996  0.68895357  1
  Zn  Zn113  1  0.68504518  0.68826787  0.18643431  1
  Zn  Zn114  1  0.68292940  0.68721149  0.69150798  1
  Zn  Zn115  1  0.30937407  0.31292693  0.30483748  1
  Zn  Zn116  1  0.30385072  0.30966325  0.81256320  1
  Zn  Zn117  1  0.31471049  0.81024971  0.31162841  1
  Zn  Zn118  1  0.31107515  0.81359663  0.81329687  1
  Zn  Zn119  1  0.81525892  0.30846275  0.31119322  1
  Zn  Zn120  1  0.80550553  0.30901267  0.81150459  1
  Zn  Zn121  1  0.81359450  0.80916052  0.31480446  1
  Zn  Zn122  1  0.80794232  0.81260368  0.81527317  1
  Zn  Zn123  1  0.18515957  0.43984888  0.44001383  1
  Zn  Zn124  1  0.19236802  0.43548646  0.94392482  1
  Zn  Zn125  1  0.18483854  0.94147248  0.43759411  1
  Zn  Zn126  1  0.19298494  0.93954465  0.93969351  1
  Zn  Zn127  1  0.68524557  0.42091285  0.43793278  1
  Zn  Zn128  1  0.68484514  0.43137597  0.93959666  1
  Zn  Zn129  1  0.68960928  0.93808173  0.43938746  1
  Zn  Zn130  1  0.69132779  0.93445368  0.93784634  1
  Zn  Zn131  1  0.35042038  0.07756118  0.05007924  1
  Zn  Zn132  1  0.30923721  0.06726362  0.56758186  1
  Zn  Zn133  1  0.30990914  0.55471689  0.06267354  1
  Zn  Zn134  1  0.31180347  0.56246648  0.55863011  1
  Zn  Zn135  1  0.81057118  0.06557302  0.06388256  1
  Zn  Zn136  1  0.81343939  0.06329045  0.56789558  1
  Zn  Zn137  1  0.81604944  0.56451699  0.06014889  1
  Zn  Zn138  1  0.81573906  0.56179269  0.56792777  1
  Zn  Zn139  1  0.43721789  0.43657831  0.18516654  1
  Zn  Zn140  1  0.43684946  0.43814368  0.68653364  1
  Zn  Zn141  1  0.44085545  0.93602276  0.18666709  1
  Zn  Zn142  1  0.43636127  0.94364675  0.68481615  1
  Zn  Zn143  1  0.93796501  0.43775462  0.19018219  1
  Zn  Zn144  1  0.93819332  0.44176318  0.69030853  1
  Zn  Zn145  1  0.93966719  0.93832874  0.18601257  1
  Zn  Zn146  1  0.93963243  0.94326776  0.69061343  1
  Zn  Zn147  1  0.06711250  0.06261186  0.31511999  1
  Zn  Zn148  1  0.06112465  0.06360697  0.82007659  1
  Zn  Zn149  1  0.05417445  0.56208498  0.31594673  1
  Zn  Zn150  1  0.05887852  0.55976745  0.81091954  1
  Zn  Zn151  1  0.56368539  0.06131490  0.31044307  1
  Zn  Zn152  1  0.55790821  0.06176116  0.80989046  1
  Zn  Zn153  1  0.55663691  0.55821781  0.30136215  1
  Zn  Zn154  1  0.56032955  0.56409479  0.81169639  1
  Zn  Zn155  1  0.43700445  0.18907635  0.43493900  1
  Zn  Zn156  1  0.44044944  0.18023862  0.94138993  1
  Zn  Zn157  1  0.43820968  0.69366750  0.43645110  1
  Zn  Zn158  1  0.43764519  0.68090816  0.93708260  1
  Zn  Zn159  1  0.94223888  0.19040713  0.43704118  1
  Zn  Zn160  1  0.94205154  0.18378491  0.93520634  1
  Zn  Zn161  1  0.92980832  0.68830617  0.43906385  1
  Zn  Zn162  1  0.93380787  0.68418792  0.93649198  1
  Zn  Zn163  1  0.06848230  0.30624602  0.05569631  1
  Zn  Zn164  1  0.05827076  0.31295109  0.56296265  1
  Zn  Zn165  1  0.06276813  0.81202568  0.06422072  1
  Zn  Zn166  1  0.06244193  0.81466330  0.56509863  1
  Zn  Zn167  1  0.56341376  0.31232491  0.06008311  1
  Zn  Zn168  1  0.56568376  0.31320861  0.55907307  1
  Zn  Zn169  1  0.56623925  0.81226148  0.06488246  1
  Zn  Zn170  1  0.56199779  0.81315802  0.55992443  1
  O  O171  1  0.12548861  0.11789169  0.11989838  1
  O  O172  1  0.12592479  0.12797286  0.61730484  1
  O  O173  1  0.11063896  0.64128296  0.10510286  1
  O  O174  1  0.11672752  0.62048295  0.61812451  1
  O  O175  1  0.63274036  0.10802714  0.13179899  1
  O  O176  1  0.62334487  0.11870704  0.61768336  1
  O  O177  1  0.61455110  0.61596307  0.13219197  1
  O  O178  1  0.61371079  0.61712282  0.62995455  1
  O  O179  1  0.37845702  0.37996830  0.37885343  1
  O  O180  1  0.37478888  0.38729663  0.86388273  1
  O  O181  1  0.38419104  0.86934500  0.38302828  1
  O  O182  1  0.37753139  0.87516745  0.88255047  1
  O  O183  1  0.88590340  0.37842181  0.37253007  1
  O  O184  1  0.86527566  0.38892572  0.87225335  1
  O  O185  1  0.88322853  0.88038446  0.38144597  1
  O  O186  1  0.88623664  0.86992879  0.87639902  1
  O  O187  1  0.24623406  0.01374891  0.37205496  1
  O  O188  1  0.26661540  -0.00785440  0.87115530  1
  O  O189  1  0.25529977  0.50344311  0.36950692  1
  O  O190  1  0.25564706  0.50526045  0.86927035  1
  O  O191  1  0.75923402  0.00648142  0.37404025  1
  O  O192  1  0.74279806  0.00661405  0.86245008  1
  O  O193  1  0.74165542  0.51001084  0.39006351  1
  O  O194  1  0.75108729  0.50672962  0.87361220  1
  O  O195  1  0.25416876  0.48680444  0.13300550  1
  O  O196  1  0.24593275  0.49447566  0.62813551  1
  O  O197  1  0.24031751  0.99077677  0.12944658  1
  O  O198  1  0.24680122  0.98646713  0.62581004  1
  O  O199  1  0.73830350  0.49995044  0.11640171  1
  O  O200  1  0.74256900  0.49440205  0.62911554  1
  O  O201  1  0.74551486  0.99140023  0.12607693  1
  O  O202  1  0.74182100  1.00539453  0.64021860  1
  O  O203  1  0.00360316  0.37905646  0.26576446  1
  O  O204  1  0.00457696  0.38219923  0.75410162  1
  O  O205  1  0.00495989  0.86898506  0.25719729  1
  O  O206  1  0.00586517  0.87683768  0.76063410  1
  O  O207  1  0.50665957  0.36785634  0.25431439  1
  O  O208  1  0.51235186  0.38053782  0.75145023  1
  O  O209  1  0.50927765  0.87215132  0.25680715  1
  O  O210  1  0.49748131  0.86136127  0.74388606  1
  O  O211  1  0.48880744  0.13408726  0.25814900  1
  O  O212  1  0.48143295  0.12299974  0.74581323  1
  O  O213  1  0.48962500  0.62774479  0.23775777  1
  O  O214  1  0.49289073  0.63126597  0.73860226  1
  O  O215  1  0.99330905  0.12284864  0.24416030  1
  O  O216  1  0.98417166  0.11515053  0.75150514  1
  O  O217  1  0.98956458  0.63351923  0.24243591  1
  O  O218  1  0.99021582  0.62668398  0.74326409  1
  O  O219  1  0.37756466  0.25026988  0.01477318  1
  O  O220  1  0.37923776  0.26403390  0.50554247  1
  O  O221  1  0.37141764  0.75317900  0.00438536  1
  O  O222  1  0.36578865  0.75864692  0.50627612  1
  O  O223  1  0.87068692  0.24814241  0.00543221  1
  O  O224  1  0.86288418  0.24207821  0.50377225  1
  O  O225  1  0.86965524  0.74452269  0.01413155  1
  O  O226  1  0.85889577  0.75858441  0.49712603  1
  O  O227  1  0.11924620  0.24051076  0.48771070  1
  O  O228  1  0.12520568  0.23054334  0.99045227  1
  O  O229  1  0.13371322  0.74454957  0.50763936  1
  O  O230  1  0.12795599  0.74626565  0.98846299  1
  O  O231  1  0.63502203  0.24188103  0.49717442  1
  O  O232  1  0.63535682  0.25009707  0.99347720  1
  O  O233  1  0.63714638  0.75308079  0.49369622  1
  O  O234  1  0.63217994  0.74900212  0.99408345  1
  O  O235  1  0.49203973  0.25467535  0.13349828  1
  O  O236  1  0.48814824  0.25498297  0.62205683  1
  O  O237  1  0.49113179  0.74176465  0.12255681  1
  O  O238  1  0.49595617  0.74322643  0.62964762  1
  O  O239  1  0.99609787  0.24290521  0.12447057  1
  O  O240  1  0.99694561  0.25019325  0.63410164  1
  O  O241  1  0.99148515  0.74489697  0.13052426  1
  O  O242  1  1.00295034  0.73845788  0.62881162  1
  O  O243  1  0.00732291  0.26333355  0.37357509  1
  O  O244  1  0.02167071  0.23464503  0.87173134  1
  O  O245  1  -0.00697032  0.76134271  0.36872228  1
  O  O246  1  0.00556408  0.75708041  0.87656367  1
  O  O247  1  0.50056298  0.26214674  0.36774702  1
  O  O248  1  0.51250981  0.24693831  0.88267238  1
  O  O249  1  0.51353071  0.76084063  0.37712814  1
  O  O250  1  0.50750506  0.73861270  0.86548885  1
  O  O251  1  0.24177730  0.12375040  0.49292181  1
  O  O252  1  0.24561586  0.11705356  1.00738285  1
  O  O253  1  0.24022690  0.63423200  0.50014553  1
  O  O254  1  0.24042461  0.62736905  0.99512872  1
  O  O255  1  0.74229502  0.12901160  0.49690204  1
  O  O256  1  0.75574081  0.13042716  0.98689528  1
  O  O257  1  0.75153775  0.63668927  0.50333917  1
  O  O258  1  0.75377119  0.63677308  0.99292489  1
  O  O259  1  0.25587462  0.38037741  0.01806203  1
  O  O260  1  0.26059672  0.38360507  0.50774070  1
  O  O261  1  0.25283507  0.86273965  0.00797546  1
  O  O262  1  0.25208152  0.87040751  0.50477651  1
  O  O263  1  0.75522994  0.36175129  0.00224434  1
  O  O264  1  0.74579076  0.36249394  0.51108018  1
  O  O265  1  0.75030654  0.86146672  0.00799773  1
  O  O266  1  0.75777054  0.86587487  0.50147869  1
  O  O267  1  0.13219625  0.55312524  0.23872970  1
  O  O268  1  0.13329905  0.50413778  0.74205384  1
  O  O269  1  0.12530800  0.99029186  0.24284784  1
  O  O270  1  0.12696392  0.99377266  0.75088068  1
  O  O271  1  0.61937138  0.48812307  0.23625574  1
  O  O272  1  0.62927456  0.49387174  0.74532116  1
  O  O273  1  0.63083005  0.98960644  0.24363249  1
  O  O274  1  0.63222878  0.99849617  0.74241593  1
  O  O275  1  0.37777312  0.01673356  0.24162293  1
  O  O276  1  0.37224897  0.00683612  0.75602201  1
  O  O277  1  0.38126936  0.50705206  0.26153495  1
  O  O278  1  0.36890829  0.50733530  0.75348264  1
  O  O279  1  0.87675236  0.00773236  0.25576394  1
  O  O280  1  0.86156287  0.00758265  0.74786277  1
  O  O281  1  0.87346566  0.51345682  0.25172412  1
  O  O282  1  0.86536423  0.51091009  0.75715958  1
  O  O283  1  0.12121067  0.36277695  0.37958076  1
  O  O284  1  0.12959371  0.36261955  0.87997865  1
  O  O285  1  0.11747105  0.87863748  0.36318777  1
  O  O286  1  0.12145493  0.86983061  0.86837973  1
  O  O287  1  0.61480918  0.37147180  0.36417472  1
  O  O288  1  0.62299793  0.36375611  0.86618227  1
  O  O289  1  0.62262258  0.87025914  0.36861073  1
  O  O290  1  0.62674626  0.86052363  0.87345806  1
  O  O291  1  0.36322957  0.14453825  0.14523741  1
  O  O292  1  0.37949296  0.13766163  0.62482938  1
  O  O293  1  0.38002948  0.62916515  0.12975539  1
  O  O294  1  0.37944352  0.63082325  0.62861292  1
  O  O295  1  0.88152876  0.13332095  0.13191430  1
  O  O296  1  0.87506964  0.12822033  0.64049682  1
  O  O297  1  0.88183550  0.63124522  0.13330613  1
  O  O298  1  0.88344115  0.62156624  0.63686770  1
  O  O299  1  0.25906391  0.26170598  0.12669638  1
  O  O300  1  0.26096129  0.26536345  0.62801040  1
  O  O301  1  0.26354542  0.75027381  0.12070842  1
  O  O302  1  0.25269366  0.76117485  0.61846231  1
  O  O303  1  0.75921858  0.24753893  0.11580477  1
  O  O304  1  0.75083684  0.25756358  0.61950633  1
  O  O305  1  0.75504487  0.75472441  0.11921907  1
  O  O306  1  0.74184096  0.75004298  0.61416849  1
  O  O307  1  0.23887925  0.24497657  0.37359904  1
  O  O308  1  0.23338501  0.24415767  0.87316616  1
  O  O309  1  0.25237569  0.74874884  0.38806623  1
  O  O310  1  0.24163746  0.74294063  0.87907513  1
  O  O311  1  0.74966185  0.24317526  0.38273612  1
  O  O312  1  0.74081369  0.24110314  0.88204119  1
  O  O313  1  0.73791839  0.75115233  0.38339285  1
  O  O314  1  0.74208240  0.74391327  0.88301109  1
  O  O315  1  0.00723599  0.11101500  0.00626699  1
  O  O316  1  0.00791498  0.11863360  0.50060136  1
  O  O317  1  0.00274973  0.61729348  0.00557456  1
  O  O318  1  0.00246162  0.62339859  0.50679867  1
  O  O319  1  0.45918892  0.10333292  0.01808966  1
  O  O320  1  0.51348783  0.12637870  0.49650871  1
  O  O321  1  0.49700881  0.61505278  0.01130986  1
  O  O322  1  0.49273948  0.62190000  0.51134620  1
  O  O323  1  0.49565468  0.38257976  0.48975443  1
  O  O324  1  0.50022841  0.38582004  0.99502674  1
  O  O325  1  0.48853645  0.87543493  0.49369484  1
  O  O326  1  0.49133492  0.87707862  1.00455611  1
  O  O327  1  1.00372005  0.38524091  0.48782954  1
  O  O328  1  0.99918916  0.38641776  1.00374919  1
  O  O329  1  0.99642141  0.87985648  0.49404433  1
  O  O330  1  1.00793479  0.88765017  0.99539615  1
  O  O331  1  0.49397728  0.48979467  0.37670478  1
  O  O332  1  0.49175191  0.50184166  0.88162339  1
  O  O333  1  0.50761817  0.98548924  0.37902453  1
  O  O334  1  0.48553018  1.00154326  0.87667134  1
  O  O335  1  0.99889480  0.48923715  0.38237947  1
  O  O336  1  0.98708884  0.50874017  0.88451221  1
  O  O337  1  0.99776735  0.99160745  0.38599782  1
  O  O338  1  1.00152092  0.99250982  0.89161152  1
  O  O339  1  0.01351017  0.00074433  0.11760423  1
  O  O340  1  0.00374163  0.00349054  0.61332128  1
  O  O341  1  -0.00617175  0.51083453  0.11684967  1
  O  O342  1  0.00379764  0.50974731  0.61646716  1
  O  O343  1  0.52118398  -0.00816652  0.12693769  1
  O  O344  1  0.50909542  0.00474698  0.61901816  1
  O  O345  1  0.50489809  0.50443238  0.11648426  1
  O  O346  1  0.50415039  0.50634342  0.61582481  1
  O  O347  1  0.24757583  0.37542016  0.23589835  1
  O  O348  1  0.24497253  0.38489222  0.74033656  1
  O  O349  1  0.24323147  0.87358499  0.24590239  1
  O  O350  1  0.24051000  0.87388654  0.74277140  1
  O  O351  1  0.73750052  0.36751508  0.24801788  1
  O  O352  1  0.73852430  0.38032760  0.74359605  1
  O  O353  1  0.74467792  0.87473845  0.24411792  1
  O  O354  1  0.74894679  0.88915520  0.75313374  1
  O  O355  1  0.26074310  0.12327298  0.26022948  1
  O  O356  1  0.26983398  0.12215022  0.73727283  1
  O  O357  1  0.26950354  0.63787096  0.25547393  1
  O  O358  1  0.25395675  0.62147435  0.75271486  1
  O  O359  1  0.76522141  0.12556006  0.25687097  1
  O  O360  1  0.75833311  0.11735429  0.75805736  1
  O  O361  1  0.76464066  0.63222167  0.24715413  1
  O  O362  1  0.75368354  0.61981183  0.75681449  1
  O  O363  1  0.36605263  0.13144845  0.36486694  1
  O  O364  1  0.37278433  0.12009337  0.86370960  1
  O  O365  1  0.37846876  0.61732605  0.36883714  1
  O  O366  1  0.36751218  0.61718112  0.86689537  1
  O  O367  1  0.87512090  0.12015960  0.36869541  1
  O  O368  1  0.86482323  0.12654948  0.86369735  1
  O  O369  1  0.87798710  0.62277559  0.35999376  1
  O  O370  1  0.86216173  0.61692004  0.87006265  1
  O  O371  1  0.13493828  0.37197714  0.12079551  1
  O  O372  1  0.13347530  0.38402195  0.62010545  1
  O  O373  1  0.12936496  0.87871178  0.13571548  1
  O  O374  1  0.12897922  0.87579095  0.63925568  1
  O  O375  1  0.62754239  0.38222956  0.12986781  1
  O  O376  1  0.63103588  0.38127521  0.63032470  1
  O  O377  1  0.63815629  0.87655082  0.13305446  1
  O  O378  1  0.62164823  0.88780129  0.62539578  1
  O  O379  1  0.12274340  0.24149821  0.26641712  1
  O  O380  1  0.12412204  0.25385714  0.76241695  1
  O  O381  1  0.10917930  0.75509881  0.24518538  1
  O  O382  1  0.12127278  0.75649762  0.76175272  1
  O  O383  1  0.61616619  0.25528431  0.24829610  1
  O  O384  1  0.62983366  0.25701853  0.75890448  1
  O  O385  1  0.62491403  0.76055539  0.25658534  1
  O  O386  1  0.61548694  0.75362091  0.75780031  1
  O  O387  1  0.38484774  0.24381959  0.24936339  1
  O  O388  1  0.37319162  0.24189041  0.74457197  1
  O  O389  1  0.38240379  0.74556498  0.24103496  1
  O  O390  1  0.37957412  0.74452132  0.74418074  1
  O  O391  1  0.88259321  0.24217729  0.24215260  1
  O  O392  1  0.87516220  0.23870756  0.75137475  1
  O  O393  1  0.88292130  0.74415876  0.24234903  1
  O  O394  1  0.87275653  0.73727923  0.75694176  1
  O  O395  1  0.37929189  0.49406666  0.48713805  1
  O  O396  1  0.38360101  0.50671949  0.98740285  1
  O  O397  1  0.37314947  0.98869815  0.50429173  1
  O  O398  1  0.36494206  0.97882953  0.99078084  1
  O  O399  1  0.88670746  0.50702801  0.49527164  1
  O  O400  1  0.88224963  0.49725857  0.99181783  1
  O  O401  1  0.88155833  0.99442818  0.49741439  1
  O  O402  1  0.89199484  1.00038495  1.01232095  1
  O  O403  1  0.12371865  0.00742340  0.00779500  1
  O  O404  1  0.11718779  0.01122790  0.50145869  1
  O  O405  1  0.11573684  0.51134286  -0.00984226  1
  O  O406  1  0.11532696  0.51057176  0.50511615  1
  O  O407  1  0.62797197  -0.00461519  0.01350443  1
  O  O408  1  0.62772628  0.00830748  0.50808442  1
  O  O409  1  0.61540339  0.49716090  0.00757370  1
  O  O410  1  0.62324253  0.50994815  0.49854366  1
  O  O411  1  0.37216843  0.36193157  0.13012520  1
  O  O412  1  0.37003766  0.37313446  0.61663274  1
  O  O413  1  0.37305294  0.86578960  0.11932957  1
  O  O414  1  0.36634088  0.87050146  0.61849399  1
  O  O415  1  0.87569185  0.36150568  0.12645670  1
  O  O416  1  0.85933780  0.37812253  0.63085843  1
  O  O417  1  0.86425432  0.86681103  0.13261866  1
  O  O418  1  0.88414459  0.87597922  0.61462110  1
  O  O419  1  0.13252094  0.13419698  0.38174808  1
  O  O420  1  0.13536929  0.11760457  0.88841245  1
  O  O421  1  0.12084986  0.62806070  0.39119696  1
  O  O422  1  0.12620635  0.63334813  0.88040072  1
  O  O423  1  0.63423608  0.12416654  0.38081526  1
  O  O424  1  0.63386573  0.13050806  0.86758774  1
  O  O425  1  0.61843760  0.63222738  0.37046533  1
  O  O426  1  0.63632157  0.63322773  0.86858528  1
