# generated using pymatgen
data_V85Zn86O256
_symmetry_space_group_name_H-M   'P 1'
_cell_length_a   16.94088929
_cell_length_b   16.93080730
_cell_length_c   16.94680224
_cell_angle_alpha   89.98699029
_cell_angle_beta   89.96911606
_cell_angle_gamma   89.93169012
_symmetry_Int_Tables_number   1
_chemical_formula_structural   V85Zn86O256
_chemical_formula_sum   'V85 Zn86 O256'
_cell_volume   4860.72722323
_cell_formula_units_Z   1
loop_
 _symmetry_equiv_pos_site_id
 _symmetry_equiv_pos_as_xyz
  1  'x, y, z'
loop_
 _atom_site_type_symbol
 _atom_site_label
 _atom_site_symmetry_multiplicity
 _atom_site_fract_x
 _atom_site_fract_y
 _atom_site_fract_z
 _atom_site_occupancy
  V  V0  1  0.75062429  0.49792934  0.74991921  1
  V  V1  1  0.25662735  0.73489846  0.49495183  1
  V  V2  1  -0.00146885  -0.00207991  0.50026796  1
  V  V3  1  0.49009037  0.88131126  0.37058284  1
  V  V4  1  0.13460739  0.49764340  0.12068214  1
  V  V5  1  0.00963086  0.75016786  0.25130931  1
  V  V6  1  0.50039488  0.62879006  0.13098430  1
  V  V7  1  0.87504869  0.88332145  -0.00707244  1
  V  V8  1  -0.00408492  0.38279909  0.37616485  1
  V  V9  1  0.37944422  0.75771282  0.12805725  1
  V  V10  1  0.61616344  0.75171677  0.36616165  1
  V  V11  1  0.25302039  0.00076852  0.26101898  1
  V  V12  1  0.38205473  0.36855974  -0.00458031  1
  V  V13  1  -0.00435630  0.49422074  0.00117013  1
  V  V14  1  0.00342634  0.62546352  0.12217295  1
  V  V15  1  -0.00745165  0.37321007  0.87543736  1
  V  V16  1  0.75089527  0.88610425  0.12677922  1
  V  V17  1  0.37821416  0.12149603  0.25664353  1
  V  V18  1  0.87680419  0.62675211  0.25269980  1
  V  V19  1  0.12484192  0.75035659  0.87458072  1
  V  V20  1  0.12365179  0.12881511  0.49792683  1
  V  V21  1  0.61984976  0.62458133  0.49939970  1
  V  V22  1  0.37332298  0.13675351  0.74544407  1
  V  V23  1  0.00125480  0.62570714  0.62540045  1
  V  V24  1  0.87097403  0.24865124  0.61819508  1
  V  V25  1  0.37972230  0.48553822  0.37391233  1
  V  V26  1  0.62144189  -0.00224902  0.62799845  1
  V  V27  1  0.87368726  -0.00028406  0.37595159  1
  V  V28  1  0.74975865  0.75318566  -0.00297822  1
  V  V29  1  0.51151105  0.13132121  0.13202570  1
  V  V30  1  0.25384721  0.50305651  0.25104724  1
  V  V31  1  0.75550023  0.50091382  0.25020918  1
  V  V32  1  0.49949293  0.74979166  0.75373134  1
  V  V33  1  0.12803673  0.11485058  0.00804091  1
  V  V34  1  0.00707171  0.87114143  0.37583460  1
  V  V35  1  0.62149306  0.49664679  0.62732701  1
  V  V36  1  0.62656129  0.49258793  0.12485025  1
  V  V37  1  0.00522303  0.11791899  0.13075728  1
  V  V38  1  0.87016841  0.37988448  0.49524537  1
  V  V39  1  0.74637567  0.62810718  0.87517521  1
  V  V40  1  -0.00036251  0.00029505  -0.00333225  1
  V  V41  1  0.74522552  0.74931747  0.49921327  1
  V  V42  1  0.50277120  0.13955364  0.62879026  1
  V  V43  1  0.25078559  0.88509494  0.12152312  1
  V  V44  1  0.36835302  0.89873391  0.50751823  1
  V  V45  1  0.62094526  0.87106207  0.76624471  1
  V  V46  1  0.12493257  0.50141215  0.62328475  1
  V  V47  1  0.62280918  0.63100484  -0.00041370  1
  V  V48  1  -0.00816564  0.12269072  0.63040428  1
  V  V49  1  0.87326013  0.87231318  0.49857519  1
  V  V50  1  0.87441468  0.12688316  0.24978378  1
  V  V51  1  0.11940935  0.25021144  0.88058766  1
  V  V52  1  0.87266805  0.74807439  0.62556604  1
  V  V53  1  0.12614126  -0.00494675  0.62317328  1
  V  V54  1  0.37436438  0.62912389  0.25589919  1
  V  V55  1  0.24776898  0.12364027  0.87489209  1
  V  V56  1  0.12617306  0.88130123  0.24562308  1
  V  V57  1  0.76497123  0.36946542  0.12042855  1
  V  V58  1  0.25323397  -0.00057283  0.74062358  1
  V  V59  1  0.13284981  0.35778743  0.73218400  1
  V  V60  1  0.25686003  0.75557960  -0.00002814  1
  V  V61  1  0.75190534  0.13207090  0.38001031  1
  V  V62  1  0.62384705  0.12638203  -0.02309052  1
  V  V63  1  0.63253102  0.12860662  0.50347752  1
  V  V64  1  0.24692196  0.25704457  0.00836833  1
  V  V65  1  0.77142314  0.12572293  0.86891190  1
  V  V66  1  0.37331081  0.25352513  0.12989816  1
  V  V67  1  0.50076204  0.49597791  -0.00614835  1
  V  V68  1  0.87762056  0.75273069  0.12379010  1
  V  V69  1  0.61982334  0.36810120  0.76798542  1
  V  V70  1  0.24886907  0.49255866  0.74973830  1
  V  V71  1  -0.00438762  0.25258246  0.24518338  1
  V  V72  1  0.12970774  0.37459316  0.24400999  1
  V  V73  1  0.25215924  0.62292921  0.87544307  1
  V  V74  1  0.74460448  0.87325289  0.62488628  1
  V  V75  1  0.75975080  -0.00409176  0.75709760  1
  V  V76  1  0.75316779  0.62346742  0.37443518  1
  V  V77  1  0.62180126  0.26014373  0.38013812  1
  V  V78  1  0.12922732  0.87335274  0.74693941  1
  V  V79  1  0.49782500  0.48421044  0.49553673  1
  V  V80  1  0.12576527  0.63045562  0.48191788  1
  V  V81  1  0.87478681  0.62376255  0.75098571  1
  V  V82  1  0.12891316  0.25185943  0.37624228  1
  V  V83  1  -0.01121304  0.24284125  0.75109965  1
  V  V84  1  0.37303105  0.62237307  0.73919583  1
  Zn  Zn85  1  0.87434157  0.49708278  0.87883200  1
  Zn  Zn86  1  0.75743147  0.25763269  -0.00631311  1
  Zn  Zn87  1  0.48037903  0.86685721  0.89086143  1
  Zn  Zn88  1  0.34790589  0.30816341  0.54763557  1
  Zn  Zn89  1  -0.00306135  0.50366338  0.49413343  1
  Zn  Zn90  1  0.50083940  0.00399738  0.49862806  1
  Zn  Zn91  1  0.12669705  0.62440024  -0.00115564  1
  Zn  Zn92  1  -0.00123450  0.87933477  0.87209503  1
  Zn  Zn93  1  0.62360819  0.37767131  0.25387438  1
  Zn  Zn94  1  0.62231831  0.00091496  0.12674753  1
  Zn  Zn95  1  0.49582033  0.62587539  0.62227429  1
  Zn  Zn96  1  0.74738382  -0.00082006  0.25310730  1
  Zn  Zn97  1  0.74872213  0.36739356  0.62485577  1
  Zn  Zn98  1  0.61941910  0.87540470  0.24839252  1
  Zn  Zn99  1  0.36868155  0.75969109  0.62466808  1
  Zn  Zn100  1  0.49587524  0.26493220  0.25754665  1
  Zn  Zn101  1  0.49746966  0.25138522  0.77440984  1
  Zn  Zn102  1  0.00092739  0.74966539  0.75210711  1
  Zn  Zn103  1  0.49353575  -0.00670342  0.00242151  1
  Zn  Zn104  1  0.37313627  -0.00800527  0.88012753  1
  Zn  Zn105  1  0.37782250  0.49480926  0.87395788  1
  Zn  Zn106  1  0.25921843  0.13092951  0.38156776  1
  Zn  Zn107  1  0.18897174  0.18573812  0.19063680  1
  Zn  Zn108  1  0.17692244  0.18191675  0.69018940  1
  Zn  Zn109  1  0.19062991  0.68869855  0.18631795  1
  Zn  Zn110  1  0.19253594  0.68763565  0.68089923  1
  Zn  Zn111  1  0.68992390  0.19312748  0.19526147  1
  Zn  Zn112  1  0.68997718  0.18595862  0.69513147  1
  Zn  Zn113  1  0.68816509  0.69076345  0.18444658  1
  Zn  Zn114  1  0.68229453  0.68715700  0.68791360  1
  Zn  Zn115  1  0.30936728  0.31486927  0.31029467  1
  Zn  Zn116  1  0.31243268  0.30852552  0.81700463  1
  Zn  Zn117  1  0.31189284  0.81154321  0.31688298  1
  Zn  Zn118  1  0.31176663  0.81239515  0.80820966  1
  Zn  Zn119  1  0.80963549  0.31278581  0.31224843  1
  Zn  Zn120  1  0.81094479  0.31235756  0.80981140  1
  Zn  Zn121  1  0.81397782  0.80997114  0.31226928  1
  Zn  Zn122  1  0.81146983  0.81248289  0.81373020  1
  Zn  Zn123  1  0.18789275  0.44472320  0.42952096  1
  Zn  Zn124  1  0.18444058  0.43348234  0.93440027  1
  Zn  Zn125  1  0.18857226  0.93450571  0.43887693  1
  Zn  Zn126  1  0.19206062  0.93583641  0.93375271  1
  Zn  Zn127  1  0.69370895  0.44164925  0.44099033  1
  Zn  Zn128  1  0.69297321  0.44207953  0.94227630  1
  Zn  Zn129  1  0.68336559  0.93942328  0.43627714  1
  Zn  Zn130  1  0.68209553  0.94399784  0.94199329  1
  Zn  Zn131  1  0.31712030  0.06574451  0.06779150  1
  Zn  Zn132  1  0.32667894  0.10502302  0.54655923  1
  Zn  Zn133  1  0.31594368  0.56380742  0.06177851  1
  Zn  Zn134  1  0.30872326  0.46723104  0.55957275  1
  Zn  Zn135  1  0.82629190  0.09178845  0.04863931  1
  Zn  Zn136  1  0.80970326  0.05919447  0.56558684  1
  Zn  Zn137  1  0.81507537  0.56328461  0.06416471  1
  Zn  Zn138  1  0.81109471  0.55927156  0.56323735  1
  Zn  Zn139  1  0.44173499  0.43485513  0.18183259  1
  Zn  Zn140  1  0.44068690  0.43420277  0.68866257  1
  Zn  Zn141  1  0.43747278  0.94109565  0.18723883  1
  Zn  Zn142  1  0.43791169  0.94160188  0.69152531  1
  Zn  Zn143  1  0.93923979  0.44129449  0.18897219  1
  Zn  Zn144  1  0.94175332  0.43295708  0.68521033  1
  Zn  Zn145  1  0.93594003  0.94090607  0.18495609  1
  Zn  Zn146  1  0.94006690  0.93111153  0.68655592  1
  Zn  Zn147  1  0.06485250  0.05962194  0.31408175  1
  Zn  Zn148  1  0.06128648  0.06212620  0.81339947  1
  Zn  Zn149  1  0.06278862  0.56013439  0.30675922  1
  Zn  Zn150  1  0.06505861  0.55947102  0.81071207  1
  Zn  Zn151  1  0.56665226  0.06111290  0.31220036  1
  Zn  Zn152  1  0.55313503  0.05282471  0.81028973  1
  Zn  Zn153  1  0.56183378  0.55935811  0.31136662  1
  Zn  Zn154  1  0.56316933  0.56554472  0.81272588  1
  Zn  Zn155  1  0.44526978  0.18730599  0.43855517  1
  Zn  Zn156  1  0.42941766  0.16352742  0.94629082  1
  Zn  Zn157  1  0.43806734  0.68633486  0.43555540  1
  Zn  Zn158  1  0.43500883  0.68716687  0.93682986  1
  Zn  Zn159  1  0.94245266  0.19346781  0.43779768  1
  Zn  Zn160  1  0.93437283  0.18868729  0.94410294  1
  Zn  Zn161  1  0.93824707  0.68813569  0.43695833  1
  Zn  Zn162  1  0.93765175  0.68607840  0.93791045  1
  Zn  Zn163  1  0.05723042  0.31059030  0.06529723  1
  Zn  Zn164  1  0.16642932  0.32105952  0.55707139  1
  Zn  Zn165  1  0.06720266  0.81467920  0.06166390  1
  Zn  Zn166  1  0.06598263  0.80835647  0.56235755  1
  Zn  Zn167  1  0.56198125  0.30179153  -0.05320852  1
  Zn  Zn168  1  0.56899523  0.31250950  0.56387703  1
  Zn  Zn169  1  0.56348279  0.81446069  0.06288467  1
  Zn  Zn170  1  0.55278180  0.81301368  0.56348073  1
  O  O171  1  0.11849033  0.12722158  0.11930979  1
  O  O172  1  0.11181814  0.11458023  0.61869889  1
  O  O173  1  0.12024965  0.61653284  0.12399843  1
  O  O174  1  0.11547863  0.61907513  0.62234672  1
  O  O175  1  0.61693682  0.12726910  0.13430031  1
  O  O176  1  0.62340206  0.12011248  0.62330827  1
  O  O177  1  0.61909262  0.62090030  0.11915411  1
  O  O178  1  0.62507105  0.61341569  0.61683570  1
  O  O179  1  0.37625244  0.38618735  0.37200099  1
  O  O180  1  0.37012941  0.37549504  0.89125586  1
  O  O181  1  0.38539427  0.87272438  0.38760116  1
  O  O182  1  0.36418439  0.87801868  0.87857453  1
  O  O183  1  0.87890675  0.36951743  0.38642022  1
  O  O184  1  0.88805074  0.37596905  0.87012542  1
  O  O185  1  0.88251991  0.87906902  0.38012795  1
  O  O186  1  0.87894084  0.86943286  0.88898204  1
  O  O187  1  0.24469188  0.00279936  0.36368000  1
  O  O188  1  0.24361539  0.01045327  0.86212120  1
  O  O189  1  0.26619658  0.50126830  0.36358748  1
  O  O190  1  0.24806662  0.50840422  0.87058033  1
  O  O191  1  0.75678070  0.01072261  0.37727003  1
  O  O192  1  0.74825151  0.00032752  0.86098991  1
  O  O193  1  0.74403812  0.51480363  0.36622977  1
  O  O194  1  0.75286810  0.50749942  0.86612626  1
  O  O195  1  0.23940208  0.50225983  0.12673103  1
  O  O196  1  0.23585432  0.50723884  0.63746272  1
  O  O197  1  0.25690490  0.98915985  0.13151206  1
  O  O198  1  0.23751993  1.00988378  0.63679245  1
  O  O199  1  0.74636095  0.49830980  0.13120109  1
  O  O200  1  0.74267734  0.50052555  0.63831566  1
  O  O201  1  0.75461574  0.98947253  0.12308763  1
  O  O202  1  0.74005986  0.99519343  0.63575224  1
  O  O203  1  0.00423836  0.36868191  0.25326295  1
  O  O204  1  0.00821357  0.36284632  0.75561954  1
  O  O205  1  0.00678062  0.87093050  0.25351338  1
  O  O206  1  0.01224878  0.87126057  0.75281963  1
  O  O207  1  0.51052504  0.37765727  0.24648093  1
  O  O208  1  0.51585788  0.37441282  0.75389132  1
  O  O209  1  0.49645140  0.87695508  0.26607326  1
  O  O210  1  0.50750145  0.86740949  0.74996987  1
  O  O211  1  0.49545249  0.12829507  0.24593895  1
  O  O212  1  0.49136614  0.12933858  0.74597863  1
  O  O213  1  0.49386037  0.61922442  0.23685615  1
  O  O214  1  0.49091457  0.62989840  0.74967967  1
  O  O215  1  0.99772703  0.13015850  0.24731881  1
  O  O216  1  0.99889164  0.12682179  0.74136851  1
  O  O217  1  0.99808786  0.63330096  0.24426313  1
  O  O218  1  0.99405626  0.62650201  0.74357565  1
  O  O219  1  0.36491852  0.25104281  0.00934468  1
  O  O220  1  0.35562786  0.21174193  0.50079603  1
  O  O221  1  0.36251818  0.74274030  0.01023363  1
  O  O222  1  0.36430923  0.74201774  0.50386531  1
  O  O223  1  0.85375039  0.20318342  0.01685506  1
  O  O224  1  0.88333681  0.26317313  0.50832285  1
  O  O225  1  0.86967718  0.75689423  0.00545026  1
  O  O226  1  0.86623285  0.75333962  0.50508179  1
  O  O227  1  0.11715379  0.24168970  0.48927553  1
  O  O228  1  0.12799023  0.24217231  0.99778855  1
  O  O229  1  0.13018763  0.73575082  0.50196809  1
  O  O230  1  0.13649480  0.74883163  0.99202239  1
  O  O231  1  0.62791101  0.24272909  0.49217160  1
  O  O232  1  0.64095020  0.22943700  0.99793146  1
  O  O233  1  0.62707510  0.74151831  0.49621485  1
  O  O234  1  0.63482289  0.73794046  1.00677298  1
  O  O235  1  0.49011102  0.23573742  0.13175720  1
  O  O236  1  0.50695530  0.24135133  0.63076995  1
  O  O237  1  0.49004856  0.74158573  0.12275271  1
  O  O238  1  0.49286210  0.74502707  0.63574025  1
  O  O239  1  1.00284074  0.23829119  0.13811695  1
  O  O240  1  0.98979134  0.23715037  0.63724371  1
  O  O241  1  0.99805679  0.74640299  0.13022433  1
  O  O242  1  0.99382852  0.73973188  0.62604904  1
  O  O243  1  0.00899367  0.25977316  0.36362309  1
  O  O244  1  0.00001445  0.25274072  0.87569942  1
  O  O245  1  -0.00603736  0.75987187  0.36380039  1
  O  O246  1  0.01486604  0.74881535  0.87575474  1
  O  O247  1  0.51762923  0.24944473  0.37684367  1
  O  O248  1  0.48989210  0.24125405  0.88696683  1
  O  O249  1  0.50762234  0.76341310  0.38248779  1
  O  O250  1  0.49255499  0.74980361  0.86002600  1
  O  O251  1  0.22683719  0.11237308  0.49513937  1
  O  O252  1  0.24186545  0.13280955  0.99362111  1
  O  O253  1  0.23473246  0.63088751  0.49410567  1
  O  O254  1  0.24840076  0.63135461  0.99198748  1
  O  O255  1  0.74073277  0.12132187  0.49637144  1
  O  O256  1  0.73735486  0.10504253  0.97323195  1
  O  O257  1  0.73979304  0.62550058  0.49282858  1
  O  O258  1  0.74580575  0.63151517  0.99502457  1
  O  O259  1  0.25227612  0.36098482  -0.00283802  1
  O  O260  1  0.24801752  0.38091539  0.50338989  1
  O  O261  1  0.24491261  0.86832864  0.01014850  1
  O  O262  1  0.26770892  0.87598638  0.49814138  1
  O  O263  1  0.75354842  0.37544487  0.01354824  1
  O  O264  1  0.76484919  0.37821318  0.50500054  1
  O  O265  1  0.75587157  0.87104036  0.00420370  1
  O  O266  1  0.75260735  0.86979247  0.50470453  1
  O  O267  1  0.13346130  0.49495851  0.24218215  1
  O  O268  1  0.13086512  0.49092766  0.74195576  1
  O  O269  1  0.13153359  0.98860079  0.25069114  1
  O  O270  1  0.12767480  0.99376142  0.74238286  1
  O  O271  1  0.63857657  0.50593881  0.24137688  1
  O  O272  1  0.62946879  0.49268005  0.74634944  1
  O  O273  1  0.63069926  0.99409164  0.24582585  1
  O  O274  1  0.63126404  0.98874432  0.74436961  1
  O  O275  1  0.36528440  0.00903828  0.24833575  1
  O  O276  1  0.36465520  0.01023027  0.75186064  1
  O  O277  1  0.37071451  0.50343706  0.25383327  1
  O  O278  1  0.36802208  0.50457763  0.75524957  1
  O  O279  1  0.87524883  0.00608996  0.26190821  1
  O  O280  1  0.85810756  -0.01169392  0.74412932  1
  O  O281  1  0.86393084  0.51057908  0.24576100  1
  O  O282  1  0.86642788  0.50407028  0.75006655  1
  O  O283  1  0.11667678  0.37241816  0.36421947  1
  O  O284  1  0.11732197  0.36071706  0.86776512  1
  O  O285  1  0.11230692  0.87878072  0.36834598  1
  O  O286  1  0.12488926  0.86652029  0.86638334  1
  O  O287  1  0.63716713  0.36199580  0.38009496  1
  O  O288  1  0.62783915  0.37477785  0.87219468  1
  O  O289  1  0.61490854  0.86628416  0.37681623  1
  O  O290  1  0.62744565  0.87368800  0.86655595  1
  O  O291  1  0.38145476  0.13536854  0.13843930  1
  O  O292  1  0.39119333  0.11677587  0.63679357  1
  O  O293  1  0.38285430  0.63166164  0.13195384  1
  O  O294  1  0.37328321  0.61996584  0.63818272  1
  O  O295  1  0.88595694  0.11468360  0.14599302  1
  O  O296  1  0.88495852  0.12984083  0.61531332  1
  O  O297  1  0.88330252  0.63281190  0.13076496  1
  O  O298  1  0.87941287  0.62945875  0.62934554  1
  O  O299  1  0.25784383  0.24423219  0.11831267  1
  O  O300  1  0.19649825  0.28805714  0.66167771  1
  O  O301  1  0.25624257  0.75872813  0.11740934  1
  O  O302  1  0.24974734  0.75042312  0.60431919  1
  O  O303  1  0.74761871  0.26955203  0.13224251  1
  O  O304  1  0.76656220  0.24786150  0.63475603  1
  O  O305  1  0.75766338  0.75637434  0.11437436  1
  O  O306  1  0.75180445  0.75287922  0.61860444  1
  O  O307  1  0.23302798  0.24911345  0.36659484  1
  O  O308  1  0.23711526  0.24288172  0.88237448  1
  O  O309  1  0.24755283  0.76049254  0.39652374  1
  O  O310  1  0.24181126  0.74360364  0.88079380  1
  O  O311  1  0.74406152  0.23734358  0.37468669  1
  O  O312  1  0.75901413  0.23021442  0.87138294  1
  O  O313  1  0.74153148  0.74247149  0.38096651  1
  O  O314  1  0.75366311  0.74376541  0.88871971  1
  O  O315  1  0.00908027  0.11900561  0.01033401  1
  O  O316  1  0.00650435  0.11803878  0.50568860  1
  O  O317  1  0.00537054  0.61754505  0.00505565  1
  O  O318  1  0.00833169  0.62530762  0.50514944  1
  O  O319  1  0.52004843  0.13026626  0.01568107  1
  O  O320  1  0.51476677  0.12282863  0.51082656  1
  O  O321  1  0.50721677  0.62265132  0.00719547  1
  O  O322  1  0.51168052  0.61851227  0.49897324  1
  O  O323  1  0.50362709  0.38440705  0.50204769  1
  O  O324  1  0.49496930  0.38291126  1.00149618  1
  O  O325  1  0.48595608  0.88041275  0.49424810  1
  O  O326  1  0.49821296  0.87859285  1.00356237  1
  O  O327  1  0.98898988  0.38137164  0.48559942  1
  O  O328  1  1.00555083  0.38106079  0.98990698  1
  O  O329  1  0.99570023  0.87512114  0.49225983  1
  O  O330  1  0.99386467  0.88349348  1.00196687  1
  O  O331  1  0.49010853  0.50128267  0.38024959  1
  O  O332  1  0.49854145  0.50938010  0.89031968  1
  O  O333  1  0.50731401  0.98488777  0.38054251  1
  O  O334  1  0.49424577  0.98775730  0.87787310  1
  O  O335  1  0.99946803  0.48727271  0.36862492  1
  O  O336  1  1.00214122  0.49043112  0.88191134  1
  O  O337  1  0.99364223  0.99171644  0.38091717  1
  O  O338  1  1.00653626  0.99865393  0.89134531  1
  O  O339  1  0.00198976  0.01084562  0.11812641  1
  O  O340  1  0.00332632  0.00383315  0.62019295  1
  O  O341  1  0.01037815  0.50405816  0.11931228  1
  O  O342  1  0.00102193  0.51517124  0.62424690  1
  O  O343  1  0.49772861  0.01875582  0.12600954  1
  O  O344  1  0.51367542  0.00821936  0.62902902  1
  O  O345  1  0.50876303  0.50897079  0.11377785  1
  O  O346  1  0.50806611  0.50368448  0.61722707  1
  O  O347  1  0.24049511  0.38809528  0.25010347  1
  O  O348  1  0.24627014  0.38922309  0.76565271  1
  O  O349  1  0.24387713  0.88121737  0.24677160  1
  O  O350  1  0.23731534  0.88392341  0.74778173  1
  O  O351  1  0.74816058  0.38631545  0.24408287  1
  O  O352  1  0.73897789  0.38301137  0.75098337  1
  O  O353  1  0.75401617  0.87502847  0.23932826  1
  O  O354  1  0.74153793  0.87917677  0.74587945  1
  O  O355  1  0.25704016  0.11611024  0.25277258  1
  O  O356  1  0.25183483  0.12082079  0.75379402  1
  O  O357  1  0.25908426  0.61278028  0.24186275  1
  O  O358  1  0.25457596  0.61713545  0.75641983  1
  O  O359  1  0.75993149  0.12339173  0.25973484  1
  O  O360  1  0.74652533  0.10900959  0.76135415  1
  O  O361  1  0.75538193  0.62368290  0.25613819  1
  O  O362  1  0.75128997  0.61987780  0.75786817  1
  O  O363  1  0.37712625  0.12938984  0.36114879  1
  O  O364  1  0.35460498  0.12994906  0.86121253  1
  O  O365  1  0.38292248  0.61987012  0.35813747  1
  O  O366  1  0.36210315  0.62328544  0.86855074  1
  O  O367  1  0.87136936  0.12122190  0.37272343  1
  O  O368  1  0.86898280  0.11579117  0.87043240  1
  O  O369  1  0.86321499  0.63245179  0.36886126  1
  O  O370  1  0.86442750  0.62343560  0.86975492  1
  O  O371  1  0.11826571  0.38215814  0.13640602  1
  O  O372  1  0.10222143  0.39856317  0.62105137  1
  O  O373  1  0.13676760  0.87122910  0.13518971  1
  O  O374  1  0.11860843  0.88682624  0.62971012  1
  O  O375  1  0.63727518  0.39168444  0.12513224  1
  O  O376  1  0.62947245  0.38573335  0.63174787  1
  O  O377  1  0.63768434  0.87413335  0.12875622  1
  O  O378  1  0.62851043  0.88148205  0.62746405  1
  O  O379  1  0.11877067  0.25870459  0.25300224  1
  O  O380  1  0.10543205  0.24169058  0.76803361  1
  O  O381  1  0.11554611  0.75857771  0.24631507  1
  O  O382  1  0.12826532  0.75676137  0.75513389  1
  O  O383  1  0.62576632  0.25240956  0.26989397  1
  O  O384  1  0.62615509  0.26655079  0.75110589  1
  O  O385  1  0.62838298  0.75154019  0.26321123  1
  O  O386  1  0.61476781  0.75938896  0.74546608  1
  O  O387  1  0.37486243  0.24579024  0.24516738  1
  O  O388  1  0.37379139  0.24147941  0.74725031  1
  O  O389  1  0.36555415  0.74108337  0.24089561  1
  O  O390  1  0.37630314  0.74093339  0.74377114  1
  O  O391  1  0.88477535  0.24068689  0.25852923  1
  O  O392  1  0.88428385  0.25426162  0.74260433  1
  O  O393  1  0.88699032  0.74700312  0.24298347  1
  O  O394  1  0.87543139  0.74355633  0.74385100  1
  O  O395  1  0.38390786  0.50778693  0.48105059  1
  O  O396  1  0.38406914  0.48904877  1.00279952  1
  O  O397  1  0.37510652  1.00073680  0.50325856  1
  O  O398  1  0.38818206  1.04716872  0.98443119  1
  O  O399  1  0.87772551  0.48613725  0.50425530  1
  O  O400  1  0.89125583  0.50512757  0.99921350  1
  O  O401  1  0.87929260  0.99203272  0.49599208  1
  O  O402  1  0.88572953  0.99399882  1.00647785  1
  O  O403  1  0.12356664  0.01045299  -0.00098446  1
  O  O404  1  0.11623749  0.00088240  0.50662882  1
  O  O405  1  0.11773801  0.49887317  0.00629612  1
  O  O406  1  0.12257731  0.51570679  0.50332660  1
  O  O407  1  0.62004586  0.01488108  0.00727661  1
  O  O408  1  0.62587796  0.00789999  0.51168587  1
  O  O409  1  0.62190533  0.51159194  0.00653728  1
  O  O410  1  0.61979022  0.50479914  0.50666344  1
  O  O411  1  0.37847022  0.36066690  0.11433141  1
  O  O412  1  0.37015513  0.38832992  0.61657110  1
  O  O413  1  0.36714893  0.86455504  0.13268037  1
  O  O414  1  0.37942815  0.87962681  0.61017559  1
  O  O415  1  0.86379652  0.37993394  0.12875420  1
  O  O416  1  0.87645112  0.36683870  0.61411193  1
  O  O417  1  0.87094686  0.87043809  0.11550746  1
  O  O418  1  0.86744483  0.86698811  0.61836224  1
  O  O419  1  0.11895896  0.13536738  0.38189900  1
  O  O420  1  0.12943457  0.13193138  0.88373737  1
  O  O421  1  0.11727583  0.62571897  0.38355926  1
  O  O422  1  0.13591880  0.63155931  0.87285084  1
  O  O423  1  0.63316970  0.13038949  0.38508399  1
  O  O424  1  0.62113185  0.12231490  0.87691805  1
  O  O425  1  0.62855685  0.63254024  0.38089718  1
  O  O426  1  0.63789876  0.62221768  0.88372919  1
