# generated using pymatgen
data_V85Zn86O256
_symmetry_space_group_name_H-M   'P 1'
_cell_length_a   16.93309528
_cell_length_b   16.94052749
_cell_length_c   16.95172159
_cell_angle_alpha   90.04926693
_cell_angle_beta   90.02134551
_cell_angle_gamma   90.06060864
_symmetry_Int_Tables_number   1
_chemical_formula_structural   V85Zn86O256
_chemical_formula_sum   'V85 Zn86 O256'
_cell_volume   4862.69083417
_cell_formula_units_Z   1
loop_
 _symmetry_equiv_pos_site_id
 _symmetry_equiv_pos_as_xyz
  1  'x, y, z'
loop_
 _atom_site_type_symbol
 _atom_site_label
 _atom_site_symmetry_multiplicity
 _atom_site_fract_x
 _atom_site_fract_y
 _atom_site_fract_z
 _atom_site_occupancy
  V  V0  1  0.37406802  0.74926710  0.63239475  1
  V  V1  1  -0.00965371  0.50037536  0.51185725  1
  V  V2  1  0.11758420  -0.00146427  0.12028187  1
  V  V3  1  -0.00935850  0.37781263  0.37873310  1
  V  V4  1  0.88101764  0.63194150  0.25528994  1
  V  V5  1  0.13133498  0.00517583  0.62197968  1
  V  V6  1  0.60858063  0.62434641  0.00858298  1
  V  V7  1  0.37425034  0.25144831  0.12238051  1
  V  V8  1  0.38185965  0.62133935  0.24674176  1
  V  V9  1  0.49460415  0.49852754  0.49921685  1
  V  V10  1  0.12316683  0.62025475  -0.00063962  1
  V  V11  1  0.74338356  0.25331225  -0.00256502  1
  V  V12  1  0.12219508  0.87060763  0.24830801  1
  V  V13  1  0.24875006  0.12645883  0.87485017  1
  V  V14  1  0.75340074  0.25063381  0.50275401  1
  V  V15  1  0.00540622  0.87965041  0.87371856  1
  V  V16  1  0.11976967  0.87419367  0.74334939  1
  V  V17  1  0.62624792  0.74801618  0.37419095  1
  V  V18  1  0.12620024  0.24722495  0.38858070  1
  V  V19  1  0.87844651  0.13443524  0.74840737  1
  V  V20  1  0.12419642  0.37414111  0.25283604  1
  V  V21  1  0.62368167  0.62285972  0.50140138  1
  V  V22  1  0.37684916  0.12431721  0.74784619  1
  V  V23  1  0.51242476  0.12710377  0.62149307  1
  V  V24  1  0.15313858  0.49354283  0.62453735  1
  V  V25  1  0.74761733  0.75421360  0.51149180  1
  V  V26  1  0.88020366  0.00476351  0.87786047  1
  V  V27  1  0.75059612  0.61999366  0.88460460  1
  V  V28  1  0.49866786  0.12459126  0.12289509  1
  V  V29  1  0.62599839  0.37264592  0.76265238  1
  V  V30  1  0.25720845  0.62284196  0.37383705  1
  V  V31  1  0.37445384  -0.00091404  0.37453412  1
  V  V32  1  0.75027678  -0.01034953  0.74637705  1
  V  V33  1  0.25161295  0.75218255  0.50571894  1
  V  V34  1  0.74374689  0.13194386  0.87145599  1
  V  V35  1  0.36383705  0.37256087  0.50009678  1
  V  V36  1  0.11584902  0.49835674  0.12206863  1
  V  V37  1  0.50552714  0.87533141  0.86678050  1
  V  V38  1  0.50884327  0.00346535  0.49908451  1
  V  V39  1  0.36713797  0.24986031  0.61866927  1
  V  V40  1  0.25145102  0.25191659  -0.00175707  1
  V  V41  1  0.24450437  0.74669414  -0.00786928  1
  V  V42  1  0.75013171  0.00308078  0.25035356  1
  V  V43  1  0.87426453  0.00256827  0.37803267  1
  V  V44  1  0.49962805  -0.00021615  -0.00307948  1
  V  V45  1  0.88712152  0.37872911  0.00396009  1
  V  V46  1  0.00480678  0.00906364  0.50000252  1
  V  V47  1  0.24994224  0.87392996  0.12200589  1
  V  V48  1  0.49628435  0.37664056  0.37787746  1
  V  V49  1  0.24850096  -0.00243682  0.74794821  1
  V  V50  1  0.74547017  0.38020118  0.12699351  1
  V  V51  1  -0.00075114  0.24726963  0.24985219  1
  V  V52  1  0.87178652  0.87636086  0.51280132  1
  V  V53  1  0.37480952  0.87367341  -0.00430314  1
  V  V54  1  0.88223510  0.87925739  0.00236397  1
  V  V55  1  0.37316613  0.49174772  0.86319702  1
  V  V56  1  0.37308970  0.87511981  0.50403056  1
  V  V57  1  0.12087665  0.62141790  0.49886371  1
  V  V58  1  0.50246149  0.25007175  0.25066415  1
  V  V59  1  0.75369644  0.50089449  0.75414873  1
  V  V60  1  0.38073934  0.74357885  0.12173977  1
  V  V61  1  0.62300848  0.24216107  0.38439155  1
  V  V62  1  0.75146824  0.75147660  0.00575475  1
  V  V63  1  0.24897344  -0.00077336  0.24844563  1
  V  V64  1  0.12390374  0.74870241  0.37009682  1
  V  V65  1  -0.00128492  0.87186677  0.37354320  1
  V  V66  1  0.01131395  0.13472564  0.62714604  1
  V  V67  1  0.50485569  0.24916176  0.75358419  1
  V  V68  1  0.37216523  0.12376169  0.24919636  1
  V  V69  1  0.62414806  0.87460329  0.24823188  1
  V  V70  1  0.11516592  0.12206450  -0.00017999  1
  V  V71  1  0.10761785  0.25860756  0.87259179  1
  V  V72  1  0.25285087  0.37652505  0.12120704  1
  V  V73  1  0.24540598  0.12730320  0.38534634  1
  V  V74  1  0.62388179  0.49845569  0.62893894  1
  V  V75  1  0.62830171  0.75098153  0.86621980  1
  V  V76  1  0.07643816  0.69965527  0.83039817  1
  V  V77  1  0.25902337  0.62362058  0.85324029  1
  V  V78  1  0.62979533  -0.01291765  0.62639384  1
  V  V79  1  0.49928848  0.87368165  0.37284915  1
  V  V80  1  0.25360259  0.49917575  0.25260728  1
  V  V81  1  0.49754876  0.62189976  0.63818108  1
  V  V82  1  0.62601908  0.00123369  0.12086984  1
  V  V83  1  0.87992106  0.25970984  0.62462556  1
  V  V84  1  0.88750009  0.49859426  0.88307091  1
  Zn  Zn85  1  0.75011180  0.62096451  0.37663370  1
  Zn  Zn86  1  0.75317981  0.87726946  0.12412951  1
  Zn  Zn87  1  0.88683339  0.75572744  0.13325770  1
  Zn  Zn88  1  0.62250920  0.12877485  -0.00741116  1
  Zn  Zn89  1  0.47516617  0.48013862  0.01037467  1
  Zn  Zn90  1  0.89941445  0.62844780  0.75346687  1
  Zn  Zn91  1  0.50763080  0.75336789  0.74662401  1
  Zn  Zn92  1  0.50414467  0.74384134  0.24307282  1
  Zn  Zn93  1  0.60971034  0.50820116  0.13136154  1
  Zn  Zn94  1  0.62501946  0.37818316  0.25282890  1
  Zn  Zn95  1  0.74865214  0.50238897  0.25548234  1
  Zn  Zn96  1  0.86995970  0.49999881  0.37848846  1
  Zn  Zn97  1  0.75378644  0.37907466  0.62256544  1
  Zn  Zn98  1  0.12626384  0.36765677  0.74115262  1
  Zn  Zn99  1  0.90083297  0.74772352  0.63450527  1
  Zn  Zn100  1  0.00376655  0.63475757  0.13013396  1
  Zn  Zn101  1  0.87420077  0.24835160  0.12642315  1
  Zn  Zn102  1  0.74464052  0.12253350  0.38264167  1
  Zn  Zn103  1  -0.00534947  0.12207607  0.12417794  1
  Zn  Zn104  1  0.49379103  0.36902448  0.88050664  1
  Zn  Zn105  1  0.37581272  -0.00090027  0.87227994  1
  Zn  Zn106  1  0.87445132  0.12510434  0.24861135  1
  Zn  Zn107  1  0.18391220  0.18694896  0.19005593  1
  Zn  Zn108  1  0.19378903  0.20902813  0.69808649  1
  Zn  Zn109  1  0.19049475  0.68649467  0.18443445  1
  Zn  Zn110  1  0.07734765  0.68031179  0.66987894  1
  Zn  Zn111  1  0.68785921  0.18896531  0.18591927  1
  Zn  Zn112  1  0.68972913  0.18702718  0.68607238  1
  Zn  Zn113  1  0.69449587  0.68618440  0.18843044  1
  Zn  Zn114  1  0.75621042  0.69499997  0.69827513  1
  Zn  Zn115  1  0.31260105  0.31135900  0.31494953  1
  Zn  Zn116  1  0.30580223  0.31549819  0.80342187  1
  Zn  Zn117  1  0.31186063  0.80889697  0.31096018  1
  Zn  Zn118  1  0.30792475  0.81342402  0.81121779  1
  Zn  Zn119  1  0.81139438  0.31084835  0.31375146  1
  Zn  Zn120  1  0.81716129  0.31643570  0.81484958  1
  Zn  Zn121  1  0.81021655  0.81362653  0.31614371  1
  Zn  Zn122  1  0.81697391  0.81353870  0.82103454  1
  Zn  Zn123  1  0.18298274  0.43811367  0.43528884  1
  Zn  Zn124  1  0.19510192  0.44068336  0.93490837  1
  Zn  Zn125  1  0.18826252  0.93887200  0.43798281  1
  Zn  Zn126  1  0.18690321  0.93876011  0.93545879  1
  Zn  Zn127  1  0.68581795  0.43231511  0.43826116  1
  Zn  Zn128  1  0.68522334  0.44087575  0.94446409  1
  Zn  Zn129  1  0.68797578  0.93550798  0.43810466  1
  Zn  Zn130  1  0.69149649  0.93852751  0.93404021  1
  Zn  Zn131  1  0.30958343  0.06184407  0.05983805  1
  Zn  Zn132  1  0.31790821  0.06484438  0.56470882  1
  Zn  Zn133  1  0.31151710  0.56072811  0.05786723  1
  Zn  Zn134  1  0.31737274  0.56779929  0.55907650  1
  Zn  Zn135  1  0.81252827  0.06568546  0.06092595  1
  Zn  Zn136  1  0.81281806  0.06958782  0.56503612  1
  Zn  Zn137  1  0.81601131  0.56365956  0.07017562  1
  Zn  Zn138  1  0.81200859  0.56827521  0.56590791  1
  Zn  Zn139  1  0.43697869  0.43666014  0.18818728  1
  Zn  Zn140  1  0.43269526  0.43272920  0.68914122  1
  Zn  Zn141  1  0.43746288  0.93394275  0.18462985  1
  Zn  Zn142  1  0.43869180  0.93782132  0.68476300  1
  Zn  Zn143  1  0.93334356  0.44088111  0.19311009  1
  Zn  Zn144  1  0.94246313  0.43480700  0.69286634  1
  Zn  Zn145  1  0.93788430  0.93648727  0.19051705  1
  Zn  Zn146  1  0.94098333  0.94557608  0.68961684  1
  Zn  Zn147  1  0.06424369  0.06298856  0.31155838  1
  Zn  Zn148  1  0.06225264  0.06772820  0.81057728  1
  Zn  Zn149  1  0.06154540  0.56018303  0.31360840  1
  Zn  Zn150  1  0.05623031  0.51652046  0.79502814  1
  Zn  Zn151  1  0.56232792  0.06315196  0.31076640  1
  Zn  Zn152  1  0.56574822  0.06030907  0.80814291  1
  Zn  Zn153  1  0.56415226  0.55843281  0.31361161  1
  Zn  Zn154  1  0.56062341  0.55909842  0.81995946  1
  Zn  Zn155  1  0.43656302  0.18483711  0.43781190  1
  Zn  Zn156  1  0.43485799  0.18863302  0.93645986  1
  Zn  Zn157  1  0.43963551  0.68602701  0.43732471  1
  Zn  Zn158  1  0.43299213  0.68692700  0.92824243  1
  Zn  Zn159  1  0.93616285  0.18927111  0.43943796  1
  Zn  Zn160  1  0.93089287  0.19022667  0.94227967  1
  Zn  Zn161  1  0.93618927  0.68916986  0.44209216  1
  Zn  Zn162  1  0.93418053  0.68603649  0.94611074  1
  Zn  Zn163  1  0.06609319  0.30891919  0.06451953  1
  Zn  Zn164  1  0.06159683  0.31867418  0.56034294  1
  Zn  Zn165  1  0.06071346  0.80917290  0.05857477  1
  Zn  Zn166  1  0.06713721  0.82222506  0.55480684  1
  Zn  Zn167  1  0.56323807  0.31567412  0.06027795  1
  Zn  Zn168  1  0.56462183  0.31378388  0.56447790  1
  Zn  Zn169  1  0.56334540  0.81241179  0.05724550  1
  Zn  Zn170  1  0.56039685  0.81057037  0.56175686  1
  O  O171  1  0.12616101  0.11576496  0.11676467  1
  O  O172  1  0.11542211  0.12433714  0.63434128  1
  O  O173  1  0.12754134  0.61499311  0.11853973  1
  O  O174  1  0.13754216  0.61041679  0.60467066  1
  O  O175  1  0.61867365  0.11366857  0.12460877  1
  O  O176  1  0.61604155  0.11465606  0.62929839  1
  O  O177  1  0.62652172  0.63001808  0.11172600  1
  O  O178  1  0.61395870  0.60961192  0.61786520  1
  O  O179  1  0.38887456  0.36447039  0.38379012  1
  O  O180  1  0.36791352  0.38542338  0.86614747  1
  O  O181  1  0.38071214  0.87948832  0.37930486  1
  O  O182  1  0.38190202  0.87588865  0.88100648  1
  O  O183  1  0.88772490  0.37477347  0.37306206  1
  O  O184  1  0.87262322  0.38844529  0.88998641  1
  O  O185  1  0.88172732  0.88465052  0.38184892  1
  O  O186  1  0.88614040  0.88470359  0.88020718  1
  O  O187  1  0.25447572  0.00411047  0.36618832  1
  O  O188  1  0.24927035  0.01132268  0.86736511  1
  O  O189  1  0.24285443  0.51132430  0.36525560  1
  O  O190  1  0.25742071  0.51334820  0.86977754  1
  O  O191  1  0.75641291  0.00126665  0.36941325  1
  O  O192  1  0.75879712  0.00850861  0.86441610  1
  O  O193  1  0.75129051  0.50046385  0.37723286  1
  O  O194  1  0.75641790  0.50546865  0.87547871  1
  O  O195  1  0.24473274  0.49152021  0.13145512  1
  O  O196  1  0.25135490  0.49111945  0.60981423  1
  O  O197  1  0.24278253  0.99349512  0.12987282  1
  O  O198  1  0.23915142  1.01005926  0.63141056  1
  O  O199  1  0.74656450  0.48645794  0.12431243  1
  O  O200  1  0.74195030  0.49998351  0.63654040  1
  O  O201  1  0.74170971  0.99998245  0.13169328  1
  O  O202  1  0.74597948  1.00437997  0.63680453  1
  O  O203  1  0.00501942  0.36934015  0.25747386  1
  O  O204  1  0.02293736  0.40986931  0.76363975  1
  O  O205  1  0.00657094  0.88132801  0.26599921  1
  O  O206  1  0.00934970  0.88082451  0.75742118  1
  O  O207  1  0.49789934  0.36501150  0.25958806  1
  O  O208  1  0.50814569  0.36559589  0.75270034  1
  O  O209  1  0.50608383  0.87337264  0.25640305  1
  O  O210  1  0.49861532  0.87697025  0.76296838  1
  O  O211  1  0.49268149  0.12978887  0.24338931  1
  O  O212  1  0.49821344  0.12872921  0.74186881  1
  O  O213  1  0.48491587  0.62447114  0.25743559  1
  O  O214  1  0.50722950  0.62733989  0.74015896  1
  O  O215  1  0.99966215  0.13395257  0.24882739  1
  O  O216  1  0.98731777  0.11910184  0.73979646  1
  O  O217  1  0.98621337  0.62212379  0.25295168  1
  O  O218  1  1.02068883  0.62943995  0.76338587  1
  O  O219  1  0.35937216  0.24107442  0.00732858  1
  O  O220  1  0.38626853  0.25752454  0.51109594  1
  O  O221  1  0.36707012  0.75295087  0.00375912  1
  O  O222  1  0.37202321  0.75801439  0.50218632  1
  O  O223  1  0.86517301  0.26517153  0.00260850  1
  O  O224  1  0.86472690  0.24961707  0.50867875  1
  O  O225  1  0.86756468  0.76063421  0.00251866  1
  O  O226  1  0.86501228  0.75917705  0.50405027  1
  O  O227  1  0.12223061  0.25246946  0.48771371  1
  O  O228  1  0.13448540  0.24116287  0.99586327  1
  O  O229  1  0.13507993  0.74485867  0.48881567  1
  O  O230  1  0.13902212  0.74578642  0.99921260  1
  O  O231  1  0.63314001  0.25008303  0.49494744  1
  O  O232  1  0.63923797  0.24634125  1.00378781  1
  O  O233  1  0.62578105  0.74567884  0.49131522  1
  O  O234  1  0.63281011  0.74189570  0.99532759  1
  O  O235  1  0.49639612  0.24413488  0.13303677  1
  O  O236  1  0.49797674  0.24161490  0.63117730  1
  O  O237  1  0.48489962  0.75720661  0.12394217  1
  O  O238  1  0.49445438  0.74119067  0.62713046  1
  O  O239  1  0.99946540  0.24799762  0.13641641  1
  O  O240  1  0.99407735  0.24496594  0.61766147  1
  O  O241  1  1.00145006  0.75029172  0.12973136  1
  O  O242  1  1.01012472  0.74556300  0.61099573  1
  O  O243  1  0.00595751  0.25535631  0.37157899  1
  O  O244  1  0.00998483  0.25561376  0.89132314  1
  O  O245  1  0.01085446  0.76083845  0.38466084  1
  O  O246  1  0.00147274  0.75827151  0.87720452  1
  O  O247  1  0.50465279  0.25118458  0.36913156  1
  O  O248  1  0.49408961  0.24604809  0.85750095  1
  O  O249  1  0.51011396  0.75611963  0.37272441  1
  O  O250  1  0.50850973  0.75693126  0.87004363  1
  O  O251  1  0.25573662  0.11501821  0.48338733  1
  O  O252  1  0.24094304  0.12906829  0.99251012  1
  O  O253  1  0.24684742  0.63162570  0.48856248  1
  O  O254  1  0.24040164  0.63321725  0.99527634  1
  O  O255  1  0.75088353  0.14120797  0.49985072  1
  O  O256  1  0.75096260  0.13474871  0.98916349  1
  O  O257  1  0.74032367  0.63541816  0.49877252  1
  O  O258  1  0.74948145  0.63181576  0.99644410  1
  O  O259  1  0.24554890  0.36429997  0.00998616  1
  O  O260  1  0.26540048  0.37615962  0.48495268  1
  O  O261  1  0.25563472  0.86759877  -0.00076522  1
  O  O262  1  0.26247385  0.86712579  0.49102502  1
  O  O263  1  0.75290630  0.37089491  0.00992757  1
  O  O264  1  0.74475207  0.35836360  0.50595181  1
  O  O265  1  0.76172571  0.86886087  -0.00245147  1
  O  O266  1  0.76225346  0.86969351  0.49514507  1
  O  O267  1  0.13472071  0.49538138  0.24335956  1
  O  O268  1  0.14737946  0.50562542  0.72585868  1
  O  O269  1  0.13157744  0.99212693  0.24353561  1
  O  O270  1  0.12983232  0.99641814  0.74244644  1
  O  O271  1  0.62924879  0.49604962  0.24657033  1
  O  O272  1  0.62979958  0.49332814  0.74687015  1
  O  O273  1  0.62975168  0.99536696  0.24262010  1
  O  O274  1  0.64198516  1.00230991  0.74289957  1
  O  O275  1  0.36976323  0.00244954  0.25402257  1
  O  O276  1  0.36547174  0.00497716  0.74719431  1
  O  O277  1  0.36138888  0.50630446  0.24772594  1
  O  O278  1  0.37635610  0.50070427  0.76124437  1
  O  O279  1  0.86626468  -0.00070402  0.25946547  1
  O  O280  1  0.86616883  0.01001874  0.75422556  1
  O  O281  1  0.87048565  0.51270263  0.25555402  1
  O  O282  1  0.86928881  0.50383973  0.76535686  1
  O  O283  1  0.11646093  0.36702255  0.36957984  1
  O  O284  1  0.13565141  0.35867829  0.87652158  1
  O  O285  1  0.11884496  0.86800522  0.37177970  1
  O  O286  1  0.11203570  0.88332249  0.86727450  1
  O  O287  1  0.61264089  0.36089199  0.37450209  1
  O  O288  1  0.62424874  0.38075391  0.86505579  1
  O  O289  1  0.61815019  0.86953160  0.36892958  1
  O  O290  1  0.61721331  0.86478805  0.88371409  1
  O  O291  1  0.37817133  0.12975649  0.12961011  1
  O  O292  1  0.39150816  0.12819667  0.62895657  1
  O  O293  1  0.36479192  0.63355362  0.13353010  1
  O  O294  1  0.38633924  0.63668589  0.61759830  1
  O  O295  1  0.87724475  0.12837778  0.12885405  1
  O  O296  1  0.88387136  0.13606388  0.63249762  1
  O  O297  1  0.87980293  0.62886822  0.13827781  1
  O  O298  1  0.85435543  0.63688016  0.64337362  1
  O  O299  1  0.25097189  0.25555694  0.11909124  1
  O  O300  1  0.27218226  0.22305111  0.61056375  1
  O  O301  1  0.25799667  0.75639639  0.11556777  1
  O  O302  1  0.26022191  0.74767623  0.60694876  1
  O  O303  1  0.75258841  0.26001052  0.11871254  1
  O  O304  1  0.75865611  0.25145182  0.61757735  1
  O  O305  1  0.75208344  0.75609482  0.11382928  1
  O  O306  1  0.72970439  0.75922722  0.61000357  1
  O  O307  1  0.23948460  0.23883696  0.36730976  1
  O  O308  1  0.24654708  0.23775197  0.88271267  1
  O  O309  1  0.24401611  0.74285069  0.38095091  1
  O  O310  1  0.25673270  0.73813147  0.88173598  1
  O  O311  1  0.74260494  0.24913315  0.38500213  1
  O  O312  1  0.75739684  0.24319267  0.88283277  1
  O  O313  1  0.73547160  0.75314398  0.38369919  1
  O  O314  1  0.74620778  0.74257317  0.88788100  1
  O  O315  1  0.01141992  0.12859547  0.00243034  1
  O  O316  1  -0.00470294  0.11497869  0.50932628  1
  O  O317  1  0.01929330  0.63313674  0.00146502  1
  O  O318  1  0.01068807  0.61194957  0.49008168  1
  O  O319  1  0.50124022  0.11974189  0.00440660  1
  O  O320  1  0.49626892  0.11282334  0.50678015  1
  O  O321  1  0.50954864  0.63254237  -0.00242894  1
  O  O322  1  0.50405268  0.61530108  0.50474157  1
  O  O323  1  0.49503302  0.38047588  0.49548503  1
  O  O324  1  0.49477443  0.36750226  0.99322870  1
  O  O325  1  0.49331444  0.88165035  0.49109733  1
  O  O326  1  0.49372359  0.87998757  0.99001394  1
  O  O327  1  1.00124470  0.39187111  0.49325946  1
  O  O328  1  0.98540429  0.37378512  1.01088373  1
  O  O329  1  0.99409692  0.88917767  0.48959595  1
  O  O330  1  0.99016699  0.87538083  0.99055923  1
  O  O331  1  0.50445095  0.48790627  0.38579421  1
  O  O332  1  0.48432427  0.49637090  0.87808371  1
  O  O333  1  0.49608334  0.99571470  0.38137170  1
  O  O334  1  0.50131237  0.99451143  0.88020840  1
  O  O335  1  0.99984551  0.49076657  0.38329473  1
  O  O336  1  0.98504534  0.51181038  0.88754872  1
  O  O337  1  0.99464662  0.99738013  0.38230389  1
  O  O338  1  0.98840559  0.99627513  0.86952197  1
  O  O339  1  0.01417106  0.00009919  0.13058453  1
  O  O340  1  0.01092207  0.01020101  0.61847857  1
  O  O341  1  0.01405489  0.50080977  0.13116941  1
  O  O342  1  -0.00106473  0.50442297  0.61223752  1
  O  O343  1  0.50581367  0.00369419  0.11735442  1
  O  O344  1  0.50829337  0.00570050  0.61808577  1
  O  O345  1  0.49677634  0.49845698  0.11978988  1
  O  O346  1  0.50293012  0.50382055  0.62171336  1
  O  O347  1  0.24494769  0.38159375  0.24726788  1
  O  O348  1  0.22784167  0.31873337  0.72740029  1
  O  O349  1  0.24395330  0.87959593  0.24400175  1
  O  O350  1  0.23847573  0.89059072  0.75760204  1
  O  O351  1  0.75061408  0.37269373  0.23706552  1
  O  O352  1  0.74507747  0.38667253  0.75141541  1
  O  O353  1  0.74283311  0.88701828  0.24982389  1
  O  O354  1  0.75656404  0.89202657  0.75685360  1
  O  O355  1  0.25480024  0.11712611  0.25391517  1
  O  O356  1  0.25256915  0.11792532  0.75765411  1
  O  O357  1  0.25661764  0.61820146  0.25520617  1
  O  O358  1  0.24641066  0.63598135  0.75987594  1
  O  O359  1  0.74854368  0.11305871  0.25382329  1
  O  O360  1  0.76043707  0.12181601  0.75519111  1
  O  O361  1  0.76128776  0.62320436  0.25464244  1
  O  O362  1  0.73837701  0.60899488  0.77114651  1
  O  O363  1  0.36923270  0.11792593  0.36793209  1
  O  O364  1  0.36573564  0.12196468  0.86670133  1
  O  O365  1  0.36362606  0.63208639  0.36618690  1
  O  O366  1  0.36504620  0.62030935  0.86568554  1
  O  O367  1  0.87395180  0.11155801  0.37510243  1
  O  O368  1  0.87066719  0.12094456  0.86883461  1
  O  O369  1  0.87285523  0.62692499  0.36753373  1
  O  O370  1  0.86727660  0.61619238  0.87803468  1
  O  O371  1  0.13437247  0.37940663  0.13164597  1
  O  O372  1  0.12457959  0.39257599  0.61851601  1
  O  O373  1  0.13147034  0.88105626  0.12618194  1
  O  O374  1  0.12252716  0.88948217  0.63451914  1
  O  O375  1  0.63726664  0.37428987  0.12829534  1
  O  O376  1  0.62473752  0.38751928  0.63437373  1
  O  O377  1  0.62492823  0.88616845  0.12809487  1
  O  O378  1  0.61636521  0.88826234  0.62510709  1
  O  O379  1  0.11502604  0.25540913  0.25616589  1
  O  O380  1  0.10557783  0.23686288  0.77214161  1
  O  O381  1  0.13381382  0.75445087  0.26235865  1
  O  O382  1  0.12249866  0.75924022  0.75326649  1
  O  O383  1  0.61291890  0.24974455  0.25536730  1
  O  O384  1  0.61873698  0.26030247  0.74201667  1
  O  O385  1  0.62462556  0.75538225  0.25511110  1
  O  O386  1  0.63381922  0.74600116  0.76634134  1
  O  O387  1  0.38448914  0.24360681  0.24537017  1
  O  O388  1  0.38409700  0.24294902  0.73537224  1
  O  O389  1  0.37464874  0.74107161  0.23915826  1
  O  O390  1  0.37611874  0.76060985  0.73405051  1
  O  O391  1  0.88728452  0.24778434  0.25234046  1
  O  O392  1  0.87222651  0.24360207  0.74292084  1
  O  O393  1  0.86820457  0.73863875  0.25175536  1
  O  O394  1  0.85760765  0.74254601  0.74624272  1
  O  O395  1  0.38830132  0.48996559  0.50518659  1
  O  O396  1  0.36794069  0.50763232  0.97727975  1
  O  O397  1  0.38401824  0.99188842  0.49580195  1
  O  O398  1  0.38056274  0.99225665  0.99749053  1
  O  O399  1  0.88656761  0.50844598  0.49981766  1
  O  O400  1  0.86961149  0.48939025  0.99482899  1
  O  O401  1  0.87992581  0.99582728  0.49630744  1
  O  O402  1  0.86831538  0.99340936  0.98786578  1
  O  O403  1  0.13086138  0.00877100  0.00891804  1
  O  O404  1  0.11731739  -0.00350934  0.50882577  1
  O  O405  1  0.13392133  0.50770408  0.00939024  1
  O  O406  1  0.11830898  0.50642436  0.50310826  1
  O  O407  1  0.62145204  0.00248713  0.00648320  1
  O  O408  1  0.61616790  -0.00390845  0.50604839  1
  O  O409  1  0.62242331  0.51855728  0.00243590  1
  O  O410  1  0.61521105  0.49985837  0.50956436  1
  O  O411  1  0.35959362  0.36546365  0.13409963  1
  O  O412  1  0.37686720  0.35814356  0.61753437  1
  O  O413  1  0.36822294  0.86909360  0.11521439  1
  O  O414  1  0.38287713  0.86776030  0.61073944  1
  O  O415  1  0.86542072  0.37688168  0.11688622  1
  O  O416  1  0.87508068  0.36395652  0.63346492  1
  O  O417  1  0.87375037  0.87796873  0.11603344  1
  O  O418  1  0.88527931  0.87612626  0.61462015  1
  O  O419  1  0.13358449  0.13334327  0.37151048  1
  O  O420  1  0.12955426  0.13047786  0.88357873  1
  O  O421  1  0.13256521  0.63137008  0.37978961  1
  O  O422  1  0.13524554  0.62504421  0.88029319  1
  O  O423  1  0.62369913  0.13750928  0.37230983  1
  O  O424  1  0.64001916  0.12158457  0.87286719  1
  O  O425  1  0.62316840  0.63350878  0.38208230  1
  O  O426  1  0.63097343  0.63090204  0.88879648  1
