# generated using pymatgen
data_V85Zn86O256
_symmetry_space_group_name_H-M   'P 1'
_cell_length_a   16.94440560
_cell_length_b   16.95218134
_cell_length_c   16.94710057
_cell_angle_alpha   90.07710809
_cell_angle_beta   89.93325246
_cell_angle_gamma   89.92527444
_symmetry_Int_Tables_number   1
_chemical_formula_structural   V85Zn86O256
_chemical_formula_sum   'V85 Zn86 O256'
_cell_volume   4867.95188047
_cell_formula_units_Z   1
loop_
 _symmetry_equiv_pos_site_id
 _symmetry_equiv_pos_as_xyz
  1  'x, y, z'
loop_
 _atom_site_type_symbol
 _atom_site_label
 _atom_site_symmetry_multiplicity
 _atom_site_fract_x
 _atom_site_fract_y
 _atom_site_fract_z
 _atom_site_occupancy
  V  V0  1  0.62583153  0.62672533  0.49234043  1
  V  V1  1  0.49788317  0.50027277  0.00034511  1
  V  V2  1  0.38251858  -0.00257547  0.36977815  1
  V  V3  1  0.63050867  0.37416439  0.75069758  1
  V  V4  1  0.49672692  0.25009504  0.74510972  1
  V  V5  1  0.12934236  0.37421099  0.24246628  1
  V  V6  1  0.12202973  0.88839448  0.74788008  1
  V  V7  1  -0.00180468  0.50091972  0.00707397  1
  V  V8  1  0.62356664  0.75782161  0.87496746  1
  V  V9  1  0.13173117  0.24014429  0.87121020  1
  V  V10  1  0.25009582  0.62154212  0.37356729  1
  V  V11  1  0.74910917  0.50190060  0.74255685  1
  V  V12  1  0.74774332  0.87115830  0.13112189  1
  V  V13  1  -0.00055396  0.87785807  0.88205982  1
  V  V14  1  0.24526993  0.88766509  0.62478717  1
  V  V15  1  0.62932813  0.00167329  0.62546319  1
  V  V16  1  0.49987677  0.75453366  0.26901563  1
  V  V17  1  0.38035010  0.86822570  -0.00274689  1
  V  V18  1  0.61509134  0.37455605  0.25219579  1
  V  V19  1  0.75170837  0.25477337  0.49773173  1
  V  V20  1  0.74902776  0.00592124  0.25280630  1
  V  V21  1  0.12104887  0.24968182  0.37018158  1
  V  V22  1  0.11450316  0.87021001  0.25354247  1
  V  V23  1  0.37513233  0.49908318  0.87228925  1
  V  V24  1  0.62125947  0.00057229  0.12189056  1
  V  V25  1  0.49353561  0.12373245  0.62122109  1
  V  V26  1  0.75191776  0.36783180  0.12401515  1
  V  V27  1  -0.00094562  0.75118550  0.74967394  1
  V  V28  1  -0.00080908  0.25076181  0.74661144  1
  V  V29  1  -0.00569986  0.48937707  0.50113527  1
  V  V30  1  0.75499424  0.74561127  0.00461699  1
  V  V31  1  0.49562575  0.63917386  0.12252709  1
  V  V32  1  0.62382713  0.62421364  -0.00177204  1
  V  V33  1  0.25021960  0.62568755  0.87282049  1
  V  V34  1  -0.00124390  0.62437190  0.62425058  1
  V  V35  1  0.74893445  0.62459633  0.87444510  1
  V  V36  1  0.12605315  0.74921453  0.87377755  1
  V  V37  1  0.75467679  0.50435869  0.25259542  1
  V  V38  1  0.24697017  0.75157447  0.49887747  1
  V  V39  1  0.88053009  0.00176661  0.37709851  1
  V  V40  1  0.74465094  0.74876047  0.49298589  1
  V  V41  1  0.25274711  0.23875260  -0.00582351  1
  V  V42  1  0.38173339  0.87534411  0.49453341  1
  V  V43  1  0.88921943  0.13700353  0.24886922  1
  V  V44  1  -0.00588508  0.37009150  0.36939475  1
  V  V45  1  0.49124949  0.12359097  0.12088599  1
  V  V46  1  0.36645501  0.25049851  0.12988996  1
  V  V47  1  0.87315199  0.36387579  0.00444003  1
  V  V48  1  0.36812759  0.12809369  0.75302332  1
  V  V49  1  0.25477937  0.86522273  0.12494027  1
  V  V50  1  0.62228786  0.50027878  0.12565430  1
  V  V51  1  0.87534856  0.25486513  0.61895463  1
  V  V52  1  0.12752019  0.37556852  0.74815205  1
  V  V53  1  0.12371862  0.62457835  0.00099459  1
  V  V54  1  0.25440002  -0.00166723  0.24734667  1
  V  V55  1  0.37428665  0.62774059  0.24678802  1
  V  V56  1  0.39001694  0.49190642  0.38568869  1
  V  V57  1  0.87451373  0.87489850  0.50331243  1
  V  V58  1  0.00055011  0.11949365  0.62279593  1
  V  V59  1  0.86781619  0.49926249  0.38028152  1
  V  V60  1  0.26164901  0.25245444  0.49880246  1
  V  V61  1  0.12526379  0.49908104  0.62102283  1
  V  V62  1  0.12774764  0.12172874  0.50090285  1
  V  V63  1  0.00479797  -0.00619370  0.50003961  1
  V  V64  1  0.00195380  0.37685598  0.87522356  1
  V  V65  1  0.88021892  0.87715552  0.00602822  1
  V  V66  1  0.50385201  0.63344167  0.62377709  1
  V  V67  1  0.25351783  0.50123992  0.74529702  1
  V  V68  1  0.49919191  0.37532348  0.87324978  1
  V  V69  1  0.87383038  0.50014511  0.87655991  1
  V  V70  1  0.36612876  0.37573677  0.00495894  1
  V  V71  1  0.63357686  0.24801420  0.88498228  1
  V  V72  1  0.11274652  0.75021607  0.37166857  1
  V  V73  1  0.61957050  0.87554090  0.26750258  1
  V  V74  1  0.11751748  -0.00085915  0.11995018  1
  V  V75  1  0.59051203  0.47813101  0.60561728  1
  V  V76  1  0.50198962  0.00066871  -0.01144617  1
  V  V77  1  0.25840818  0.37131309  0.61690130  1
  V  V78  1  0.25547314  0.12403510  0.36896179  1
  V  V79  1  0.61764027  0.25186458  0.37394951  1
  V  V80  1  0.37220267  0.75390570  0.62664936  1
  V  V81  1  -0.00402631  0.62890400  0.14009149  1
  V  V82  1  0.49853207  0.76101095  0.75608369  1
  V  V83  1  0.36350937  0.00164101  0.87524060  1
  V  V84  1  0.49498200  0.24681246  0.25141363  1
  Zn  Zn85  1  0.50347117  -0.00206044  0.49379599  1
  Zn  Zn86  1  0.37678474  0.62828908  0.74769798  1
  Zn  Zn87  1  0.62411875  0.88046867  0.75382452  1
  Zn  Zn88  1  0.12687523  0.11352181  -0.00798740  1
  Zn  Zn89  1  0.86212394  0.12702939  0.75866730  1
  Zn  Zn90  1  0.75858061  0.38068096  0.61572231  1
  Zn  Zn91  1  0.87012578  0.00619695  0.88173464  1
  Zn  Zn92  1  0.13332888  0.49774355  0.12462948  1
  Zn  Zn93  1  0.74905106  0.87325559  0.63192610  1
  Zn  Zn94  1  0.87834807  0.74681829  0.14654035  1
  Zn  Zn95  1  0.70867256  0.10141495  -0.06320509  1
  Zn  Zn96  1  0.25674567  0.74563911  0.00293862  1
  Zn  Zn97  1  0.74898653  0.00500363  0.76334449  1
  Zn  Zn98  1  0.23991908  0.01075561  0.75165456  1
  Zn  Zn99  1  0.74812571  0.12935399  0.37308057  1
  Zn  Zn100  1  0.80869509  0.66640753  0.31353281  1
  Zn  Zn101  1  0.25749520  0.49242757  0.24579649  1
  Zn  Zn102  1  0.87152934  0.75112246  0.62631708  1
  Zn  Zn103  1  0.12290855  0.62353790  0.49621501  1
  Zn  Zn104  1  0.00140322  0.13685847  0.11798422  1
  Zn  Zn105  1  0.62342840  0.12581496  0.49760647  1
  Zn  Zn106  1  0.87376215  0.62715256  0.75086606  1
  Zn  Zn107  1  0.18740903  0.18645988  0.18775527  1
  Zn  Zn108  1  0.18619800  0.18838490  0.68159251  1
  Zn  Zn109  1  0.18509090  0.68526927  0.18790166  1
  Zn  Zn110  1  0.18467214  0.69011182  0.68567911  1
  Zn  Zn111  1  0.70849256  0.16337465  0.13749574  1
  Zn  Zn112  1  0.68780065  0.18591672  0.68763864  1
  Zn  Zn113  1  0.67692225  0.68976130  0.18791980  1
  Zn  Zn114  1  0.68567292  0.68841253  0.68296017  1
  Zn  Zn115  1  0.31263937  0.31332019  0.31596805  1
  Zn  Zn116  1  0.31311479  0.31314934  0.81015787  1
  Zn  Zn117  1  0.31067922  0.81017020  0.31167983  1
  Zn  Zn118  1  0.31134534  0.81849408  0.81328431  1
  Zn  Zn119  1  0.80400258  0.31754900  0.31439840  1
  Zn  Zn120  1  0.81425864  0.31133139  0.81364078  1
  Zn  Zn121  1  0.81418090  0.82838753  0.31777893  1
  Zn  Zn122  1  0.81160767  0.81856082  0.81280100  1
  Zn  Zn123  1  0.18733331  0.43712491  0.43365180  1
  Zn  Zn124  1  0.18820149  0.43635376  0.93620394  1
  Zn  Zn125  1  0.18974188  0.93666485  0.43387510  1
  Zn  Zn126  1  0.19043485  0.93193677  0.93763943  1
  Zn  Zn127  1  0.68234242  0.43476363  0.43502928  1
  Zn  Zn128  1  0.68854721  0.43569074  0.93789151  1
  Zn  Zn129  1  0.69175383  0.94132645  0.44244459  1
  Zn  Zn130  1  0.69048825  0.93014833  0.94280053  1
  Zn  Zn131  1  0.31217732  0.05910514  0.06390319  1
  Zn  Zn132  1  0.31557082  0.06355974  0.55961438  1
  Zn  Zn133  1  0.31070583  0.56155911  0.06521810  1
  Zn  Zn134  1  0.31496163  0.56573401  0.56091939  1
  Zn  Zn135  1  0.82197513  0.05600097  0.06933899  1
  Zn  Zn136  1  0.81183802  0.07148996  0.56342105  1
  Zn  Zn137  1  0.81509694  0.55815244  0.06846863  1
  Zn  Zn138  1  0.81433596  0.56693550  0.55885800  1
  Zn  Zn139  1  0.43379656  0.44051109  0.18756137  1
  Zn  Zn140  1  0.44068480  0.43061645  0.67389941  1
  Zn  Zn141  1  0.43668007  0.93250403  0.18447031  1
  Zn  Zn142  1  0.43623767  0.94149620  0.68680530  1
  Zn  Zn143  1  0.93752956  0.31524391  0.18818295  1
  Zn  Zn144  1  0.93492581  0.43767919  0.68858287  1
  Zn  Zn145  1  0.93565868  0.93552305  0.19006150  1
  Zn  Zn146  1  0.93272675  0.94201412  0.69106757  1
  Zn  Zn147  1  0.06651546  0.05752653  0.31421754  1
  Zn  Zn148  1  0.02557237  0.07923017  0.83297669  1
  Zn  Zn149  1  0.06205071  0.55545160  0.31654327  1
  Zn  Zn150  1  0.06263710  0.56217971  0.81215695  1
  Zn  Zn151  1  0.56175945  0.06991468  0.30607419  1
  Zn  Zn152  1  0.56180382  0.06743416  0.80957982  1
  Zn  Zn153  1  0.56063026  0.56324342  0.31108836  1
  Zn  Zn154  1  0.56233101  0.56592786  0.80523605  1
  Zn  Zn155  1  0.43728425  0.18475521  0.43400701  1
  Zn  Zn156  1  0.44143305  0.18639815  0.93454814  1
  Zn  Zn157  1  0.43383745  0.68051733  0.44086539  1
  Zn  Zn158  1  0.43772578  0.68655632  0.93304208  1
  Zn  Zn159  1  0.93609601  0.18585879  0.43683442  1
  Zn  Zn160  1  0.94541384  0.18774936  0.94434186  1
  Zn  Zn161  1  0.93590121  0.68435465  0.44297001  1
  Zn  Zn162  1  0.93678687  0.68875323  0.93854363  1
  Zn  Zn163  1  0.06595891  0.30807248  0.05768567  1
  Zn  Zn164  1  0.06785338  0.31043146  0.55788411  1
  Zn  Zn165  1  0.06495945  0.80704131  0.06757497  1
  Zn  Zn166  1  0.06350443  0.81329025  0.56361870  1
  Zn  Zn167  1  0.55670043  0.31445735  0.06533359  1
  Zn  Zn168  1  0.56333454  0.30901389  0.56395110  1
  Zn  Zn169  1  0.56398510  0.81734463  0.06239892  1
  Zn  Zn170  1  0.56453627  0.81439192  0.56218095  1
  O  O171  1  0.12702534  0.10540435  0.13102063  1
  O  O172  1  0.11775737  0.13001532  0.60797519  1
  O  O173  1  0.11567504  0.62434079  0.11634208  1
  O  O174  1  0.11439837  0.61806075  0.62382465  1
  O  O175  1  0.60884704  0.10721502  0.13370132  1
  O  O176  1  0.61290094  0.11645040  0.62414886  1
  O  O177  1  0.61516397  0.61919615  0.11679441  1
  O  O178  1  0.61583614  0.61843681  0.61767088  1
  O  O179  1  0.37026749  0.39370390  0.37092906  1
  O  O180  1  0.38061120  0.38149428  0.87972548  1
  O  O181  1  0.36506537  0.88402953  0.38361543  1
  O  O182  1  0.37180570  0.88739049  0.88414884  1
  O  O183  1  0.88242106  0.38534580  0.36700357  1
  O  O184  1  0.88102506  0.38196706  0.88140897  1
  O  O185  1  0.87366410  0.88910392  0.39306051  1
  O  O186  1  0.88419175  0.87154231  0.88768936  1
  O  O187  1  0.25621384  0.00569801  0.36639309  1
  O  O188  1  0.25907419  0.00103731  0.87366665  1
  O  O189  1  0.25030182  0.51368086  0.37117954  1
  O  O190  1  0.25395288  0.50525736  0.86462174  1
  O  O191  1  0.75885079  0.00607672  0.36961178  1
  O  O192  1  0.74957580  0.00759969  0.88638849  1
  O  O193  1  0.75373084  0.49225469  0.36441570  1
  O  O194  1  0.75227496  0.50598554  0.86662136  1
  O  O195  1  0.24605275  0.50366733  0.13302593  1
  O  O196  1  0.24556310  0.49667439  0.62858084  1
  O  O197  1  0.24357192  0.98987031  0.13227040  1
  O  O198  1  0.25132315  0.99028415  0.62579509  1
  O  O199  1  0.74263803  0.49509101  0.13572407  1
  O  O200  1  0.76016540  0.50017398  0.63797020  1
  O  O201  1  0.74080505  0.99007281  0.13398244  1
  O  O202  1  0.73489568  1.00353785  0.62056587  1
  O  O203  1  0.01033560  0.37123348  0.26354555  1
  O  O204  1  0.00689019  0.36742786  0.75144469  1
  O  O205  1  0.01582026  0.87655172  0.25050213  1
  O  O206  1  0.00467785  0.86794386  0.75631632  1
  O  O207  1  0.50906300  0.36556172  0.23669126  1
  O  O208  1  0.50768047  0.36869280  0.75137265  1
  O  O209  1  0.50261519  0.86149465  0.24886423  1
  O  O210  1  0.50133343  0.86498167  0.74608145  1
  O  O211  1  0.49690063  0.13961717  0.23929124  1
  O  O212  1  0.49074236  0.13289068  0.74349940  1
  O  O213  1  0.49681264  0.63731073  0.24348198  1
  O  O214  1  0.49852194  0.64398385  0.74547182  1
  O  O215  1  0.99007312  0.12430634  0.25665967  1
  O  O216  1  1.01222835  0.14157175  0.73464094  1
  O  O217  1  1.00486387  0.61643569  0.23760807  1
  O  O218  1  1.00018158  0.63250098  0.74339663  1
  O  O219  1  0.36924493  0.25611726  0.00284325  1
  O  O220  1  0.36108053  0.24692265  0.49351731  1
  O  O221  1  0.37610093  0.76338470  -0.00815853  1
  O  O222  1  0.36349293  0.75650429  0.50276320  1
  O  O223  1  0.87689675  0.26521024  -0.00715681  1
  O  O224  1  0.86615621  0.24618603  0.50649674  1
  O  O225  1  0.86255579  0.75235343  0.00322027  1
  O  O226  1  0.86761886  0.75845966  0.50239892  1
  O  O227  1  0.13171317  0.24099796  0.48664730  1
  O  O228  1  0.13941751  0.25635143  0.98622412  1
  O  O229  1  0.13483184  0.75094482  0.49364296  1
  O  O230  1  0.12739491  0.73762692  0.99347519  1
  O  O231  1  0.62663295  0.25045602  0.49077852  1
  O  O232  1  0.61817601  0.26223763  0.98315096  1
  O  O233  1  0.63679308  0.74512291  0.50325588  1
  O  O234  1  0.63386576  0.74526488  0.99506247  1
  O  O235  1  0.48941457  0.24138245  0.12675431  1
  O  O236  1  0.50542561  0.23988435  0.63738368  1
  O  O237  1  0.50429568  0.74064480  0.12669991  1
  O  O238  1  0.49461185  0.74822926  0.63216101  1
  O  O239  1  1.00417985  0.25036483  0.12795024  1
  O  O240  1  0.99637237  0.24579053  0.62675377  1
  O  O241  1  0.99917500  0.73316052  0.12678784  1
  O  O242  1  0.99980246  0.74149472  0.63136547  1
  O  O243  1  0.00835853  0.25810281  0.38342026  1
  O  O244  1  0.01056041  0.25969750  0.86395266  1
  O  O245  1  0.01427542  0.74492518  0.38560876  1
  O  O246  1  0.00635403  0.75356968  0.86713041  1
  O  O247  1  0.50286368  0.24757087  0.36419481  1
  O  O248  1  0.50659064  0.25784395  0.86481579  1
  O  O249  1  0.49730259  0.74696423  0.36693202  1
  O  O250  1  0.51092249  0.74597477  0.86818877  1
  O  O251  1  0.24351890  0.12909145  0.49348137  1
  O  O252  1  0.24582892  0.13483400  1.00150342  1
  O  O253  1  0.24650766  0.63495396  0.49341945  1
  O  O254  1  0.24323337  0.62591078  0.99186169  1
  O  O255  1  0.74437245  0.13947605  0.49680036  1
  O  O256  1  0.74860544  0.13155726  1.03415258  1
  O  O257  1  0.74257334  0.63925709  0.50560348  1
  O  O258  1  0.74519125  0.62860670  0.99779209  1
  O  O259  1  0.26247349  0.36795163  -0.00601660  1
  O  O260  1  0.24179959  0.36499939  0.50500070  1
  O  O261  1  0.25874608  0.86997621  0.00756369  1
  O  O262  1  0.25380849  0.86958944  0.50670920  1
  O  O263  1  0.75786100  0.38406714  0.01517343  1
  O  O264  1  0.74417038  0.36116874  0.49966502  1
  O  O265  1  0.75749563  0.86302126  0.01062909  1
  O  O266  1  0.75599503  0.86556492  0.50432528  1
  O  O267  1  0.12481188  0.48227847  0.25266627  1
  O  O268  1  0.13528809  0.49626100  0.74373445  1
  O  O269  1  0.13454706  0.98695953  0.24686586  1
  O  O270  1  0.12132023  0.98889847  0.75758367  1
  O  O271  1  0.62489195  0.49199268  0.24439515  1
  O  O272  1  0.63037436  0.49135948  0.74075694  1
  O  O273  1  0.62948137  0.99499658  0.24646882  1
  O  O274  1  0.62182153  0.99998832  0.73840508  1
  O  O275  1  0.36282004  -0.00890093  0.25454760  1
  O  O276  1  0.37263169  0.00763365  0.75936181  1
  O  O277  1  0.37702877  0.51368440  0.25838341  1
  O  O278  1  0.36349605  0.49868383  0.75058157  1
  O  O279  1  0.86860734  0.00041318  0.26099439  1
  O  O280  1  0.87176070  0.00431912  0.76010148  1
  O  O281  1  0.85418322  0.50335313  0.25605081  1
  O  O282  1  0.86785592  0.50163159  0.75947039  1
  O  O283  1  0.11730747  0.36615282  0.36932506  1
  O  O284  1  0.12065925  0.37162730  0.86519794  1
  O  O285  1  0.13214457  0.86631175  0.36122042  1
  O  O286  1  0.12151011  0.86494229  0.86965113  1
  O  O287  1  0.62307289  0.36530678  0.36392457  1
  O  O288  1  0.61924287  0.37277152  0.86586493  1
  O  O289  1  0.62476444  0.88432738  0.36644444  1
  O  O290  1  0.62585818  0.86084081  0.87780847  1
  O  O291  1  0.38207776  0.13267171  0.12221569  1
  O  O292  1  0.38682849  0.11785872  0.63290474  1
  O  O293  1  0.38417749  0.62323065  0.13386910  1
  O  O294  1  0.38130418  0.63704625  0.62561942  1
  O  O295  1  0.88589379  0.11388744  0.14666156  1
  O  O296  1  0.88611208  0.13695265  0.62714123  1
  O  O297  1  0.89185397  0.62466258  0.12160765  1
  O  O298  1  0.88844086  0.62630946  0.62851285  1
  O  O299  1  0.26061756  0.24511001  0.11651260  1
  O  O300  1  0.24186012  0.25972788  0.61089327  1
  O  O301  1  0.24544138  0.76106899  0.12341789  1
  O  O302  1  0.25256656  0.75690378  0.61674831  1
  O  O303  1  0.74425003  0.27057854  0.13696193  1
  O  O304  1  0.75857934  0.25137616  0.61690339  1
  O  O305  1  0.74684002  0.75265516  0.11919299  1
  O  O306  1  0.75309017  0.75349503  0.61632536  1
  O  O307  1  0.24448118  0.24075047  0.37897408  1
  O  O308  1  0.24333236  0.25336446  0.88033076  1
  O  O309  1  0.24452069  0.74049185  0.38196118  1
  O  O310  1  0.24340909  0.74173820  0.87297621  1
  O  O311  1  0.73888932  0.25017780  0.37959729  1
  O  O312  1  0.73371526  0.25626519  0.87424359  1
  O  O313  1  0.75458476  0.74937764  0.39057462  1
  O  O314  1  0.74432222  0.74307475  0.88316595  1
  O  O315  1  0.01578869  0.12687115  0.00516161  1
  O  O316  1  0.00677577  0.11703207  0.50424510  1
  O  O317  1  0.00848181  0.61882008  -0.00162627  1
  O  O318  1  0.00190974  0.61279478  0.50922558  1
  O  O319  1  0.49577946  0.11559171  0.00982971  1
  O  O320  1  0.50015122  0.12302491  0.50825108  1
  O  O321  1  0.50219595  0.62038250  0.00552394  1
  O  O322  1  0.50921323  0.63484500  0.51344610  1
  O  O323  1  0.51370412  0.41035436  0.56905156  1
  O  O324  1  0.48926659  0.38189661  0.99386886  1
  O  O325  1  0.48489698  0.87445834  0.50267948  1
  O  O326  1  0.49053152  0.88666206  1.00644650  1
  O  O327  1  1.00572700  0.38430445  0.49147437  1
  O  O328  1  0.99470581  0.38394284  0.99549735  1
  O  O329  1  0.99520030  0.88794561  0.50697357  1
  O  O330  1  0.99106184  0.85785578  0.99493946  1
  O  O331  1  0.48977480  0.50073762  0.37495895  1
  O  O332  1  0.49488719  0.49649926  0.87680660  1
  O  O333  1  0.48561232  1.00820570  0.37058820  1
  O  O334  1  0.49485994  1.00598203  0.88572235  1
  O  O335  1  0.99167615  0.49039652  0.38297972  1
  O  O336  1  0.99538716  0.49575594  0.88196990  1
  O  O337  1  0.98927262  1.00570472  0.38492884  1
  O  O338  1  1.00752151  0.97812638  0.88235510  1
  O  O339  1  0.01681429  -0.00423802  0.13198640  1
  O  O340  1  -0.00335321  0.01300052  0.61769861  1
  O  O341  1  0.00826601  0.51095042  0.10974278  1
  O  O342  1  0.00307155  0.50367656  0.61991895  1
  O  O343  1  0.50172754  0.00589390  0.11927559  1
  O  O344  1  0.50772367  0.00743973  0.62165800  1
  O  O345  1  0.50412126  0.50873852  0.11884389  1
  O  O346  1  0.50091763  0.52697600  0.65158882  1
  O  O347  1  0.23326965  0.37426775  0.25713687  1
  O  O348  1  0.24494609  0.38240916  0.74203393  1
  O  O349  1  0.24518023  0.87866446  0.24188334  1
  O  O350  1  0.23979964  0.87851939  0.74155462  1
  O  O351  1  0.73835106  0.38621855  0.24180609  1
  O  O352  1  0.74417100  0.38485408  0.75349312  1
  O  O353  1  0.73916136  0.88677745  0.24956461  1
  O  O354  1  0.74386231  0.88342622  0.74961222  1
  O  O355  1  0.24462062  0.11285500  0.25854815  1
  O  O356  1  0.26318391  0.12689868  0.73979619  1
  O  O357  1  0.25964808  0.62956546  0.25746302  1
  O  O358  1  0.25041370  0.61747612  0.75246707  1
  O  O359  1  0.75745025  0.11259129  0.24275950  1
  O  O360  1  0.74882747  0.12147109  0.75320511  1
  O  O361  1  0.73144839  0.60911562  0.25107102  1
  O  O362  1  0.74913050  0.61842940  0.75554915  1
  O  O363  1  0.36150948  0.11510914  0.37754267  1
  O  O364  1  0.37958889  0.11669306  0.86435787  1
  O  O365  1  0.36792430  0.61901845  0.36775489  1
  O  O366  1  0.36766232  0.61706708  0.87070970  1
  O  O367  1  0.87064348  0.12025427  0.36353923  1
  O  O368  1  0.91360731  0.11501440  0.86414305  1
  O  O369  1  0.87641551  0.60661701  0.38254910  1
  O  O370  1  0.86643321  0.61863928  0.87487038  1
  O  O371  1  0.12090323  0.37446346  0.14016452  1
  O  O372  1  0.12994470  0.38192589  0.63065109  1
  O  O373  1  0.13119701  0.87973218  0.13476038  1
  O  O374  1  0.13306428  0.87119698  0.63552372  1
  O  O375  1  0.63114037  0.38241819  0.12811946  1
  O  O376  1  0.63959615  0.37795412  0.63756104  1
  O  O377  1  0.62708181  0.88455914  0.13521813  1
  O  O378  1  0.62415881  0.89116061  0.62503933  1
  O  O379  1  0.13070071  0.25673170  0.26228631  1
  O  O380  1  0.12240311  0.25731745  0.75321443  1
  O  O381  1  0.12855324  0.76183185  0.25668699  1
  O  O382  1  0.11420994  0.75577754  0.75435694  1
  O  O383  1  0.61268335  0.25928197  0.25643837  1
  O  O384  1  0.61850906  0.25960181  0.75646977  1
  O  O385  1  0.60983402  0.75950446  0.25151561  1
  O  O386  1  0.61853690  0.75221063  0.75890604  1
  O  O387  1  0.38050119  0.25851816  0.24016296  1
  O  O388  1  0.38531962  0.24302390  0.75509321  1
  O  O389  1  0.38722676  0.74037168  0.25445334  1
  O  O390  1  0.38038289  0.75290910  0.74532070  1
  O  O391  1  0.87194321  0.24023545  0.25447363  1
  O  O392  1  0.88596366  0.24909331  0.74455788  1
  O  O393  1  0.86085766  0.74776203  0.25784752  1
  O  O394  1  0.88755068  0.75027725  0.75008341  1
  O  O395  1  0.37359376  0.50697395  0.48473805  1
  O  O396  1  0.37834958  0.49338284  0.99371828  1
  O  O397  1  0.37540000  0.99147703  0.48898194  1
  O  O398  1  0.38009295  0.99481056  0.99185698  1
  O  O399  1  0.88127670  0.49649362  0.49485572  1
  O  O400  1  0.88255376  0.49418002  0.99489875  1
  O  O401  1  0.88068429  0.99913032  0.49596043  1
  O  O402  1  0.87672358  0.98113039  1.00307389  1
  O  O403  1  0.13301532  -0.00576213  0.01691554  1
  O  O404  1  0.11684425  0.00782777  0.49050412  1
  O  O405  1  0.11951313  0.50971959  -0.00349709  1
  O  O406  1  0.11689890  0.50135613  0.50516833  1
  O  O407  1  0.61542272  -0.00610714  0.00900432  1
  O  O408  1  0.62115291  0.00430402  0.50869116  1
  O  O409  1  0.61821000  0.50466654  0.00418841  1
  O  O410  1  0.63508322  0.50680200  0.51350210  1
  O  O411  1  0.38005092  0.36523851  0.11456460  1
  O  O412  1  0.35703286  0.37359551  0.62539556  1
  O  O413  1  0.36491262  0.87962008  0.11236289  1
  O  O414  1  0.36518458  0.87196786  0.61796758  1
  O  O415  1  0.86178057  0.37696193  0.12085041  1
  O  O416  1  0.87574854  0.36035479  0.62879643  1
  O  O417  1  0.86911638  0.86795567  0.12331978  1
  O  O418  1  0.87395456  0.87682513  0.61418001  1
  O  O419  1  0.13294882  0.12968223  0.38055558  1
  O  O420  1  0.12217014  0.13742428  0.87035080  1
  O  O421  1  0.13189739  0.63160178  0.37349482  1
  O  O422  1  0.13067383  0.62912438  0.88003596  1
  O  O423  1  0.62611414  0.13902613  0.37271002  1
  O  O424  1  0.61922789  0.14213621  0.87749410  1
  O  O425  1  0.61952726  0.61666507  0.39321428  1
  O  O426  1  0.63064105  0.63102898  0.88037796  1
