# generated using pymatgen
data_V85Zn86O256
_symmetry_space_group_name_H-M   'P 1'
_cell_length_a   16.93724492
_cell_length_b   16.93682485
_cell_length_c   16.93640355
_cell_angle_alpha   90.00608815
_cell_angle_beta   89.97208212
_cell_angle_gamma   90.04562777
_symmetry_Int_Tables_number   1
_chemical_formula_structural   V85Zn86O256
_chemical_formula_sum   'V85 Zn86 O256'
_cell_volume   4858.42793936
_cell_formula_units_Z   1
loop_
 _symmetry_equiv_pos_site_id
 _symmetry_equiv_pos_as_xyz
  1  'x, y, z'
loop_
 _atom_site_type_symbol
 _atom_site_label
 _atom_site_symmetry_multiplicity
 _atom_site_fract_x
 _atom_site_fract_y
 _atom_site_fract_z
 _atom_site_occupancy
  V  V0  1  0.12342533  0.37147696  0.25601846  1
  V  V1  1  0.50119631  0.25081352  0.74337522  1
  V  V2  1  0.50258783  -0.00580776  0.49330227  1
  V  V3  1  0.37390236  0.23985233  0.12712238  1
  V  V4  1  0.12460194  0.00042767  0.12507501  1
  V  V5  1  0.37656090  -0.00445929  0.37332815  1
  V  V6  1  0.24670712  0.24447052  -0.00130821  1
  V  V7  1  0.75059734  0.00073427  0.75141019  1
  V  V8  1  0.86990910  0.25978559  0.61770154  1
  V  V9  1  0.74613485  0.37797894  0.12628451  1
  V  V10  1  0.24955196  0.37248362  0.62327154  1
  V  V11  1  0.24972247  0.37197328  0.12529252  1
  V  V12  1  0.37370179  0.37397515  -0.00231091  1
  V  V13  1  0.49432156  0.38074905  0.87229945  1
  V  V14  1  0.00196809  0.49685524  0.00187613  1
  V  V15  1  0.75031794  0.62535000  0.37977940  1
  V  V16  1  -0.00152653  0.12460705  0.12321955  1
  V  V17  1  0.37298033  0.62605927  0.25334487  1
  V  V18  1  0.24835570  0.11700070  0.86944927  1
  V  V19  1  -0.00039792  0.24988302  0.25165652  1
  V  V20  1  0.37377699  0.49345399  0.37748158  1
  V  V21  1  0.75542907  0.87619290  0.62308093  1
  V  V22  1  0.75045081  0.75219148  0.50035012  1
  V  V23  1  0.25366675  0.75116813  0.50944785  1
  V  V24  1  0.50386011  -0.01181489  -0.00580709  1
  V  V25  1  0.12253545  0.49868644  0.12686441  1
  V  V26  1  0.62887930  0.38177161  0.74578632  1
  V  V27  1  0.62574630  -0.00234254  0.12350450  1
  V  V28  1  0.26106938  0.49407858  0.75546663  1
  V  V29  1  0.75367205  0.85912019  0.12033063  1
  V  V30  1  0.00493398  0.76372510  0.75041960  1
  V  V31  1  0.12866918  -0.00158778  0.62981893  1
  V  V32  1  -0.00645996  0.62426718  0.12461477  1
  V  V33  1  0.00217046  0.62760870  0.62922303  1
  V  V34  1  0.24471499  0.12087004  0.38262505  1
  V  V35  1  0.49307114  0.75572464  0.25538366  1
  V  V36  1  0.37750868  0.63773396  0.74828329  1
  V  V37  1  -0.01229698  0.49687020  0.49807290  1
  V  V38  1  -0.00341831  0.75053377  0.24733463  1
  V  V39  1  0.87121096  0.62828377  0.25135622  1
  V  V40  1  0.62310316  0.12472359  -0.00116582  1
  V  V41  1  0.38225087  -0.00517391  0.87084711  1
  V  V42  1  0.61731263  0.86136897  0.76100028  1
  V  V43  1  0.61970584  0.74896837  0.38229569  1
  V  V44  1  0.12389016  0.75082948  0.37793649  1
  V  V45  1  0.51439690  0.37236103  0.36865975  1
  V  V46  1  0.75902860  0.63806391  0.88757475  1
  V  V47  1  0.24760217  0.49845121  0.25359473  1
  V  V48  1  0.37722718  0.87192857  0.50392389  1
  V  V49  1  0.75167541  0.12777101  0.87268405  1
  V  V50  1  0.50735008  0.50496451  0.50100272  1
  V  V51  1  0.87625594  0.86066623  -0.00147362  1
  V  V52  1  0.74457831  0.50190945  0.25100673  1
  V  V53  1  0.50071075  0.62622613  0.13080212  1
  V  V54  1  0.00565815  0.13010392  0.61359731  1
  V  V55  1  0.74873218  0.25368981  -0.00058597  1
  V  V56  1  0.88478045  0.13307853  0.74886041  1
  V  V57  1  0.12181221  0.24569383  0.38731884  1
  V  V58  1  0.49369525  0.49967599  -0.00229977  1
  V  V59  1  0.74605230  0.13240072  0.37374060  1
  V  V60  1  0.87911205  0.75498779  0.61951507  1
  V  V61  1  0.24964128  0.62431017  0.37965757  1
  V  V62  1  0.37263330  0.12120752  0.74733632  1
  V  V63  1  0.87272987  -0.00627825  0.38745922  1
  V  V64  1  0.62427409  0.13154144  0.49582538  1
  V  V65  1  0.87624062  0.49728163  0.87420246  1
  V  V66  1  0.12626390  0.62327848  0.50353541  1
  V  V67  1  0.12562844  0.87690788  0.25309218  1
  V  V68  1  0.62656163  -0.00142937  0.62416213  1
  V  V69  1  0.00544258  0.37322573  0.86099509  1
  V  V70  1  0.25002016  0.87941238  0.63789615  1
  V  V71  1  0.50058850  0.63909029  0.62377407  1
  V  V72  1  0.12610423  0.49571660  0.63343181  1
  V  V73  1  0.87376235  0.25044537  0.12485545  1
  V  V74  1  0.51019638  0.25123708  0.25015582  1
  V  V75  1  0.62150135  0.87398961  0.25462447  1
  V  V76  1  0.62443068  0.25359019  0.87338051  1
  V  V77  1  0.75158889  0.50225839  0.74477061  1
  V  V78  1  0.12336495  0.25287544  0.86057847  1
  V  V79  1  0.13483212  0.62967819  0.00062851  1
  V  V80  1  0.13452762  0.75625061  0.87472089  1
  V  V81  1  0.62195575  0.49865601  0.12337030  1
  V  V82  1  0.60201801  0.64326870  -0.03065197  1
  V  V83  1  0.75342573  -0.00176240  0.24751783  1
  V  V84  1  0.50140708  0.12419644  0.62339189  1
  Zn  Zn85  1  0.49864261  0.12174967  0.12608465  1
  Zn  Zn86  1  0.37408838  0.24911675  0.62125594  1
  Zn  Zn87  1  0.37564456  0.12313035  0.25335238  1
  Zn  Zn88  1  -0.01864853  0.36738646  0.39232803  1
  Zn  Zn89  1  0.37124788  0.86772113  -0.00266023  1
  Zn  Zn90  1  -0.00453818  -0.00116265  -0.00093177  1
  Zn  Zn91  1  0.25166698  0.24714061  0.50199061  1
  Zn  Zn92  1  0.38045607  0.37016925  0.50152324  1
  Zn  Zn93  1  0.36348122  0.74375404  0.10527602  1
  Zn  Zn94  1  0.25106703  -0.00029545  0.25315078  1
  Zn  Zn95  1  0.87605694  0.62940499  0.75151739  1
  Zn  Zn96  1  0.87825513  -0.00007737  0.87817651  1
  Zn  Zn97  1  0.25719930  0.62237971  0.87840635  1
  Zn  Zn98  1  -0.00802891  0.86863853  0.38350041  1
  Zn  Zn99  1  0.87653501  0.37694261  0.00141791  1
  Zn  Zn100  1  0.75566702  0.26521453  0.49346725  1
  Zn  Zn101  1  0.12129263  0.12424185  -0.00290957  1
  Zn  Zn102  1  0.87389521  0.12166016  0.25028370  1
  Zn  Zn103  1  0.24890434  0.86144298  0.11789611  1
  Zn  Zn104  1  0.00544169  -0.00724875  0.50174979  1
  Zn  Zn105  1  0.63123364  0.50693576  0.61908154  1
  Zn  Zn106  1  0.00467035  0.87951146  0.87525212  1
  Zn  Zn107  1  0.18803256  0.18198427  0.19367880  1
  Zn  Zn108  1  0.18682720  0.18478862  0.68564942  1
  Zn  Zn109  1  0.18508638  0.68810886  0.18880337  1
  Zn  Zn110  1  0.19062342  0.68760525  0.69164577  1
  Zn  Zn111  1  0.68734135  0.18506352  0.18592006  1
  Zn  Zn112  1  0.68912128  0.18936658  0.68495966  1
  Zn  Zn113  1  0.68008177  0.68632498  0.18876766  1
  Zn  Zn114  1  0.68812352  0.68363622  0.69095314  1
  Zn  Zn115  1  0.31203962  0.30681838  0.31457022  1
  Zn  Zn116  1  0.31277758  0.31009400  0.80949961  1
  Zn  Zn117  1  0.30885270  0.81540560  0.31634256  1
  Zn  Zn118  1  0.31638769  0.80960447  0.81653316  1
  Zn  Zn119  1  0.80852181  0.31431036  0.30907576  1
  Zn  Zn120  1  0.81466122  0.31553645  0.80910214  1
  Zn  Zn121  1  0.81087368  0.81142107  0.31009570  1
  Zn  Zn122  1  0.81463149  0.81387123  0.80900484  1
  Zn  Zn123  1  0.18110136  0.43452206  0.44289231  1
  Zn  Zn124  1  0.18705219  0.43609068  0.93652752  1
  Zn  Zn125  1  0.18418169  0.93856523  0.44398813  1
  Zn  Zn126  1  0.18633880  0.93967865  0.93898917  1
  Zn  Zn127  1  0.69247548  0.44131382  0.43273134  1
  Zn  Zn128  1  0.68372041  0.44537394  0.93686393  1
  Zn  Zn129  1  0.68968507  0.93629314  0.43665249  1
  Zn  Zn130  1  0.69341340  0.93415270  0.93596504  1
  Zn  Zn131  1  0.29886719  0.03457820  0.04716488  1
  Zn  Zn132  1  0.31262052  0.05996285  0.56110405  1
  Zn  Zn133  1  0.31402459  0.56177160  0.06699109  1
  Zn  Zn134  1  0.31787163  0.55974362  0.56602418  1
  Zn  Zn135  1  0.81283727  0.05857376  0.05969821  1
  Zn  Zn136  1  0.81083460  0.07057610  0.56346579  1
  Zn  Zn137  1  0.81409088  0.56575136  0.06131683  1
  Zn  Zn138  1  0.81307374  0.56962688  0.56371662  1
  Zn  Zn139  1  0.43428691  0.43398930  0.18812011  1
  Zn  Zn140  1  0.43759485  0.43736148  0.68325925  1
  Zn  Zn141  1  0.43445175  0.93387552  0.18147954  1
  Zn  Zn142  1  0.43920137  0.93493112  0.68497594  1
  Zn  Zn143  1  0.91806572  0.42375909  0.22247708  1
  Zn  Zn144  1  0.93754794  0.44025828  0.68658430  1
  Zn  Zn145  1  0.93586822  0.93406987  0.18594086  1
  Zn  Zn146  1  0.93742944  0.94435810  0.68599738  1
  Zn  Zn147  1  0.05830556  0.06357434  0.31414260  1
  Zn  Zn148  1  0.06258012  0.06041505  0.81134133  1
  Zn  Zn149  1  0.06016935  0.56228459  0.31584259  1
  Zn  Zn150  1  0.06613076  0.56612710  0.81285553  1
  Zn  Zn151  1  0.56113899  0.06284047  0.31121791  1
  Zn  Zn152  1  0.56489899  0.06113018  0.81059620  1
  Zn  Zn153  1  0.56535512  0.56409470  0.31508524  1
  Zn  Zn154  1  0.56039499  0.57519223  0.81282172  1
  Zn  Zn155  1  0.43695748  0.18703444  0.43720617  1
  Zn  Zn156  1  0.43708036  0.18575918  0.93459957  1
  Zn  Zn157  1  0.43635349  0.68671720  0.43999926  1
  Zn  Zn158  1  0.43467404  0.68743507  0.92726898  1
  Zn  Zn159  1  0.93150851  0.18402717  0.43740472  1
  Zn  Zn160  1  0.93867949  0.19033836  0.93724361  1
  Zn  Zn161  1  0.93558936  0.68532387  0.43867677  1
  Zn  Zn162  1  0.94496925  0.68821774  0.93677138  1
  Zn  Zn163  1  0.06359135  0.31254080  0.06115232  1
  Zn  Zn164  1  0.06002276  0.31482732  0.57116647  1
  Zn  Zn165  1  0.06331621  0.81127390  0.06344131  1
  Zn  Zn166  1  0.06685551  0.81937562  0.56140965  1
  Zn  Zn167  1  0.56070477  0.31243623  0.06428763  1
  Zn  Zn168  1  0.59897119  0.33785944  0.54052893  1
  Zn  Zn169  1  0.55960997  0.81010939  0.06701490  1
  Zn  Zn170  1  0.56706045  0.81607379  0.56539019  1
  O  O171  1  0.11324795  0.12197667  0.12616042  1
  O  O172  1  0.11042895  0.12395557  0.62506645  1
  O  O173  1  0.11510343  0.61724501  0.12046475  1
  O  O174  1  0.11944707  0.62159067  0.62168559  1
  O  O175  1  0.62561480  0.11642525  0.11442473  1
  O  O176  1  0.62161218  0.11724837  0.61794835  1
  O  O177  1  0.61112164  0.61656116  0.12614539  1
  O  O178  1  0.60684641  0.62241571  0.63280954  1
  O  O179  1  0.37771247  0.38559126  0.37435978  1
  O  O180  1  0.38664045  0.36713294  0.88076051  1
  O  O181  1  0.36834744  0.88739356  0.38767420  1
  O  O182  1  0.37072431  0.89184473  0.87367845  1
  O  O183  1  0.89045190  0.38554093  0.33082052  1
  O  O184  1  0.88662275  0.37984155  0.87746849  1
  O  O185  1  0.87170022  0.88997963  0.36914624  1
  O  O186  1  0.87371536  0.87486531  0.88853618  1
  O  O187  1  0.25522175  0.00438163  0.37565670  1
  O  O188  1  0.25613267  0.01345314  0.87382034  1
  O  O189  1  0.25472203  0.50180662  0.37379202  1
  O  O190  1  0.24318588  0.50021074  0.85822525  1
  O  O191  1  0.75738643  0.00405900  0.36726537  1
  O  O192  1  0.75366439  0.00915256  0.86639212  1
  O  O193  1  0.74406877  0.51191922  0.36391422  1
  O  O194  1  0.76836994  0.49746833  0.87251467  1
  O  O195  1  0.24404710  0.49325859  0.13467457  1
  O  O196  1  0.24480776  0.49262599  0.63205218  1
  O  O197  1  0.22944746  1.01505015  0.13757832  1
  O  O198  1  0.24491696  0.98838513  0.62345782  1
  O  O199  1  0.74093103  0.49704886  0.12550538  1
  O  O200  1  0.74952898  0.51049514  0.63935820  1
  O  O201  1  0.74396171  0.99372687  0.13256469  1
  O  O202  1  0.74842026  0.99414249  0.62940732  1
  O  O203  1  0.01802456  0.36568583  0.23564069  1
  O  O204  1  0.00359776  0.38261900  0.76201892  1
  O  O205  1  0.00611179  0.86528957  0.25239877  1
  O  O206  1  -0.00218973  0.86656176  0.74919507  1
  O  O207  1  0.49392734  0.36921180  0.26147817  1
  O  O208  1  0.50216478  0.37020885  0.75716213  1
  O  O209  1  0.50966616  0.86675060  0.24568295  1
  O  O210  1  0.51870847  0.87897605  0.74343457  1
  O  O211  1  0.49650632  0.13424425  0.24754883  1
  O  O212  1  0.49792697  0.13300796  0.74403596  1
  O  O213  1  0.49393533  0.63078082  0.24832899  1
  O  O214  1  0.48613224  0.61579512  0.73402088  1
  O  O215  1  0.99627181  0.13286916  0.23958037  1
  O  O216  1  0.98688630  0.12318591  0.74207725  1
  O  O217  1  0.99184702  0.62678763  0.24507346  1
  O  O218  1  1.00049146  0.63246707  0.73973195  1
  O  O219  1  0.36480085  0.25232230  0.00421961  1
  O  O220  1  0.37275425  0.25311343  0.50262409  1
  O  O221  1  0.37948990  0.75400983  -0.00905935  1
  O  O222  1  0.36530937  0.75920899  0.49384814  1
  O  O223  1  0.86830998  0.25346237  0.00945042  1
  O  O224  1  0.87335083  0.25188050  0.51048169  1
  O  O225  1  0.87880051  0.76082619  -0.00016603  1
  O  O226  1  0.86957276  0.74858467  0.51228439  1
  O  O227  1  0.12225729  0.25631252  0.48941554  1
  O  O228  1  0.13733364  0.24760690  0.99660740  1
  O  O229  1  0.13276312  0.74269160  0.49674541  1
  O  O230  1  0.11726399  0.74020046  0.98788209  1
  O  O231  1  0.61464111  0.23130648  0.49915549  1
  O  O232  1  0.62945671  0.24425968  0.99578778  1
  O  O233  1  0.63199280  0.75586167  0.48930221  1
  O  O234  1  0.62149712  0.73345933  1.00750128  1
  O  O235  1  0.49054456  0.24898870  0.13080475  1
  O  O236  1  0.50268570  0.24583599  0.63790218  1
  O  O237  1  0.49782085  0.74009026  0.13854279  1
  O  O238  1  0.49998418  0.73753554  0.61616942  1
  O  O239  1  0.99186832  0.24504930  0.12726633  1
  O  O240  1  0.99063698  0.23694194  0.62172512  1
  O  O241  1  1.00906409  0.73911694  0.13968927  1
  O  O242  1  0.99799400  0.74662453  0.62980987  1
  O  O243  1  0.00330386  0.24888643  0.37042042  1
  O  O244  1  0.01503714  0.25772289  0.88067674  1
  O  O245  1  0.00422835  0.74577721  0.36476221  1
  O  O246  1  0.00910689  0.75321362  0.86536376  1
  O  O247  1  0.49643284  0.26480337  0.36704089  1
  O  O248  1  0.50606096  0.25581491  0.86474196  1
  O  O249  1  0.50923532  0.74413640  0.36985955  1
  O  O250  1  0.53754939  0.67172798  0.88556936  1
  O  O251  1  0.25298477  0.12610262  0.48808826  1
  O  O252  1  0.24840663  0.13017432  0.98910259  1
  O  O253  1  0.24830869  0.63084539  0.49947453  1
  O  O254  1  0.23806927  0.61391847  0.99891330  1
  O  O255  1  0.74085111  0.12771778  0.49059973  1
  O  O256  1  0.74086164  0.13053338  0.99426226  1
  O  O257  1  0.75252750  0.63872745  0.49332460  1
  O  O258  1  0.74809498  0.62633406  0.99016026  1
  O  O259  1  0.25461290  0.36714727  0.00400535  1
  O  O260  1  0.25140854  0.37504611  0.51217412  1
  O  O261  1  0.26494379  0.91809088  0.01544099  1
  O  O262  1  0.25663622  0.86729039  0.50762142  1
  O  O263  1  0.74950281  0.37399024  0.00966953  1
  O  O264  1  0.70746150  0.36514586  0.50876073  1
  O  O265  1  0.75774647  0.87493024  0.01267807  1
  O  O266  1  0.74718599  0.86317380  0.50851903  1
  O  O267  1  0.12808274  0.49194641  0.24897534  1
  O  O268  1  0.13718516  0.51007573  0.73834516  1
  O  O269  1  0.11973165  0.98993816  0.24752125  1
  O  O270  1  0.12522228  1.01029979  0.73132813  1
  O  O271  1  0.63549882  0.50880678  0.23877373  1
  O  O272  1  0.63489205  0.49688263  0.75515491  1
  O  O273  1  0.63260570  0.99131356  0.24667959  1
  O  O274  1  0.63838849  1.00107064  0.74274326  1
  O  O275  1  0.37561354  -0.00145256  0.25967856  1
  O  O276  1  0.38637302  0.01352514  0.75530873  1
  O  O277  1  0.36715613  0.50427257  0.25695316  1
  O  O278  1  0.36290503  0.50255206  0.74540957  1
  O  O279  1  0.86253327  -0.00058912  0.25199043  1
  O  O280  1  0.86491003  0.01300880  0.74973633  1
  O  O281  1  0.85645293  0.51960669  0.23725314  1
  O  O282  1  0.87057770  0.50335597  0.75737971  1
  O  O283  1  0.11801620  0.36759431  0.36858579  1
  O  O284  1  0.12074409  0.36111119  0.87853716  1
  O  O285  1  0.12221519  0.86836798  0.36927410  1
  O  O286  1  0.12545806  0.86091027  0.88271241  1
  O  O287  1  0.61173497  0.38287376  0.36397595  1
  O  O288  1  0.61436630  0.37244965  0.86941779  1
  O  O289  1  0.63329718  0.86645519  0.36141006  1
  O  O290  1  0.63072139  0.87849869  0.86011929  1
  O  O291  1  0.37308483  0.13520635  0.12297322  1
  O  O292  1  0.38230090  0.12478862  0.63101680  1
  O  O293  1  0.38401302  0.62488053  0.13580196  1
  O  O294  1  0.38679212  0.62173607  0.63333981  1
  O  O295  1  0.87881414  0.13255077  0.12476387  1
  O  O296  1  0.88388288  0.13060081  0.63259056  1
  O  O297  1  0.88799274  0.62590858  0.12807378  1
  O  O298  1  0.88565252  0.63637759  0.62781790  1
  O  O299  1  0.25384426  0.25116184  0.11846914  1
  O  O300  1  0.24854286  0.25936203  0.62425499  1
  O  O301  1  0.24916256  0.74669140  0.12226236  1
  O  O302  1  0.24404362  0.76050283  0.61598250  1
  O  O303  1  0.75350886  0.25812469  0.12063252  1
  O  O304  1  0.76626324  0.24295464  0.61981390  1
  O  O305  1  0.74586706  0.76139012  0.13036936  1
  O  O306  1  0.75781089  0.75452460  0.62032311  1
  O  O307  1  0.23938145  0.24266386  0.37835541  1
  O  O308  1  0.24137829  0.24482864  0.87996996  1
  O  O309  1  0.24341718  0.74438291  0.38610445  1
  O  O310  1  0.23780650  0.74451470  0.87167027  1
  O  O311  1  0.75453457  0.23763720  0.37330287  1
  O  O312  1  0.74508425  0.24889466  0.88063641  1
  O  O313  1  0.74494240  0.74717390  0.38275290  1
  O  O314  1  0.75723185  0.73606828  0.87309291  1
  O  O315  1  -0.00086606  0.12641310  0.01266592  1
  O  O316  1  -0.00690865  0.11818141  0.51226766  1
  O  O317  1  0.00771193  0.61570745  0.00657798  1
  O  O318  1  0.00466162  0.61984673  0.51184595  1
  O  O319  1  0.51422624  0.12394384  -0.00101184  1
  O  O320  1  0.50486088  0.11455624  0.50388098  1
  O  O321  1  0.49654580  0.61439707  0.01576183  1
  O  O322  1  0.49255076  0.61464830  0.51054917  1
  O  O323  1  0.50390502  0.38578521  0.48542784  1
  O  O324  1  0.49560938  0.38010301  0.99269727  1
  O  O325  1  0.49182702  0.88299160  0.50705171  1
  O  O326  1  0.50329029  0.88598627  1.00049853  1
  O  O327  1  1.00159346  0.39165432  0.50500718  1
  O  O328  1  1.00220866  0.38737148  0.99498377  1
  O  O329  1  0.99971587  0.87808134  0.49644439  1
  O  O330  1  0.98581241  0.87458739  1.00379128  1
  O  O331  1  0.49349114  0.49528671  0.37948977  1
  O  O332  1  0.50322167  0.49100882  0.88470488  1
  O  O333  1  0.49375426  1.00128984  0.38564734  1
  O  O334  1  0.49455311  1.00612605  0.88142242  1
  O  O335  1  1.00446105  0.50323602  0.39621026  1
  O  O336  1  0.99505909  0.49641277  0.88024226  1
  O  O337  1  0.98133505  1.00256616  0.37579133  1
  O  O338  1  0.99736435  0.99672915  0.87779914  1
  O  O339  1  0.00600290  0.00873768  0.12847605  1
  O  O340  1  0.00565235  0.01236906  0.62418324  1
  O  O341  1  0.00525809  0.50570182  0.11780354  1
  O  O342  1  0.00730017  0.50891026  0.62214408  1
  O  O343  1  0.50786888  0.00204396  0.11455731  1
  O  O344  1  0.50699794  0.00491294  0.61501373  1
  O  O345  1  0.50450409  0.50225804  0.12236325  1
  O  O346  1  0.50017655  0.50053101  0.60843867  1
  O  O347  1  0.23944767  0.37604038  0.24724292  1
  O  O348  1  0.25507805  0.38654889  0.74235873  1
  O  O349  1  0.23514926  0.87617194  0.24952709  1
  O  O350  1  0.25943661  0.87017307  0.73547940  1
  O  O351  1  0.74709601  0.38628784  0.23479687  1
  O  O352  1  0.74047410  0.38730483  0.75760489  1
  O  O353  1  0.74465010  0.87922844  0.23900995  1
  O  O354  1  0.74637504  0.88446462  0.74348838  1
  O  O355  1  0.25553888  0.12386764  0.26664490  1
  O  O356  1  0.26199951  0.13179019  0.75597899  1
  O  O357  1  0.25212222  0.61846339  0.26052663  1
  O  O358  1  0.26369761  0.61411551  0.74420409  1
  O  O359  1  0.74817014  0.11484773  0.25547831  1
  O  O360  1  0.75743992  0.11998693  0.75300349  1
  O  O361  1  0.75403021  0.62451115  0.25472413  1
  O  O362  1  0.75639986  0.61767614  0.76173390  1
  O  O363  1  0.36933576  0.11080433  0.37682919  1
  O  O364  1  0.36812123  0.12056291  0.86618922  1
  O  O365  1  0.36994710  0.61233372  0.37243828  1
  O  O366  1  0.37279680  0.62053647  0.85393277  1
  O  O367  1  0.86389732  0.11328810  0.37175242  1
  O  O368  1  0.87146680  0.12948857  0.86335250  1
  O  O369  1  0.86108952  0.62989054  0.36639431  1
  O  O370  1  0.87177285  0.61723637  0.87637992  1
  O  O371  1  0.13304212  0.37922387  0.12985996  1
  O  O372  1  0.13323191  0.38480618  0.62587975  1
  O  O373  1  0.12458513  0.88371560  0.13295857  1
  O  O374  1  0.14005956  0.88301610  0.62804067  1
  O  O375  1  0.62917078  0.39029369  0.11727030  1
  O  O376  1  0.61323406  0.38662325  0.64444455  1
  O  O377  1  0.63465637  0.87765510  0.13203113  1
  O  O378  1  0.63868301  0.88082203  0.63235734  1
  O  O379  1  0.12063216  0.25535346  0.25963283  1
  O  O380  1  0.12728170  0.25023624  0.76234558  1
  O  O381  1  0.11683698  0.75477526  0.25923489  1
  O  O382  1  0.11918732  0.74439810  0.76474401  1
  O  O383  1  0.60998080  0.24972148  0.23976685  1
  O  O384  1  0.62120298  0.25891102  0.75380727  1
  O  O385  1  0.61435531  0.75592841  0.25816718  1
  O  O386  1  0.62997770  0.76256889  0.74882909  1
  O  O387  1  0.38164976  0.24875169  0.24106277  1
  O  O388  1  0.38484557  0.23942600  0.74856405  1
  O  O389  1  0.38457361  0.74494007  0.26203865  1
  O  O390  1  0.37578141  0.73734695  0.74932027  1
  O  O391  1  0.87737571  0.24437242  0.23600918  1
  O  O392  1  0.86916959  0.23769118  0.74085218  1
  O  O393  1  0.88194914  0.74010410  0.25122449  1
  O  O394  1  0.88503328  0.75041701  0.73853685  1
  O  O395  1  0.38521636  0.49596819  0.49161712  1
  O  O396  1  0.38583166  0.49152349  1.00767504  1
  O  O397  1  0.38412576  0.99266723  0.49488961  1
  O  O398  1  0.39353079  1.01084249  0.98636136  1
  O  O399  1  0.88870290  0.50422548  0.50741079  1
  O  O400  1  0.88518063  0.49877157  0.99363764  1
  O  O401  1  0.86791343  1.00094684  0.48823997  1
  O  O402  1  0.87584191  0.98765929  0.99834914  1
  O  O403  1  0.11657978  0.00486704  0.01080422  1
  O  O404  1  0.12371033  -0.00024335  0.51852178  1
  O  O405  1  0.11901334  0.50544866  0.00462419  1
  O  O406  1  0.12078734  0.50792339  0.51364034  1
  O  O407  1  0.62218869  0.00655896  0.00048028  1
  O  O408  1  0.61926777  0.00206844  0.50393421  1
  O  O409  1  0.61118497  0.51289106  0.00487524  1
  O  O410  1  0.61020637  0.50718573  0.49600076  1
  O  O411  1  0.36799523  0.36329983  0.11905436  1
  O  O412  1  0.36545403  0.37173935  0.62260272  1
  O  O413  1  0.37137822  0.86431023  0.12125470  1
  O  O414  1  0.36389260  0.88158675  0.61357568  1
  O  O415  1  0.86598234  0.36758324  0.12581934  1
  O  O416  1  0.88020577  0.35753507  0.63328387  1
  O  O417  1  0.86147605  0.87460915  0.11710066  1
  O  O418  1  0.86348703  0.87068700  0.63078076  1
  O  O419  1  0.13048890  0.13305763  0.37229075  1
  O  O420  1  0.13096376  0.13556710  0.87424647  1
  O  O421  1  0.13088199  0.62949479  0.38286084  1
  O  O422  1  0.12769119  0.63339660  0.88508750  1
  O  O423  1  0.63581697  0.11434010  0.38264269  1
  O  O424  1  0.63195871  0.13323293  0.87901925  1
  O  O425  1  0.63807373  0.63768893  0.36939075  1
  O  O426  1  0.65760729  0.60163458  0.87898560  1
