# generated using pymatgen
data_V85Zn86O256
_symmetry_space_group_name_H-M   'P 1'
_cell_length_a   16.94957463
_cell_length_b   16.93871545
_cell_length_c   16.94742481
_cell_angle_alpha   90.02551852
_cell_angle_beta   89.99267591
_cell_angle_gamma   89.98838706
_symmetry_Int_Tables_number   1
_chemical_formula_structural   V85Zn86O256
_chemical_formula_sum   'V85 Zn86 O256'
_cell_volume   4865.67319748
_cell_formula_units_Z   1
loop_
 _symmetry_equiv_pos_site_id
 _symmetry_equiv_pos_as_xyz
  1  'x, y, z'
loop_
 _atom_site_type_symbol
 _atom_site_label
 _atom_site_symmetry_multiplicity
 _atom_site_fract_x
 _atom_site_fract_y
 _atom_site_fract_z
 _atom_site_occupancy
  V  V0  1  0.87055100  0.61479915  0.24814648  1
  V  V1  1  0.62534430  0.00517024  0.12243776  1
  V  V2  1  0.24494560  0.12912601  0.36210578  1
  V  V3  1  0.62770455  0.38854547  0.24888446  1
  V  V4  1  0.74687823  0.62149415  0.86415245  1
  V  V5  1  0.87641747  0.12365992  0.25008199  1
  V  V6  1  0.37083991  0.75454835  0.13007244  1
  V  V7  1  -0.00229918  0.25675728  0.76152880  1
  V  V8  1  0.50578258  0.00336193  -0.00589886  1
  V  V9  1  0.38115766  0.87707565  0.00224337  1
  V  V10  1  0.74644638  0.24863983  0.00237175  1
  V  V11  1  0.50454037  0.62258670  0.12705945  1
  V  V12  1  0.49843952  0.37416080  0.37518885  1
  V  V13  1  0.24445767  0.24323856  0.51153845  1
  V  V14  1  0.26785791  0.61900329  0.87158787  1
  V  V15  1  0.37476559  0.74725966  0.63384849  1
  V  V16  1  0.12332635  0.12306740  -0.00330299  1
  V  V17  1  0.12698548  0.61846540  0.51318823  1
  V  V18  1  -0.00022521  0.11538847  0.11863025  1
  V  V19  1  -0.00637877  0.74928182  0.74832607  1
  V  V20  1  0.36927048  0.36657983  0.51328196  1
  V  V21  1  0.63420252  0.75290672  0.38231331  1
  V  V22  1  0.37371728  0.87775388  0.49997122  1
  V  V23  1  0.49539067  0.13138177  0.62582017  1
  V  V24  1  -0.00422250  0.50352213  -0.00643301  1
  V  V25  1  0.75013411  0.24755559  0.50137865  1
  V  V26  1  0.49991993  0.38195557  0.87758273  1
  V  V27  1  0.62352321  0.24595889  0.87980938  1
  V  V28  1  0.87266966  0.24932944  0.12395699  1
  V  V29  1  0.12840675  0.49180793  0.11768930  1
  V  V30  1  0.87694067  0.74772039  0.12580308  1
  V  V31  1  0.75168301  0.12318812  0.37498781  1
  V  V32  1  0.75050212  -0.00043588  0.24898394  1
  V  V33  1  0.25074805  0.74631852  0.50160815  1
  V  V34  1  0.62370507  0.12629216  0.50268913  1
  V  V35  1  0.62669506  0.62386075  0.00183063  1
  V  V36  1  0.49807878  0.12386315  0.12404762  1
  V  V37  1  0.00626019  0.49497634  0.50028303  1
  V  V38  1  0.37743198  -0.00482409  0.87367809  1
  V  V39  1  0.87455636  0.37604755  -0.00431208  1
  V  V40  1  0.74828493  0.61245809  0.37844781  1
  V  V41  1  0.87950177  -0.01675740  0.37592643  1
  V  V42  1  0.36998255  0.24858939  0.12723938  1
  V  V43  1  0.62352044  0.76357395  0.87157686  1
  V  V44  1  0.74379500  -0.01141919  0.75217254  1
  V  V45  1  0.24380676  0.62030844  0.37600910  1
  V  V46  1  0.12826635  -0.00871012  0.12092977  1
  V  V47  1  0.24936085  0.13315156  0.87803288  1
  V  V48  1  0.00334680  0.24936209  0.24345951  1
  V  V49  1  0.25062053  0.75864780  0.00284225  1
  V  V50  1  0.88218904  0.87785925  -0.00157835  1
  V  V51  1  0.88520058  -0.00024360  0.87457993  1
  V  V52  1  0.37252058  0.49590541  0.37799560  1
  V  V53  1  0.74664399  0.12311603  0.87969306  1
  V  V54  1  0.87061331  0.75095785  0.60581336  1
  V  V55  1  0.49628755  0.00359220  0.50093845  1
  V  V56  1  0.12572119  0.75195708  0.87228799  1
  V  V57  1  0.37228039  0.37811008  0.00876389  1
  V  V58  1  0.87279133  0.24420013  0.62066042  1
  V  V59  1  0.49837314  0.25252150  0.75004900  1
  V  V60  1  0.37404200  0.62553749  0.25133243  1
  V  V61  1  0.62323285  -0.00852231  0.63082403  1
  V  V62  1  0.12787822  0.37423783  0.25009376  1
  V  V63  1  0.49899748  0.24451034  0.24954544  1
  V  V64  1  0.87158606  0.49751581  0.86327065  1
  V  V65  1  0.37021917  0.13158474  0.74908898  1
  V  V66  1  0.25244268  0.49525559  0.24087594  1
  V  V67  1  0.62453191  0.24999999  0.37414080  1
  V  V68  1  0.24882189  0.00187828  0.75019298  1
  V  V69  1  0.12495702  0.01472263  0.62051696  1
  V  V70  1  0.50232067  0.50223829  0.00052993  1
  V  V71  1  0.74577952  0.39061862  0.12818917  1
  V  V72  1  0.49914292  0.62132331  0.63366745  1
  V  V73  1  0.00961634  -0.00490606  0.48751683  1
  V  V74  1  0.74848761  0.87491875  0.12344492  1
  V  V75  1  0.24480364  0.87548903  0.62727958  1
  V  V76  1  0.49955458  0.75207366  0.25452185  1
  V  V77  1  0.12460744  0.62964773  0.00184255  1
  V  V78  1  0.74860136  0.75076408  -0.00271636  1
  V  V79  1  0.87304235  0.37638682  0.49532184  1
  V  V80  1  0.37631159  0.00851707  0.36875102  1
  V  V81  1  0.87222617  0.12005517  0.74304425  1
  V  V82  1  0.62980330  0.38465229  0.74888615  1
  V  V83  1  0.25606137  -0.00700976  0.24061442  1
  V  V84  1  0.50378391  0.76503254  0.75315833  1
  Zn  Zn85  1  0.15290743  0.29657003  0.84038452  1
  Zn  Zn86  1  -0.00153089  0.75337652  0.26260604  1
  Zn  Zn87  1  0.75027893  0.86587488  0.61432127  1
  Zn  Zn88  1  0.49905311  0.49962294  0.50446039  1
  Zn  Zn89  1  -0.00134533  0.62013463  0.62585910  1
  Zn  Zn90  1  -0.00171131  0.12220705  0.61676687  1
  Zn  Zn91  1  0.12223093  0.87705406  0.74932575  1
  Zn  Zn92  1  -0.00268389  0.37388814  0.36849356  1
  Zn  Zn93  1  0.00398058  0.87775296  0.87508789  1
  Zn  Zn94  1  0.87143705  0.61995209  0.74218163  1
  Zn  Zn95  1  0.11498317  0.75810876  0.37859991  1
  Zn  Zn96  1  0.63665663  0.50620469  0.62472390  1
  Zn  Zn97  1  0.12298557  0.87038434  0.25236496  1
  Zn  Zn98  1  0.75633522  0.38308557  0.63139149  1
  Zn  Zn99  1  0.23808708  0.47426220  0.73651082  1
  Zn  Zn100  1  0.00206956  0.62473367  0.13050964  1
  Zn  Zn101  1  0.24322481  0.26032749  0.00124249  1
  Zn  Zn102  1  0.49852350  0.87425197  0.37580369  1
  Zn  Zn103  1  0.62482477  0.62472939  0.50376334  1
  Zn  Zn104  1  0.87352006  0.49368474  0.36764136  1
  Zn  Zn105  1  0.12269515  0.24591219  0.37497842  1
  Zn  Zn106  1  0.62461839  0.87518447  0.25086080  1
  Zn  Zn107  1  0.18678762  0.18158212  0.18308142  1
  Zn  Zn108  1  0.17615766  0.29375052  0.67855320  1
  Zn  Zn109  1  0.18680108  0.68753813  0.18846439  1
  Zn  Zn110  1  0.19062673  0.68208533  0.69435449  1
  Zn  Zn111  1  0.68442920  0.18861893  0.18733397  1
  Zn  Zn112  1  0.68628016  0.18601917  0.69023163  1
  Zn  Zn113  1  0.68854882  0.68622727  0.19173452  1
  Zn  Zn114  1  0.68577939  0.69171345  0.68576703  1
  Zn  Zn115  1  0.31267606  0.31416326  0.30909745  1
  Zn  Zn116  1  0.33124962  0.34272303  0.79918908  1
  Zn  Zn117  1  0.28570752  0.82490052  0.32666798  1
  Zn  Zn118  1  0.31300510  0.81267087  0.81445115  1
  Zn  Zn119  1  0.81014072  0.31083607  0.30984763  1
  Zn  Zn120  1  0.81387199  0.30926031  0.81271098  1
  Zn  Zn121  1  0.81150688  0.80722544  0.30790007  1
  Zn  Zn122  1  0.81211453  0.81210260  0.81044830  1
  Zn  Zn123  1  0.18431261  0.43445429  0.56069081  1
  Zn  Zn124  1  0.16757383  0.45557406  0.90238437  1
  Zn  Zn125  1  0.18916100  0.94148611  0.43624916  1
  Zn  Zn126  1  0.19037524  0.93973587  0.93880284  1
  Zn  Zn127  1  0.68425785  0.43760120  0.44388198  1
  Zn  Zn128  1  0.68740441  0.43866492  0.93805059  1
  Zn  Zn129  1  0.68701479  0.93510889  0.44028745  1
  Zn  Zn130  1  0.69050595  0.93992163  0.94013759  1
  Zn  Zn131  1  0.31507521  0.06585594  0.06152990  1
  Zn  Zn132  1  0.30845287  0.06955005  0.56147572  1
  Zn  Zn133  1  0.31289258  0.56520970  0.05566971  1
  Zn  Zn134  1  0.31738032  0.56095919  0.56767435  1
  Zn  Zn135  1  0.81333071  0.06116856  0.05911099  1
  Zn  Zn136  1  0.80352543  0.03516172  0.55224702  1
  Zn  Zn137  1  0.81055737  0.56459116  0.05835399  1
  Zn  Zn138  1  0.81242312  0.56172518  0.56124191  1
  Zn  Zn139  1  0.44374275  0.43826014  0.18758991  1
  Zn  Zn140  1  0.42952967  0.44569668  0.69341645  1
  Zn  Zn141  1  0.43705356  0.93634848  0.18803086  1
  Zn  Zn142  1  0.43480149  0.94083303  0.68625529  1
  Zn  Zn143  1  0.94009272  0.43699964  0.17867724  1
  Zn  Zn144  1  0.94313173  0.43149066  0.68032503  1
  Zn  Zn145  1  0.93998403  0.93420105  0.18920192  1
  Zn  Zn146  1  0.94010842  0.93246443  0.68200757  1
  Zn  Zn147  1  0.06551588  0.05739503  0.30579063  1
  Zn  Zn148  1  0.06501544  0.07145128  0.80530612  1
  Zn  Zn149  1  0.05917305  0.56280942  0.31333011  1
  Zn  Zn150  1  0.06520232  0.56591649  0.80795024  1
  Zn  Zn151  1  0.56233534  0.06224124  0.31138616  1
  Zn  Zn152  1  0.56144223  0.06325615  0.81242668  1
  Zn  Zn153  1  0.56079975  0.56477467  0.31714689  1
  Zn  Zn154  1  0.55732115  0.56846349  0.81419265  1
  Zn  Zn155  1  0.43228416  0.18897857  0.43648124  1
  Zn  Zn156  1  0.43645708  0.18806278  0.93929812  1
  Zn  Zn157  1  0.43760362  0.68616764  0.44194280  1
  Zn  Zn158  1  0.44180338  0.69356598  0.93828738  1
  Zn  Zn159  1  0.94238680  0.17950495  0.43523958  1
  Zn  Zn160  1  0.93460500  0.18302361  0.93899123  1
  Zn  Zn161  1  0.93904538  0.68089545  0.43445108  1
  Zn  Zn162  1  0.93611841  0.68663304  0.93320896  1
  Zn  Zn163  1  0.07686964  0.32633705  0.02921029  1
  Zn  Zn164  1  0.05304521  0.30108152  0.55410789  1
  Zn  Zn165  1  0.05895829  0.81329819  0.06652890  1
  Zn  Zn166  1  0.05889813  0.80950061  0.55789430  1
  Zn  Zn167  1  0.56471774  0.31293105  0.06535998  1
  Zn  Zn168  1  0.55978274  0.31501120  0.56413038  1
  Zn  Zn169  1  0.56059024  0.81373840  0.06280914  1
  Zn  Zn170  1  0.55897467  0.81173299  0.56223905  1
  O  O171  1  0.11588737  0.11196663  0.12188805  1
  O  O172  1  0.12387686  0.11281836  0.62633010  1
  O  O173  1  0.12572824  0.61920207  0.11333440  1
  O  O174  1  0.12448729  0.62896005  0.61556050  1
  O  O175  1  0.61673526  0.11287105  0.12735202  1
  O  O176  1  0.61424654  0.12094569  0.62181067  1
  O  O177  1  0.61703727  0.63634254  0.11496432  1
  O  O178  1  0.61252283  0.62638239  0.62536558  1
  O  O179  1  0.37959290  0.38054744  0.37795383  1
  O  O180  1  0.39574375  0.36463426  0.89723278  1
  O  O181  1  0.37153499  0.88674950  0.38527348  1
  O  O182  1  0.37275048  0.88837225  0.88165129  1
  O  O183  1  0.87463631  0.37344998  0.38019988  1
  O  O184  1  0.86322160  0.38377859  0.88538391  1
  O  O185  1  0.86986899  0.88543260  0.36890833  1
  O  O186  1  0.87347189  0.88330318  0.88126495  1
  O  O187  1  0.25805898  0.01164745  0.36517821  1
  O  O188  1  0.25914509  0.00684110  0.86924543  1
  O  O189  1  0.26427569  0.50620442  0.36282287  1
  O  O190  1  0.26122428  0.52320483  0.90319120  1
  O  O191  1  0.76106326  0.00434308  0.36705791  1
  O  O192  1  0.75359050  0.00663412  0.86836893  1
  O  O193  1  0.74802700  0.50963222  0.37380175  1
  O  O194  1  0.75769450  0.51007106  0.88098533  1
  O  O195  1  0.24259490  0.50870909  0.13075916  1
  O  O196  1  0.24659694  0.50108471  0.62611346  1
  O  O197  1  0.24311402  1.01197136  0.13225885  1
  O  O198  1  0.24451417  0.99435014  0.62786489  1
  O  O199  1  0.74924859  0.48951910  0.12014142  1
  O  O200  1  0.74976723  0.49594160  0.62562686  1
  O  O201  1  0.74243649  0.99693523  0.12735952  1
  O  O202  1  0.73392557  1.01784814  0.64472747  1
  O  O203  1  0.00657603  0.36543706  0.24297989  1
  O  O204  1  -0.00880290  0.35583121  0.74964370  1
  O  O205  1  0.00922461  0.86597923  0.23827583  1
  O  O206  1  0.00362991  0.86507947  0.75341437  1
  O  O207  1  0.50890099  0.36781017  0.25591599  1
  O  O208  1  0.50791014  0.36873456  0.75946201  1
  O  O209  1  0.50074943  0.86253006  0.25259248  1
  O  O210  1  0.49904588  0.86398988  0.74416609  1
  O  O211  1  0.50490562  0.13455030  0.24105608  1
  O  O212  1  0.49144087  0.13231239  0.74568278  1
  O  O213  1  0.49685422  0.63453194  0.24525531  1
  O  O214  1  0.50043961  0.63730320  0.73925905  1
  O  O215  1  0.99602472  0.12824951  0.24061201  1
  O  O216  1  0.98201203  0.12781396  0.74581483  1
  O  O217  1  0.98719376  0.62816890  0.24871231  1
  O  O218  1  0.99878666  0.63263831  0.74635673  1
  O  O219  1  0.37934659  0.26004132  0.01130853  1
  O  O220  1  0.36329319  0.25978266  0.49426398  1
  O  O221  1  0.37300904  0.75927035  0.00728374  1
  O  O222  1  0.37238701  0.75934060  0.51224956  1
  O  O223  1  0.86821412  0.25789943  0.00359565  1
  O  O224  1  0.87129758  0.25155012  0.50349560  1
  O  O225  1  0.86692371  0.75554030  0.00315735  1
  O  O226  1  0.87542862  0.74770830  0.50785729  1
  O  O227  1  0.14085591  0.25064489  0.49092556  1
  O  O228  1  0.13217724  0.22630409  1.02148711  1
  O  O229  1  0.13489588  0.73955856  0.49890130  1
  O  O230  1  0.13275694  0.74883301  0.99853760  1
  O  O231  1  0.62910774  0.24579973  0.49534426  1
  O  O232  1  0.62999142  0.25485572  0.98781158  1
  O  O233  1  0.61872532  0.74856534  0.48569582  1
  O  O234  1  0.62608446  0.74339122  0.99277897  1
  O  O235  1  0.49951245  0.24042350  0.13059018  1
  O  O236  1  0.50484872  0.23940756  0.63511985  1
  O  O237  1  0.49275782  0.74302623  0.13235709  1
  O  O238  1  0.49472360  0.74604072  0.63509279  1
  O  O239  1  0.99088053  0.23807373  0.13319388  1
  O  O240  1  0.98311179  0.24048383  0.62850085  1
  O  O241  1  0.98364284  0.74433866  0.11906158  1
  O  O242  1  0.99054896  0.74698017  0.63083132  1
  O  O243  1  0.00262337  0.24624072  0.35689653  1
  O  O244  1  -0.01348051  0.24744900  0.86145361  1
  O  O245  1  0.00253769  0.75045915  0.37798979  1
  O  O246  1  0.00887630  0.75084614  0.86800373  1
  O  O247  1  0.50314574  0.25262412  0.36698752  1
  O  O248  1  0.50855173  0.25456513  0.87181663  1
  O  O249  1  0.50641581  0.75001772  0.36880799  1
  O  O250  1  0.50677411  0.74946109  0.86096986  1
  O  O251  1  0.25801531  0.13832527  0.48304139  1
  O  O252  1  0.24516745  0.12452557  0.99120962  1
  O  O253  1  0.24516960  0.62417202  0.49431728  1
  O  O254  1  0.24502865  0.64195366  0.99726977  1
  O  O255  1  0.74383337  0.12733673  0.49410797  1
  O  O256  1  0.75423941  0.13040204  0.98724667  1
  O  O257  1  0.74768510  0.62405006  0.48220269  1
  O  O258  1  0.74139744  0.63221648  0.99286654  1
  O  O259  1  0.27383910  0.37760122  0.00530380  1
  O  O260  1  0.26125355  0.35951978  0.50135495  1
  O  O261  1  0.26297149  0.86549374  -0.00383972  1
  O  O262  1  0.26037762  0.87139283  0.50901459  1
  O  O263  1  0.75435384  0.36985534  0.00828307  1
  O  O264  1  0.75742076  0.36393251  0.49917691  1
  O  O265  1  0.75801004  0.86962707  0.00580207  1
  O  O266  1  0.75970831  0.92819580  0.52103899  1
  O  O267  1  0.13159215  0.49482779  0.23924145  1
  O  O268  1  0.13955734  0.48775152  0.79538689  1
  O  O269  1  0.13761349  0.99519850  0.23990881  1
  O  O270  1  0.13190239  0.99853579  0.74092535  1
  O  O271  1  0.61839821  0.48773820  0.25425093  1
  O  O272  1  0.61849028  0.48637436  0.75354435  1
  O  O273  1  0.63086928  0.99694023  0.24220488  1
  O  O274  1  0.62992744  1.00245384  0.74423895  1
  O  O275  1  0.37195027  -0.00005317  0.25778074  1
  O  O276  1  0.37231305  0.00823761  0.75776872  1
  O  O277  1  0.36998464  0.50333642  0.25212975  1
  O  O278  1  0.34967156  0.45260183  0.76636706  1
  O  O279  1  0.87234042  0.00471753  0.25676611  1
  O  O280  1  0.86583952  0.00356434  0.75397955  1
  O  O281  1  0.87813919  0.51042094  0.24583414  1
  O  O282  1  0.88299650  0.49745874  0.76075484  1
  O  O283  1  0.12113962  0.36963314  0.35183496  1
  O  O284  1  0.12953041  0.35487563  0.93083779  1
  O  O285  1  0.17108136  0.86010713  0.36289993  1
  O  O286  1  0.12628802  0.86411586  0.87658935  1
  O  O287  1  0.61922525  0.36823057  0.36979950  1
  O  O288  1  0.61819174  0.36943678  0.86856782  1
  O  O289  1  0.62367717  0.86595206  0.37488928  1
  O  O290  1  0.63022183  0.86267286  0.88105825  1
  O  O291  1  0.39000299  0.13288156  0.12174474  1
  O  O292  1  0.38316149  0.11959026  0.63678695  1
  O  O293  1  0.38336499  0.63311371  0.13077537  1
  O  O294  1  0.38542468  0.63706148  0.62412414  1
  O  O295  1  0.88104915  0.12594900  0.12910903  1
  O  O296  1  0.86818095  0.12523555  0.63025068  1
  O  O297  1  0.87065119  0.63182782  0.13070563  1
  O  O298  1  0.87695678  0.63704978  0.62485573  1
  O  O299  1  0.26731839  0.24262360  0.12580548  1
  O  O300  1  0.24823635  0.23275088  0.60972719  1
  O  O301  1  0.26384771  0.74520553  0.11861279  1
  O  O302  1  0.25782587  0.75496649  0.62453927  1
  O  O303  1  0.75419919  0.24981579  0.11710694  1
  O  O304  1  0.75816732  0.24973270  0.62058115  1
  O  O305  1  0.75687274  0.75534018  0.11928678  1
  O  O306  1  0.76365190  0.75024676  0.62632965  1
  O  O307  1  0.25056228  0.23707632  0.36819247  1
  O  O308  1  0.25599825  0.23624806  0.88180321  1
  O  O309  1  0.26478932  0.73017735  0.38805280  1
  O  O310  1  0.24499325  0.74626147  0.88336220  1
  O  O311  1  0.74379754  0.24166344  0.37955701  1
  O  O312  1  0.74369146  0.24257003  0.88120446  1
  O  O313  1  0.73665066  0.74473001  0.37133188  1
  O  O314  1  0.74252603  0.74403853  0.87853915  1
  O  O315  1  0.00623576  0.12595163  0.00813206  1
  O  O316  1  0.00120792  0.10718857  0.50041800  1
  O  O317  1  0.00759655  0.62168716  0.00145516  1
  O  O318  1  0.01143729  0.61383672  0.49957996  1
  O  O319  1  0.49785261  0.11266735  0.00775457  1
  O  O320  1  0.50021242  0.12464829  0.50906632  1
  O  O321  1  0.50551527  0.62225792  0.00686522  1
  O  O322  1  0.49977387  0.62485636  0.51724670  1
  O  O323  1  0.48856188  0.37097186  0.49117485  1
  O  O324  1  0.50574043  0.38684001  0.99692786  1
  O  O325  1  0.48653022  0.88174841  0.50122438  1
  O  O326  1  0.48986015  0.88618743  1.00262690  1
  O  O327  1  0.98876729  0.37570572  0.49103677  1
  O  O328  1  0.98060521  0.38607301  1.00857248  1
  O  O329  1  1.00534823  0.89456842  0.50266095  1
  O  O330  1  0.98556175  0.87114094  0.99592384  1
  O  O331  1  0.48749542  0.49474183  0.37552850  1
  O  O332  1  0.50348174  0.49415828  0.88629595  1
  O  O333  1  0.49292720  0.99847609  0.38067544  1
  O  O334  1  0.49217962  1.00584068  0.88372937  1
  O  O335  1  0.99534235  0.49591170  0.38420858  1
  O  O336  1  0.98778569  0.50760776  0.88821503  1
  O  O337  1  0.99493134  0.99910896  0.37720643  1
  O  O338  1  0.98768140  1.00068037  0.86618488  1
  O  O339  1  0.00706403  0.00970932  0.12715347  1
  O  O340  1  0.00992521  0.00004798  0.61703859  1
  O  O341  1  0.00803204  0.50539961  0.11209928  1
  O  O342  1  -0.00733847  0.50130554  0.60636151  1
  O  O343  1  0.50628306  0.00584776  0.12025455  1
  O  O344  1  0.50505054  0.01068052  0.62286366  1
  O  O345  1  0.50157121  0.51606817  0.12156011  1
  O  O346  1  0.49655783  0.51297133  0.63055242  1
  O  O347  1  0.24486498  0.38690003  0.24667047  1
  O  O348  1  0.22485677  0.34923406  0.76482122  1
  O  O349  1  0.26045408  0.89115186  0.23615482  1
  O  O350  1  0.24977663  0.88246256  0.74284177  1
  O  O351  1  0.73990645  0.36925826  0.23981750  1
  O  O352  1  0.73230162  0.36637038  0.75191991  1
  O  O353  1  0.74894851  0.88103058  0.23946943  1
  O  O354  1  0.75093345  0.88673534  0.74446331  1
  O  O355  1  0.25314212  0.11767277  0.25774553  1
  O  O356  1  0.26370777  0.12021262  0.75859503  1
  O  O357  1  0.25548758  0.61525207  0.25675834  1
  O  O358  1  0.24850711  0.62164880  0.77026282  1
  O  O359  1  0.75503649  0.11879662  0.25316006  1
  O  O360  1  0.75786484  0.12276116  0.76237409  1
  O  O361  1  0.75737346  0.62840914  0.26263369  1
  O  O362  1  0.74856478  0.62859752  0.76153117  1
  O  O363  1  0.36841429  0.11425666  0.37522391  1
  O  O364  1  0.37053629  0.11676329  0.87089805  1
  O  O365  1  0.37265102  0.61496322  0.37055326  1
  O  O366  1  0.36647125  0.63507212  0.87837900  1
  O  O367  1  0.86926922  0.12008220  0.36428984  1
  O  O368  1  0.86671135  0.11576198  0.86873627  1
  O  O369  1  0.86155754  0.62054938  0.36747056  1
  O  O370  1  0.86340180  0.61584452  0.87397933  1
  O  O371  1  0.12170701  0.38852658  0.12469712  1
  O  O372  1  0.11606191  0.36648105  0.61803761  1
  O  O373  1  0.12696315  0.88871702  0.11693993  1
  O  O374  1  0.13819197  0.87560377  0.62344039  1
  O  O375  1  0.63426064  0.37047400  0.13619669  1
  O  O376  1  0.62191669  0.37472617  0.64149887  1
  O  O377  1  0.63000866  0.88518799  0.12503612  1
  O  O378  1  0.62486241  0.88848954  0.61971477  1
  O  O379  1  0.11847079  0.25683233  0.24006035  1
  O  O380  1  0.10154742  0.23643457  0.75397787  1
  O  O381  1  0.12435646  0.74977554  0.25497805  1
  O  O382  1  0.11807761  0.75061545  0.75859932  1
  O  O383  1  0.61558622  0.25475230  0.25615193  1
  O  O384  1  0.61533991  0.25500268  0.76003940  1
  O  O385  1  0.61633728  0.75196493  0.26107192  1
  O  O386  1  0.61281441  0.75164480  0.75623220  1
  O  O387  1  0.39025586  0.25841090  0.24130259  1
  O  O388  1  0.39020792  0.24536703  0.75860401  1
  O  O389  1  0.38057713  0.74546176  0.24497123  1
  O  O390  1  0.38512365  0.75739506  0.74089597  1
  O  O391  1  0.88034284  0.24258964  0.24279810  1
  O  O392  1  0.87534611  0.24025464  0.74074336  1
  O  O393  1  0.87338424  0.73949543  0.23911318  1
  O  O394  1  0.88703594  0.74423627  0.75566434  1
  O  O395  1  0.37544981  0.48536779  0.49250477  1
  O  O396  1  0.39097912  0.48888776  1.01214309  1
  O  O397  1  0.37740623  0.99610991  0.49503324  1
  O  O398  1  0.38131884  0.99452709  0.99417999  1
  O  O399  1  0.87857438  0.48644601  0.49430187  1
  O  O400  1  0.87885145  0.49511175  0.99420539  1
  O  O401  1  0.89061303  1.00460337  0.47917069  1
  O  O402  1  0.86874094  0.99005740  0.98745679  1
  O  O403  1  0.13095838  0.01050524  0.00748144  1
  O  O404  1  0.11993225  0.00017608  0.50375249  1
  O  O405  1  0.11639205  0.51192266  0.00202556  1
  O  O406  1  0.11828165  0.50667861  0.49531125  1
  O  O407  1  0.61650584  -0.00327810  0.00792004  1
  O  O408  1  0.61178892  0.00970248  0.50698042  1
  O  O409  1  0.61693012  0.51450416  -0.00248124  1
  O  O410  1  0.61597757  0.50287314  0.50565991  1
  O  O411  1  0.39108663  0.36445607  0.11509545  1
  O  O412  1  0.38490407  0.37102366  0.61014327  1
  O  O413  1  0.38132730  0.86576400  0.11570633  1
  O  O414  1  0.36473204  0.87217377  0.62014375  1
  O  O415  1  0.86395813  0.36881414  0.11934427  1
  O  O416  1  0.87376965  0.36186442  0.61323857  1
  O  O417  1  0.86789831  0.86960107  0.11668364  1
  O  O418  1  0.87409507  0.85475353  0.62990097  1
  O  O419  1  0.14140108  0.12418265  0.36682244  1
  O  O420  1  0.13505701  0.11923366  0.88361658  1
  O  O421  1  0.13856425  0.62076494  0.38001440  1
  O  O422  1  0.13092559  0.63939721  0.88874357  1
  O  O423  1  0.62988677  0.12946529  0.38158834  1
  O  O424  1  0.63337149  0.13440312  0.87045953  1
  O  O425  1  0.63384262  0.63385715  0.37499053  1
  O  O426  1  0.62981010  0.63323069  0.88222110  1
