# generated using pymatgen
data_V85Zn86O256
_symmetry_space_group_name_H-M   'P 1'
_cell_length_a   16.95265150
_cell_length_b   16.94196276
_cell_length_c   16.94213195
_cell_angle_alpha   90.06677348
_cell_angle_beta   90.06894361
_cell_angle_gamma   90.01420443
_symmetry_Int_Tables_number   1
_chemical_formula_structural   V85Zn86O256
_chemical_formula_sum   'V85 Zn86 O256'
_cell_volume   4865.96290603
_cell_formula_units_Z   1
loop_
 _symmetry_equiv_pos_site_id
 _symmetry_equiv_pos_as_xyz
  1  'x, y, z'
loop_
 _atom_site_type_symbol
 _atom_site_label
 _atom_site_symmetry_multiplicity
 _atom_site_fract_x
 _atom_site_fract_y
 _atom_site_fract_z
 _atom_site_occupancy
  V  V0  1  0.88018881  0.62885564  0.25125219  1
  V  V1  1  -0.05989436  0.68143959  0.07580670  1
  V  V2  1  0.62840430  0.75149967  0.88071496  1
  V  V3  1  0.75189586  0.12304216  0.87029541  1
  V  V4  1  0.12463280  0.74313929  0.88127782  1
  V  V5  1  0.87668974  0.49919745  0.37367338  1
  V  V6  1  0.13342531  0.87343575  0.24728836  1
  V  V7  1  0.49999154  0.87634489  0.88088919  1
  V  V8  1  0.87500087  0.24559816  0.12900553  1
  V  V9  1  0.62849138  0.00149513  0.12534824  1
  V  V10  1  -0.00501952  0.74828728  0.73691703  1
  V  V11  1  0.37432711  0.00373727  0.88151276  1
  V  V12  1  0.37432446  0.87019395  0.50034654  1
  V  V13  1  0.87812836  0.00163115  0.88094862  1
  V  V14  1  -0.00105345  0.87508888  0.88603214  1
  V  V15  1  0.11693189  0.36389553  0.74164472  1
  V  V16  1  -0.00371791  0.11616140  0.12603197  1
  V  V17  1  0.74994837  0.62748406  0.87290430  1
  V  V18  1  0.62878568  0.87661752  0.25015816  1
  V  V19  1  0.75036593  0.50022117  0.25238018  1
  V  V20  1  0.75715723  0.12670152  0.37328062  1
  V  V21  1  0.37134267  0.25202591  0.12577670  1
  V  V22  1  0.36050740  0.37346471  0.50398033  1
  V  V23  1  0.50294465  0.62068685  0.62715377  1
  V  V24  1  0.24829992  -0.00047965  0.74538234  1
  V  V25  1  0.75539261  0.85981790  0.12057725  1
  V  V26  1  0.12244095  0.10076443  0.50184999  1
  V  V27  1  0.87928534  -0.00212024  0.37797933  1
  V  V28  1  0.00052621  0.24293745  0.25185085  1
  V  V29  1  0.75296856  0.63481676  0.37730839  1
  V  V30  1  0.37120741  0.49766250  0.87642335  1
  V  V31  1  0.80657767  0.71239752  0.55874790  1
  V  V32  1  0.50270120  0.88214351  0.37623790  1
  V  V33  1  0.00009065  0.37528826  0.37842592  1
  V  V34  1  0.62790263  0.62555305  0.00066885  1
  V  V35  1  0.49355542  0.74985902  0.75223637  1
  V  V36  1  0.49925926  -0.00083448  0.00266466  1
  V  V37  1  0.37335137  0.76256332  0.12050417  1
  V  V38  1  0.00332577  0.49937414  0.00184668  1
  V  V39  1  0.74557480  0.87975810  0.61298587  1
  V  V40  1  0.50278457  0.49760104  0.50639898  1
  V  V41  1  0.00147308  0.87618211  0.37472534  1
  V  V42  1  0.49956869  0.24770164  0.73900344  1
  V  V43  1  0.35895204  0.25009483  0.61968567  1
  V  V44  1  0.24493217  0.25036771  -0.00295529  1
  V  V45  1  0.00505490  0.74485425  0.24848300  1
  V  V46  1  0.36982599  0.50354365  0.37780840  1
  V  V47  1  0.50347401  0.74972041  0.25146985  1
  V  V48  1  0.50330593  0.00290704  0.51904464  1
  V  V49  1  0.62195454  0.12340337  0.51385764  1
  V  V50  1  0.50090606  0.12696939  0.12568693  1
  V  V51  1  0.87470380  0.37288834  0.00123014  1
  V  V52  1  0.24552478  0.49280869  0.73921318  1
  V  V53  1  0.37880440  0.12395179  0.74363546  1
  V  V54  1  0.74537994  0.49607207  0.73921402  1
  V  V55  1  0.75969853  0.00576125  0.24540074  1
  V  V56  1  0.62512566  0.62756759  0.50366101  1
  V  V57  1  0.62641113  0.25099951  0.87517743  1
  V  V58  1  0.12091438  0.51365030  0.12270614  1
  V  V59  1  0.37523299  0.62527037  0.25138192  1
  V  V60  1  0.37206946  0.62431782  0.75150367  1
  V  V61  1  0.62293642  0.49776917  0.12441325  1
  V  V62  1  0.87518362  0.49756460  0.87014752  1
  V  V63  1  0.49867342  0.37332602  0.87409005  1
  V  V64  1  0.88907116  0.23559497  0.63301894  1
  V  V65  1  0.12846036  -0.00248862  0.12243269  1
  V  V66  1  0.62493051  0.88241826  0.74512553  1
  V  V67  1  0.25386467  0.86750331  0.62720907  1
  V  V68  1  0.75055319  0.25292552  0.51019749  1
  V  V69  1  0.24878627  0.50384006  0.24917315  1
  V  V70  1  0.49887612  0.37505915  0.37804579  1
  V  V71  1  0.25176446  0.12880047  0.37927488  1
  V  V72  1  0.25370877  0.00062143  0.24774435  1
  V  V73  1  0.24271556  0.62096083  0.88476646  1
  V  V74  1  0.62637548  0.37813514  0.73816346  1
  V  V75  1  0.87512806  0.37178124  0.50839299  1
  V  V76  1  0.12486222  0.87756131  0.75375574  1
  V  V77  1  0.49975411  0.25027876  0.25113748  1
  V  V78  1  0.62557588  0.37572500  0.25217638  1
  V  V79  1  0.12865099  0.25137933  0.38874553  1
  V  V80  1  0.14386201  0.74180588  0.38048013  1
  V  V81  1  0.62697733  0.24870028  0.37713087  1
  V  V82  1  0.12489837  0.37576496  0.24864009  1
  V  V83  1  0.12114830  0.12031429  -0.00194180  1
  V  V84  1  0.13528014  0.63070612  0.51292670  1
  Zn  Zn85  1  0.37326555  0.74470140  0.61755968  1
  Zn  Zn86  1  0.87510244  0.86870882  0.00633263  1
  Zn  Zn87  1  0.24977106  0.75848643  0.00814508  1
  Zn  Zn88  1  0.87773838  0.62548721  0.73226697  1
  Zn  Zn89  1  0.74999033  0.00528158  0.74451234  1
  Zn  Zn90  1  -0.00264768  0.36389479  0.86911377  1
  Zn  Zn91  1  0.75079905  0.24922977  0.00026003  1
  Zn  Zn92  1  0.74987809  0.37136822  0.12635356  1
  Zn  Zn93  1  0.11123465  0.50171201  0.62581055  1
  Zn  Zn94  1  0.24540389  0.37748702  0.12148062  1
  Zn  Zn95  1  0.62638139  0.12656800  -0.00103421  1
  Zn  Zn96  1  -0.00170596  0.51592021  0.50517990  1
  Zn  Zn97  1  0.37087328  0.37490009  -0.00128244  1
  Zn  Zn98  1  0.37768451  0.00437589  0.37672530  1
  Zn  Zn99  1  0.00022519  0.08436551  0.61374078  1
  Zn  Zn100  1  0.50026430  0.62583886  0.12349437  1
  Zn  Zn101  1  0.63110880  0.75533854  0.38077422  1
  Zn  Zn102  1  0.90619772  0.90342131  0.53712367  1
  Zn  Zn103  1  0.49860627  0.49874713  -0.00045646  1
  Zn  Zn104  1  0.37580155  0.12676317  0.25364685  1
  Zn  Zn105  1  0.24678800  0.12630830  0.87062820  1
  Zn  Zn106  1  0.11746519  0.24545395  0.86763487  1
  Zn  Zn107  1  0.18572574  0.18653994  0.18978875  1
  Zn  Zn108  1  0.18505225  0.18074697  0.68031724  1
  Zn  Zn109  1  0.19339132  0.68716164  0.18791228  1
  Zn  Zn110  1  0.18849588  0.69055307  0.69708767  1
  Zn  Zn111  1  0.68859060  0.18716473  0.18837653  1
  Zn  Zn112  1  0.69164008  0.19103555  0.69027473  1
  Zn  Zn113  1  0.68645449  0.68469542  0.19120396  1
  Zn  Zn114  1  0.67938472  0.68527315  0.69563340  1
  Zn  Zn115  1  0.31048510  0.31538365  0.31366221  1
  Zn  Zn116  1  0.30742815  0.31116902  0.81070676  1
  Zn  Zn117  1  0.31812288  0.81694543  0.30906534  1
  Zn  Zn118  1  0.29988571  0.82692175  0.84620438  1
  Zn  Zn119  1  0.81450688  0.31058153  0.31316139  1
  Zn  Zn120  1  0.81351738  0.31136514  0.80843770  1
  Zn  Zn121  1  0.81714338  0.81345711  0.30662336  1
  Zn  Zn122  1  0.81533877  0.81831809  0.80778320  1
  Zn  Zn123  1  0.18522367  0.44647044  0.43879252  1
  Zn  Zn124  1  0.18209526  0.43261110  0.93256858  1
  Zn  Zn125  1  0.19565428  0.92938660  0.43155202  1
  Zn  Zn126  1  0.19116345  0.93585475  0.93912983  1
  Zn  Zn127  1  0.68887470  0.43964571  0.44061833  1
  Zn  Zn128  1  0.68926572  0.43695425  0.93457809  1
  Zn  Zn129  1  0.68586253  0.94520894  0.43632447  1
  Zn  Zn130  1  0.68930301  0.93813683  0.94152054  1
  Zn  Zn131  1  0.31090163  0.06664839  0.06304962  1
  Zn  Zn132  1  0.31352930  0.05976027  0.56148900  1
  Zn  Zn133  1  0.31279536  0.56527535  0.06475415  1
  Zn  Zn134  1  0.30980498  0.56732385  0.56050470  1
  Zn  Zn135  1  0.81246379  0.06354079  0.05532284  1
  Zn  Zn136  1  0.80638458  0.06255362  0.56161519  1
  Zn  Zn137  1  0.80488353  0.55480551  0.05781668  1
  Zn  Zn138  1  0.81313372  0.54683218  0.56198725  1
  Zn  Zn139  1  0.43748857  0.43579100  0.18741458  1
  Zn  Zn140  1  0.43341992  0.43394286  0.68747900  1
  Zn  Zn141  1  0.43827586  0.93922231  0.18983012  1
  Zn  Zn142  1  0.43500309  0.93493491  0.69134816  1
  Zn  Zn143  1  0.94038254  0.43696050  0.18675387  1
  Zn  Zn144  1  0.93816614  0.43773026  0.68348749  1
  Zn  Zn145  1  0.93794304  0.93496254  0.19031717  1
  Zn  Zn146  1  0.95155151  0.96495517  0.71158099  1
  Zn  Zn147  1  0.06532625  0.06250887  0.31358513  1
  Zn  Zn148  1  0.05925560  0.06550276  0.81142341  1
  Zn  Zn149  1  0.06403570  0.56455813  0.31700411  1
  Zn  Zn150  1  0.05984758  0.56256526  0.80705241  1
  Zn  Zn151  1  0.56819216  0.06479530  0.31449742  1
  Zn  Zn152  1  0.56181121  0.06580422  0.81176158  1
  Zn  Zn153  1  0.56245082  0.56337690  0.31767687  1
  Zn  Zn154  1  0.56234345  0.56018391  0.81314395  1
  Zn  Zn155  1  0.43810778  0.18674215  0.44210901  1
  Zn  Zn156  1  0.43619169  0.18713771  0.93680701  1
  Zn  Zn157  1  0.44006978  0.68830182  0.43445513  1
  Zn  Zn158  1  0.43921359  0.68360322  0.93889497  1
  Zn  Zn159  1  0.94055423  0.18334210  0.44315727  1
  Zn  Zn160  1  0.93949245  0.18482038  0.93781926  1
  Zn  Zn161  1  0.94943027  0.69393846  0.43687465  1
  Zn  Zn162  1  0.93622545  0.68635210  0.91321499  1
  Zn  Zn163  1  0.06098631  0.31284551  0.06262414  1
  Zn  Zn164  1  0.06216273  0.31347002  0.56635848  1
  Zn  Zn165  1  0.07195159  0.81606849  0.06054543  1
  Zn  Zn166  1  0.05038316  0.85879526  0.58052576  1
  Zn  Zn167  1  0.56047195  0.31450322  0.06016264  1
  Zn  Zn168  1  0.55907125  0.31065600  0.56144323  1
  Zn  Zn169  1  0.56382416  0.81345866  0.06421598  1
  Zn  Zn170  1  0.56076392  0.80986519  0.56411688  1
  O  O171  1  0.11867449  0.11522104  0.12179694  1
  O  O172  1  0.12926516  0.11636650  0.60475812  1
  O  O173  1  0.12819391  0.61299866  0.12793004  1
  O  O174  1  0.13199313  0.63029242  0.61558220  1
  O  O175  1  0.61751236  0.12082953  0.12326653  1
  O  O176  1  0.62826815  0.13295827  0.61332875  1
  O  O177  1  0.62524487  0.61783351  0.11801261  1
  O  O178  1  0.61100174  0.62472244  0.62095116  1
  O  O179  1  0.38116138  0.38167775  0.38207390  1
  O  O180  1  0.38072896  0.37996400  0.87338296  1
  O  O181  1  0.38463009  0.87970526  0.38160659  1
  O  O182  1  0.39620607  0.88988293  0.86367364  1
  O  O183  1  0.88406036  0.37729747  0.37974501  1
  O  O184  1  0.87494840  0.38258594  0.88050530  1
  O  O185  1  0.88717776  0.88401354  0.36300776  1
  O  O186  1  0.88192275  0.87328007  0.88650271  1
  O  O187  1  0.25283892  0.00642784  0.36292533  1
  O  O188  1  0.26252961  0.00356492  0.86543806  1
  O  O189  1  0.26349116  0.49696655  0.36663914  1
  O  O190  1  0.25420759  0.50397932  0.86937974  1
  O  O191  1  0.75484494  0.00725754  0.36521012  1
  O  O192  1  0.75260218  0.00804306  0.87603513  1
  O  O193  1  0.75710164  0.51154343  0.37190766  1
  O  O194  1  0.75685154  0.50765718  0.86875659  1
  O  O195  1  0.24323764  0.49828299  0.13065258  1
  O  O196  1  0.25135692  0.50189961  0.63882251  1
  O  O197  1  0.24295525  1.00865504  0.13771593  1
  O  O198  1  0.26344442  0.98808069  0.64000328  1
  O  O199  1  0.73801612  0.49700445  0.13310275  1
  O  O200  1  0.74783801  0.49702369  0.63980559  1
  O  O201  1  0.74578969  1.00062647  0.13081674  1
  O  O202  1  0.74907009  0.98589485  0.62769626  1
  O  O203  1  0.00414628  0.36710456  0.26058890  1
  O  O204  1  0.01375625  0.37804383  0.74976168  1
  O  O205  1  0.01252646  0.86625202  0.25165552  1
  O  O206  1  0.00917515  0.86986115  0.76364267  1
  O  O207  1  0.50543088  0.37022149  0.25776555  1
  O  O208  1  0.50428488  0.36917515  0.75778382  1
  O  O209  1  0.50718640  0.87106330  0.25695489  1
  O  O210  1  0.50946821  0.86807193  0.75607704  1
  O  O211  1  0.50052083  0.13272277  0.24479774  1
  O  O212  1  0.48820172  0.13363956  0.75328606  1
  O  O213  1  0.49683562  0.63440771  0.25091866  1
  O  O214  1  0.49529139  0.62834517  0.74516957  1
  O  O215  1  1.00657908  0.13677733  0.24400528  1
  O  O216  1  0.99293177  0.07418533  0.72549315  1
  O  O217  1  0.99364363  0.63169223  0.25125109  1
  O  O218  1  0.99662873  0.64146623  0.75007402  1
  O  O219  1  0.36264281  0.24835307  0.00635136  1
  O  O220  1  0.37958390  0.25746942  0.51279976  1
  O  O221  1  0.38352711  0.74314203  0.01949668  1
  O  O222  1  0.38570288  0.76513254  0.49965394  1
  O  O223  1  0.87649902  0.25732619  0.01204403  1
  O  O224  1  0.86875173  0.25394030  0.50364528  1
  O  O225  1  0.88705014  0.73955856  0.01184651  1
  O  O226  1  0.87150249  0.75641536  0.49340515  1
  O  O227  1  0.12226135  0.24802015  0.48971653  1
  O  O228  1  0.13416011  0.24184662  1.00500165  1
  O  O229  1  0.12949618  0.74279176  0.48352630  1
  O  O230  1  0.13033451  0.75104297  0.98650471  1
  O  O231  1  0.63172776  0.24722000  0.49540546  1
  O  O232  1  0.62515070  0.25256786  0.98616799  1
  O  O233  1  0.61329656  0.73292358  0.49591990  1
  O  O234  1  0.62043252  0.74296186  0.98881981  1
  O  O235  1  0.49311304  0.24705391  0.12892498  1
  O  O236  1  0.49268665  0.25198853  0.63688050  1
  O  O237  1  0.49560982  0.75006174  0.13704556  1
  O  O238  1  0.49726359  0.74093954  0.63605610  1
  O  O239  1  0.99561033  0.24131684  0.13310583  1
  O  O240  1  0.98919523  0.24345142  0.62081829  1
  O  O241  1  1.00579076  0.74462303  0.12914376  1
  O  O242  1  1.00435794  0.76393546  0.63968128  1
  O  O243  1  0.00537241  0.25385696  0.36877659  1
  O  O244  1  0.00399544  0.25023042  0.87794392  1
  O  O245  1  0.01225791  0.75611443  0.35828256  1
  O  O246  1  0.00905575  0.75758453  0.86851325  1
  O  O247  1  0.50579998  0.25479504  0.37165425  1
  O  O248  1  0.50404407  0.25622211  0.86644536  1
  O  O249  1  0.50122644  0.76246620  0.36463178  1
  O  O250  1  0.50526811  0.75841150  0.87388944  1
  O  O251  1  0.24093898  0.11538783  0.48658514  1
  O  O252  1  0.23829528  0.13215068  0.99932011  1
  O  O253  1  0.23667225  0.62601133  0.49634840  1
  O  O254  1  0.25701704  0.63143569  0.98657707  1
  O  O255  1  0.74136802  0.13276835  0.49256133  1
  O  O256  1  0.74548338  0.13044896  0.98742705  1
  O  O257  1  0.74749849  0.63225568  0.49879607  1
  O  O258  1  0.73723361  0.61981211  0.98953451  1
  O  O259  1  0.24896739  0.36518686  0.00107474  1
  O  O260  1  0.26184185  0.37995503  0.49420977  1
  O  O261  1  0.26731055  0.85685281  -0.04446113  1
  O  O262  1  0.26225655  0.88138730  0.51279231  1
  O  O263  1  0.76298833  0.37417796  0.00145959  1
  O  O264  1  0.76109626  0.36484055  0.49134081  1
  O  O265  1  0.74807180  0.87164259  0.01687228  1
  O  O266  1  0.73194820  0.87355838  0.51302278  1
  O  O267  1  0.13192901  0.49726445  0.24579904  1
  O  O268  1  0.13440812  0.49491584  0.74706514  1
  O  O269  1  0.13277588  0.99283700  0.24475493  1
  O  O270  1  0.14013034  0.99014063  0.76252195  1
  O  O271  1  0.62843096  0.49627858  0.24544577  1
  O  O272  1  0.63627783  0.49280036  0.75557884  1
  O  O273  1  0.63508154  0.99573640  0.24442919  1
  O  O274  1  0.62420792  0.98459613  0.75628940  1
  O  O275  1  0.36744948  0.00488935  0.25132205  1
  O  O276  1  0.37430167  0.00897286  0.75760974  1
  O  O277  1  0.37064045  0.50510671  0.25559164  1
  O  O278  1  0.36445062  0.49987094  0.75873798  1
  O  O279  1  0.86413482  0.00018983  0.25634513  1
  O  O280  1  0.85918067  -0.02390198  0.77757400  1
  O  O281  1  0.87292921  0.50961275  0.25345373  1
  O  O282  1  0.86373221  0.50011788  0.75435262  1
  O  O283  1  0.11920231  0.37039197  0.37152331  1
  O  O284  1  0.12054678  0.37261989  0.85755941  1
  O  O285  1  0.12204472  0.86669686  0.36457935  1
  O  O286  1  0.11821369  0.86810615  0.86953919  1
  O  O287  1  0.61928594  0.37005652  0.37256519  1
  O  O288  1  0.61710874  0.36956823  0.86804458  1
  O  O289  1  0.62028404  0.87468784  0.36874514  1
  O  O290  1  0.61935304  0.86911244  0.87017471  1
  O  O291  1  0.38156550  0.13727347  0.12742842  1
  O  O292  1  0.37194760  0.13754973  0.62965256  1
  O  O293  1  0.38117037  0.62744662  0.13831404  1
  O  O294  1  0.38406798  0.62589482  0.63133252  1
  O  O295  1  0.88541126  0.13165786  0.11857112  1
  O  O296  1  0.87990360  0.13227562  0.61450645  1
  O  O297  1  0.87260912  0.62289160  0.12935305  1
  O  O298  1  0.85783161  0.63852944  0.61603018  1
  O  O299  1  0.25650103  0.25075048  0.12054902  1
  O  O300  1  0.26098205  0.24980405  0.62402431  1
  O  O301  1  0.26725765  0.74819789  0.12480165  1
  O  O302  1  0.25774757  0.76296506  0.63750247  1
  O  O303  1  0.76015952  0.25046929  0.12413510  1
  O  O304  1  0.75893095  0.24670255  0.61288291  1
  O  O305  1  0.74817178  0.76169794  0.13210509  1
  O  O306  1  0.73323335  0.75531627  0.62169072  1
  O  O307  1  0.24015987  0.24170612  0.36917717  1
  O  O308  1  0.24429815  0.24602537  0.88347938  1
  O  O309  1  0.24156021  0.75758907  0.36982414  1
  O  O310  1  0.23685622  0.73080952  0.85806321  1
  O  O311  1  0.74770774  0.24278465  0.38122989  1
  O  O312  1  0.74241958  0.24516550  0.87406134  1
  O  O313  1  0.75098391  0.73882818  0.36740405  1
  O  O314  1  0.74258637  0.73718397  0.86622650  1
  O  O315  1  0.01341375  0.12599001  0.01243429  1
  O  O316  1  0.01688814  0.11703540  0.49866539  1
  O  O317  1  -0.01154104  0.62140644  0.00694186  1
  O  O318  1  0.02584418  0.62836620  0.48547293  1
  O  O319  1  0.50156443  0.11625930  0.00601132  1
  O  O320  1  0.50861791  0.11364305  0.49594617  1
  O  O321  1  0.51409028  0.61883246  0.00036919  1
  O  O322  1  0.50420779  0.61731763  0.50645091  1
  O  O323  1  0.49386499  0.38261719  0.49649628  1
  O  O324  1  0.49582038  0.37649581  0.98574101  1
  O  O325  1  0.49983805  0.88405316  0.49388890  1
  O  O326  1  0.50535293  0.88802669  0.99453011  1
  O  O327  1  0.99380357  0.37135773  0.48799349  1
  O  O328  1  0.98916031  0.38331255  0.99850159  1
  O  O329  1  1.00104691  0.86187893  0.47731839  1
  O  O330  1  1.00009409  0.87059438  0.99027626  1
  O  O331  1  0.49024960  0.49630010  0.38475170  1
  O  O332  1  0.48960713  0.49096507  0.87252960  1
  O  O333  1  0.50103202  0.99028820  0.37518521  1
  O  O334  1  0.49808958  0.99719544  0.88455841  1
  O  O335  1  0.99517406  0.49080412  0.37660237  1
  O  O336  1  0.98839412  0.50144140  0.88093623  1
  O  O337  1  0.99060473  0.99152035  0.36395014  1
  O  O338  1  0.98577382  0.99133648  0.87749307  1
  O  O339  1  0.00821251  0.01018954  0.13511761  1
  O  O340  1  -0.01368156  -0.04288533  0.60422400  1
  O  O341  1  0.00694736  0.49887641  0.11550384  1
  O  O342  1  -0.00348978  0.50525835  0.61853756  1
  O  O343  1  0.50485541  0.00513621  0.12000747  1
  O  O344  1  0.49945522  -0.00315517  0.61781532  1
  O  O345  1  0.51158147  0.50011025  0.12451118  1
  O  O346  1  0.49307738  0.50455810  0.61488025  1
  O  O347  1  0.24463386  0.38759694  0.24819535  1
  O  O348  1  0.24058783  0.38766329  0.75370858  1
  O  O349  1  0.24132641  0.88411758  0.25216756  1
  O  O350  1  0.24690804  0.88121315  0.75187237  1
  O  O351  1  0.74397675  0.38236078  0.25200954  1
  O  O352  1  0.74060627  0.38775973  0.75690247  1
  O  O353  1  0.74693060  0.88330235  0.24098234  1
  O  O354  1  0.73240707  0.86934324  0.74364914  1
  O  O355  1  0.24881266  0.11899914  0.26182112  1
  O  O356  1  0.25882832  0.11742535  0.74823514  1
  O  O357  1  0.26023430  0.61218578  0.24754497  1
  O  O358  1  0.25495856  0.61057146  0.75659704  1
  O  O359  1  0.74602497  0.11739650  0.26026829  1
  O  O360  1  0.74525734  0.12240110  0.76344556  1
  O  O361  1  0.75799314  0.61987160  0.25801264  1
  O  O362  1  0.74865497  0.61270194  0.75538753  1
  O  O363  1  0.36629538  0.12595173  0.37489733  1
  O  O364  1  0.37385695  0.11869638  0.86531158  1
  O  O365  1  0.38223724  0.61741826  0.36282686  1
  O  O366  1  0.37033747  0.61533290  0.86959893  1
  O  O367  1  0.86409586  0.11927249  0.38008305  1
  O  O368  1  0.86836668  0.11008912  0.88199823  1
  O  O369  1  0.87175355  0.62206400  0.36887173  1
  O  O370  1  0.86398283  0.61382057  0.86826599  1
  O  O371  1  0.12320788  0.38284952  0.13463683  1
  O  O372  1  0.12457225  0.37952082  0.63666210  1
  O  O373  1  0.12509851  0.88815353  0.13098536  1
  O  O374  1  0.14040157  0.87424047  0.64461473  1
  O  O375  1  0.62614079  0.38120751  0.13103955  1
  O  O376  1  0.61968615  0.37034522  0.63883672  1
  O  O377  1  0.63518447  0.88069641  0.13087690  1
  O  O378  1  0.62578650  0.86936968  0.63990903  1
  O  O379  1  0.11725174  0.25667926  0.25715167  1
  O  O380  1  0.13214949  0.26070681  0.74537051  1
  O  O381  1  0.12387467  0.75658538  0.25050134  1
  O  O382  1  0.11525437  0.75709029  0.75981756  1
  O  O383  1  0.62043049  0.25678936  0.25629585  1
  O  O384  1  0.61731083  0.25610220  0.75755204  1
  O  O385  1  0.61794906  0.75587826  0.25349202  1
  O  O386  1  0.61204905  0.75468837  0.76370729  1
  O  O387  1  0.38062377  0.25115869  0.24268798  1
  O  O388  1  0.37811258  0.24513484  0.74015358  1
  O  O389  1  0.38266703  0.74365016  0.24393463  1
  O  O390  1  0.38811775  0.74505016  0.75784076  1
  O  O391  1  0.88491152  0.25501060  0.23773627  1
  O  O392  1  0.87096337  0.25174834  0.73037442  1
  O  O393  1  0.88685447  0.73748107  0.24927026  1
  O  O394  1  0.89045007  0.74785488  0.75567040  1
  O  O395  1  0.37977707  0.49580626  0.49431610  1
  O  O396  1  0.37478392  0.49843268  0.98837974  1
  O  O397  1  0.38723992  0.99155625  0.49860789  1
  O  O398  1  0.38163783  1.00777916  0.98985416  1
  O  O399  1  0.87676591  0.48843731  0.49038434  1
  O  O400  1  0.88157547  0.49330108  0.99356859  1
  O  O401  1  0.86184454  0.99525146  0.48241182  1
  O  O402  1  0.86735690  0.98988274  0.98621943  1
  O  O403  1  0.13380679  0.00613815  0.01011322  1
  O  O404  1  0.12694799  0.00224049  0.49045248  1
  O  O405  1  0.11084936  0.49498196  0.00514714  1
  O  O406  1  0.12493662  0.51614822  0.50363058  1
  O  O407  1  0.61699665  0.00268850  0.00829515  1
  O  O408  1  0.61439152  0.01104330  0.49795498  1
  O  O409  1  0.62502151  0.50387310  0.00818712  1
  O  O410  1  0.61473327  0.51148544  0.49527446  1
  O  O411  1  0.37390373  0.36357865  0.12143511  1
  O  O412  1  0.37672512  0.36134271  0.61809841  1
  O  O413  1  0.37911103  0.86134789  0.12926747  1
  O  O414  1  0.37257183  0.87036097  0.61869303  1
  O  O415  1  0.87476540  0.36797790  0.11802490  1
  O  O416  1  0.87949039  0.36378685  0.61131091  1
  O  O417  1  0.86084908  0.87696136  0.12560577  1
  O  O418  1  0.84438373  0.85696811  0.62288998  1
  O  O419  1  0.13075745  0.13158297  0.38382638  1
  O  O420  1  0.12558330  0.12278053  0.88415504  1
  O  O421  1  0.13332889  0.64027499  0.36731954  1
  O  O422  1  0.13066557  0.62907956  0.87227812  1
  O  O423  1  0.63577817  0.13257697  0.38175937  1
  O  O424  1  0.62966087  0.13553482  0.87516018  1
  O  O425  1  0.63696781  0.62606713  0.38377249  1
  O  O426  1  0.62952045  0.63087204  0.87998608  1
