# generated using pymatgen
data_V85Zn86O256
_symmetry_space_group_name_H-M   'P 1'
_cell_length_a   16.98890725
_cell_length_b   16.98200792
_cell_length_c   16.94287347
_cell_angle_alpha   89.92802511
_cell_angle_beta   90.03799632
_cell_angle_gamma   89.94801980
_symmetry_Int_Tables_number   1
_chemical_formula_structural   V85Zn86O256
_chemical_formula_sum   'V85 Zn86 O256'
_cell_volume   4888.10959705
_cell_formula_units_Z   1
loop_
 _symmetry_equiv_pos_site_id
 _symmetry_equiv_pos_as_xyz
  1  'x, y, z'
loop_
 _atom_site_type_symbol
 _atom_site_label
 _atom_site_symmetry_multiplicity
 _atom_site_fract_x
 _atom_site_fract_y
 _atom_site_fract_z
 _atom_site_occupancy
  V  V0  1  0.13012011  0.36525557  0.25500364  1
  V  V1  1  0.12657626  0.87344792  0.25036123  1
  V  V2  1  0.25263451  0.74685189  0.49910370  1
  V  V3  1  0.62753127  0.74981107  0.36824833  1
  V  V4  1  0.86833245  0.00820580  0.87736426  1
  V  V5  1  0.24890598  0.00266786  0.24533624  1
  V  V6  1  0.49447393  0.75065379  0.24988765  1
  V  V7  1  0.49631151  0.49247871  0.50094800  1
  V  V8  1  0.37813648  0.25396524  0.12300705  1
  V  V9  1  0.24669281  0.24674571  0.49889303  1
  V  V10  1  0.75291947  0.50180736  0.75393768  1
  V  V11  1  0.87367678  0.49219733  0.89051942  1
  V  V12  1  0.62615921  0.50000914  0.12286682  1
  V  V13  1  0.37663400  0.38564693  0.00018820  1
  V  V14  1  0.87167554  0.62419181  0.24897743  1
  V  V15  1  0.00168982  0.49876275  0.50040176  1
  V  V16  1  0.00280990  0.87523310  0.37700195  1
  V  V17  1  0.87539150  0.00160018  0.37575703  1
  V  V18  1  0.00849421  0.00618387  0.49992080  1
  V  V19  1  0.50014752  0.12340192  0.62659906  1
  V  V20  1  0.00401113  0.12617598  0.62752779  1
  V  V21  1  0.24726666  0.87070687  0.11516789  1
  V  V22  1  0.12978135  0.00394034  0.62787761  1
  V  V23  1  0.61981842  0.00891313  0.11605776  1
  V  V24  1  0.50936822  0.24902490  0.25471054  1
  V  V25  1  0.00316630  0.62937340  0.62472074  1
  V  V26  1  0.75234248  0.62371241  0.37526893  1
  V  V27  1  0.50134287  0.62729409  0.62397684  1
  V  V28  1  0.24402744  0.36925864  0.62744331  1
  V  V29  1  0.62546117  0.12404517  0.50822306  1
  V  V30  1  0.25142915  0.50627637  0.26011342  1
  V  V31  1  0.49413745  0.38795137  0.87478035  1
  V  V32  1  -0.01071183  -0.00214119  0.00085584  1
  V  V33  1  0.04219664  0.45461054  -0.03881421  1
  V  V34  1  0.13836256  0.61927760  0.50075701  1
  V  V35  1  0.13546117  0.74755089  0.87729164  1
  V  V36  1  0.87562771  0.24871403  0.62643719  1
  V  V37  1  0.12221691  0.00116009  0.11899882  1
  V  V38  1  0.37048400  0.74986250  0.11442011  1
  V  V39  1  0.25140299  0.37334435  0.12527821  1
  V  V40  1  0.37553790  0.87718164  0.49843392  1
  V  V41  1  0.01007053  0.26242877  0.76036136  1
  V  V42  1  0.12232148  0.49226932  0.63515342  1
  V  V43  1  0.00205430  0.37059469  0.37573834  1
  V  V44  1  0.17864601  0.19986781  0.92993840  1
  V  V45  1  0.00289482  0.74584009  0.24980610  1
  V  V46  1  0.75654276  0.24731139  -0.01767333  1
  V  V47  1  0.87448016  0.49919728  0.37587763  1
  V  V48  1  0.37727529  0.00113695  0.36886728  1
  V  V49  1  0.62768257  0.62390185  0.49722463  1
  V  V50  1  0.37540459  0.25219506  0.62064097  1
  V  V51  1  0.88079177  0.62417808  0.75301636  1
  V  V52  1  0.12123845  0.50203393  0.13308597  1
  V  V53  1  0.13185332  0.74340272  0.37698393  1
  V  V54  1  0.74939818  -0.00176823  0.24095587  1
  V  V55  1  0.87438688  0.37348843  0.50090158  1
  V  V56  1  0.87805343  0.87645868  0.50069400  1
  V  V57  1  0.50541010  0.24364150  0.76212716  1
  V  V58  1  0.81913013  0.81432551  -0.04515577  1
  V  V59  1  0.50715529  0.75052139  0.75813924  1
  V  V60  1  0.75207904  0.75080197  0.49867755  1
  V  V61  1  0.37555097  0.12836148  0.24404066  1
  V  V62  1  0.12741475  0.62978163  0.00303094  1
  V  V63  1  0.74485146  0.00287247  0.74893030  1
  V  V64  1  0.87401431  0.13161996  0.24579201  1
  V  V65  1  0.76215253  0.36491350  0.12199030  1
  V  V66  1  0.24421803  0.12419641  0.37494531  1
  V  V67  1  0.50324626  -0.00006984  0.50566922  1
  V  V68  1  0.37678566  0.75049857  0.62538598  1
  V  V69  1  0.50401889  0.36854170  0.38041408  1
  V  V70  1  -0.00349108  0.13098386  0.12019239  1
  V  V71  1  0.86933969  0.76133521  0.12859738  1
  V  V72  1  0.74629730  0.24952916  0.50164722  1
  V  V73  1  -0.00241064  0.86466969  0.87808829  1
  V  V74  1  0.74287549  0.12558983  0.37619918  1
  V  V75  1  0.37407779  0.50042147  0.38117875  1
  V  V76  1  0.24972210  0.87604723  0.62671573  1
  V  V77  1  0.87965471  0.75052808  0.62542104  1
  V  V78  1  0.62591278  0.37587752  0.76062824  1
  V  V79  1  0.62617165  0.87619356  0.24235614  1
  V  V80  1  0.50235728  0.87552714  0.37409092  1
  V  V81  1  0.62789175  0.49826977  0.62455375  1
  V  V82  1  0.74055365  0.87943194  0.62076986  1
  V  V83  1  0.11863177  0.86775320  0.74937444  1
  V  V84  1  0.36692419  0.12038820  0.76309827  1
  Zn  Zn85  1  0.74851177  0.49311093  0.24967855  1
  Zn  Zn86  1  0.62174879  0.65935465  -0.02253484  1
  Zn  Zn87  1  0.25529839  0.59935346  0.88266364  1
  Zn  Zn88  1  0.49817635  0.88087422  0.87876350  1
  Zn  Zn89  1  0.25744760  0.49315460  0.75485873  1
  Zn  Zn90  1  0.62142086  0.15843956  -0.05226998  1
  Zn  Zn91  1  0.62840597  0.37206690  0.25352500  1
  Zn  Zn92  1  0.12186042  0.24217005  0.38047540  1
  Zn  Zn93  1  0.62604102  0.87151022  0.75711545  1
  Zn  Zn94  1  0.37275182  0.61727821  0.76083527  1
  Zn  Zn95  1  0.74983088  0.37184759  0.62771738  1
  Zn  Zn96  1  0.75189840  0.63538825  0.88632208  1
  Zn  Zn97  1  0.48975049  0.01301980  -0.01805664  1
  Zn  Zn98  1  0.50301965  0.50901866  -0.00307042  1
  Zn  Zn99  1  0.51036066  0.13723992  0.11095927  1
  Zn  Zn100  1  0.87629240  0.12664995  0.75279267  1
  Zn  Zn101  1  -0.00402932  0.25110091  0.24696564  1
  Zn  Zn102  1  0.36738989  0.88875630  -0.01993806  1
  Zn  Zn103  1  0.25370973  -0.00647389  0.77090038  1
  Zn  Zn104  1  0.37317197  0.62728266  0.25600069  1
  Zn  Zn105  1  0.50155344  0.62447196  0.12248793  1
  Zn  Zn106  1  -0.00565182  0.62161826  0.11709716  1
  Zn  Zn107  1  0.19372599  0.18191375  0.09527203  1
  Zn  Zn108  1  0.18633825  0.18756253  0.69122032  1
  Zn  Zn109  1  0.19085677  0.68447841  0.18883340  1
  Zn  Zn110  1  0.19018838  0.68479105  0.69354253  1
  Zn  Zn111  1  0.69075215  0.19041631  0.18725341  1
  Zn  Zn112  1  0.66868262  0.17115537  0.73176952  1
  Zn  Zn113  1  0.66895136  0.70941197  0.14241308  1
  Zn  Zn114  1  0.69092510  0.68535800  0.69049462  1
  Zn  Zn115  1  0.31918125  0.31525019  0.31607314  1
  Zn  Zn116  1  0.31723606  0.30930795  0.81075359  1
  Zn  Zn117  1  0.31173066  0.81544426  0.31063491  1
  Zn  Zn118  1  0.31464984  0.80730430  0.80978687  1
  Zn  Zn119  1  0.80985829  0.31073452  0.31401884  1
  Zn  Zn120  1  0.82126881  0.31727653  0.81123849  1
  Zn  Zn121  1  0.81256249  0.81430549  0.30912607  1
  Zn  Zn122  1  0.82030019  0.81833017  0.79275352  1
  Zn  Zn123  1  0.19163620  0.43162373  0.44479183  1
  Zn  Zn124  1  0.20812284  0.39310530  0.91540330  1
  Zn  Zn125  1  0.18928402  0.93793342  0.43731110  1
  Zn  Zn126  1  0.17837612  0.93626223  0.93886047  1
  Zn  Zn127  1  0.68544161  0.43506147  0.43583196  1
  Zn  Zn128  1  0.69179667  0.43479703  0.94393503  1
  Zn  Zn129  1  0.68661972  0.94078194  0.43508925  1
  Zn  Zn130  1  0.67846007  0.93377907  0.93291365  1
  Zn  Zn131  1  0.31263533  0.06090907  -0.05118102  1
  Zn  Zn132  1  0.31415016  0.06481821  0.56248503  1
  Zn  Zn133  1  0.30889838  0.56262462  0.06747180  1
  Zn  Zn134  1  0.32530861  0.54731551  0.59132509  1
  Zn  Zn135  1  0.80704493  0.07450002  0.05534810  1
  Zn  Zn136  1  0.81627108  0.06267718  0.56553545  1
  Zn  Zn137  1  0.79781276  0.57072699  0.06555844  1
  Zn  Zn138  1  0.81395335  0.56144581  0.56416035  1
  Zn  Zn139  1  0.44163179  0.43830489  0.19268407  1
  Zn  Zn140  1  0.43776778  0.43233910  0.68564745  1
  Zn  Zn141  1  0.40558064  0.97241588  0.13207542  1
  Zn  Zn142  1  0.43648030  0.93806779  0.69537745  1
  Zn  Zn143  1  0.93843741  0.43682580  0.18928082  1
  Zn  Zn144  1  0.93800397  0.43703437  0.68913812  1
  Zn  Zn145  1  0.93798306  0.94040411  0.19076311  1
  Zn  Zn146  1  0.93830247  0.93860766  0.68994875  1
  Zn  Zn147  1  0.06249762  0.06351244  0.30657568  1
  Zn  Zn148  1  0.06262910  0.06015050  0.81443822  1
  Zn  Zn149  1  0.06348195  0.56055642  0.31461338  1
  Zn  Zn150  1  0.06474815  0.56503453  0.81278028  1
  Zn  Zn151  1  0.56331404  0.06476676  0.31282150  1
  Zn  Zn152  1  0.56221361  0.05469570  0.81185927  1
  Zn  Zn153  1  0.56412223  0.56113956  0.30692357  1
  Zn  Zn154  1  0.56628207  0.56883497  0.81428337  1
  Zn  Zn155  1  0.43313278  0.18671595  0.43697398  1
  Zn  Zn156  1  0.43958771  0.19583968  0.94038798  1
  Zn  Zn157  1  0.43877809  0.68413358  0.43757218  1
  Zn  Zn158  1  0.43303754  0.68131407  0.93915830  1
  Zn  Zn159  1  0.93604256  0.18513322  0.43889789  1
  Zn  Zn160  1  0.93464831  0.18910368  0.93971058  1
  Zn  Zn161  1  0.94257339  0.68618139  0.43859703  1
  Zn  Zn162  1  0.94532005  0.67499672  0.93893984  1
  Zn  Zn163  1  0.05760414  0.31480713  0.06551509  1
  Zn  Zn164  1  0.06465991  0.30728488  0.56196851  1
  Zn  Zn165  1  0.05717886  0.81120891  0.06120263  1
  Zn  Zn166  1  0.06504654  0.81264686  0.56182615  1
  Zn  Zn167  1  0.56979226  0.31848643  0.06124910  1
  Zn  Zn168  1  0.56430652  0.30937183  0.56825512  1
  Zn  Zn169  1  0.55101901  0.82455204  0.05641038  1
  Zn  Zn170  1  0.56420959  0.81076207  0.55954030  1
  O  O171  1  0.11309656  0.11100190  0.13142311  1
  O  O172  1  0.12044322  0.11093036  0.62955291  1
  O  O173  1  0.12489298  0.61865563  0.12235016  1
  O  O174  1  0.11765631  0.61858130  0.61944222  1
  O  O175  1  0.62583634  0.11237872  0.13549021  1
  O  O176  1  0.60779990  0.12657189  0.62372133  1
  O  O177  1  0.62458505  0.60371393  0.13963474  1
  O  O178  1  0.62191558  0.61549773  0.62053402  1
  O  O179  1  0.39021598  0.38834937  0.37528402  1
  O  O180  1  0.38116285  0.37165280  0.88744959  1
  O  O181  1  0.38164039  0.88245384  0.37878447  1
  O  O182  1  0.38292130  0.86715275  0.87033199  1
  O  O183  1  0.88267441  0.37843443  0.38062909  1
  O  O184  1  0.87747649  0.39371266  0.87614595  1
  O  O185  1  0.88313039  0.88063539  0.38022314  1
  O  O186  1  0.87702958  0.87458829  0.88404733  1
  O  O187  1  0.25687987  0.00431871  0.36779103  1
  O  O188  1  0.24479858  0.00220841  0.88210871  1
  O  O189  1  0.26161767  0.48976508  0.37299398  1
  O  O190  1  0.23777578  0.48625152  0.86635570  1
  O  O191  1  0.75634515  0.00859310  0.37027196  1
  O  O192  1  0.75587260  -0.00828473  0.85863978  1
  O  O193  1  0.75747215  0.50524005  0.37578091  1
  O  O194  1  0.75910065  0.49906949  0.86540934  1
  O  O195  1  0.24141301  0.49358176  0.13940972  1
  O  O196  1  0.23420004  0.48416397  0.61657353  1
  O  O197  1  0.23592853  0.98781670  0.13286022  1
  O  O198  1  0.24141075  0.99329544  0.62130371  1
  O  O199  1  0.74206617  0.49041490  0.12852168  1
  O  O200  1  0.74502551  0.49929291  0.63501194  1
  O  O201  1  0.74245911  1.00755018  0.13777968  1
  O  O202  1  0.76287702  0.98714942  0.63358685  1
  O  O203  1  0.00798182  0.37252519  0.26003162  1
  O  O204  1  -0.00210832  0.36159021  0.74754391  1
  O  O205  1  0.00611821  0.86377291  0.25725685  1
  O  O206  1  0.00734729  0.87967978  0.76231420  1
  O  O207  1  0.50117698  0.36414681  0.26143708  1
  O  O208  1  0.50448151  0.37015384  0.75598829  1
  O  O209  1  0.51019747  0.86420725  0.26076908  1
  O  O210  1  0.50351252  0.85757294  0.73908112  1
  O  O211  1  0.49103628  0.13462206  0.25676256  1
  O  O212  1  0.48677466  0.13007248  0.74125923  1
  O  O213  1  0.49975800  0.64032968  0.24920758  1
  O  O214  1  0.49904065  0.63231849  0.73523646  1
  O  O215  1  0.98936800  0.12420221  0.24275400  1
  O  O216  1  0.99747354  0.12402632  0.73716529  1
  O  O217  1  0.99148522  0.63651558  0.25888831  1
  O  O218  1  0.98918148  0.61891529  0.73936650  1
  O  O219  1  0.38330284  0.26386189  0.01738892  1
  O  O220  1  0.36303197  0.24037751  0.51006351  1
  O  O221  1  0.37534424  0.75447632  0.01436348  1
  O  O222  1  0.37130405  0.75787378  0.50094380  1
  O  O223  1  0.85801146  0.24343162  0.00203242  1
  O  O224  1  0.87131333  0.25368634  0.50895448  1
  O  O225  1  0.87942003  0.74841797  0.01307599  1
  O  O226  1  0.87201735  0.75369224  0.50689815  1
  O  O227  1  0.13960224  0.24611521  0.49812744  1
  O  O228  1  0.12654655  0.24301712  1.00935739  1
  O  O229  1  0.13157952  0.74158919  0.49528080  1
  O  O230  1  0.11973447  0.74192944  0.99139463  1
  O  O231  1  0.63352789  0.23556842  0.50813647  1
  O  O232  1  0.64352040  0.25793158  1.00083532  1
  O  O233  1  0.63360643  0.74329707  0.49196351  1
  O  O234  1  0.62812743  0.75012523  1.04475376  1
  O  O235  1  0.49644067  0.25381363  0.13580448  1
  O  O236  1  0.49142736  0.24229853  0.63029861  1
  O  O237  1  0.48102768  0.75492591  0.13600116  1
  O  O238  1  0.49500387  0.74229847  0.62158063  1
  O  O239  1  1.00239349  0.23468292  0.12771321  1
  O  O240  1  0.99477105  0.24108522  0.62756110  1
  O  O241  1  0.99525046  0.74408211  0.13648420  1
  O  O242  1  0.99477379  0.73740214  0.61594512  1
  O  O243  1  0.00139541  0.25943653  0.37701601  1
  O  O244  1  -0.00773899  0.24402158  0.85820875  1
  O  O245  1  0.01156656  0.75489466  0.37203005  1
  O  O246  1  0.00035656  0.76133309  0.88050041  1
  O  O247  1  0.49267449  0.25815078  0.37039531  1
  O  O248  1  0.49543894  0.26461180  0.86343326  1
  O  O249  1  0.50842341  0.75435262  0.37151618  1
  O  O250  1  0.49857627  0.74361835  0.85744322  1
  O  O251  1  0.25557605  0.12872424  0.48557608  1
  O  O252  1  0.24428090  0.14667278  0.99125132  1
  O  O253  1  0.24036424  0.62742451  0.50962395  1
  O  O254  1  0.23271565  0.61588654  1.00068336  1
  O  O255  1  0.74317446  0.12677597  0.49879864  1
  O  O256  1  0.73824958  0.14152074  0.99434333  1
  O  O257  1  0.74686782  0.62961864  0.49530844  1
  O  O258  1  0.73743578  0.63574488  1.00045314  1
  O  O259  1  0.25968923  0.37800374  0.01952411  1
  O  O260  1  0.25147436  0.35931429  0.51116253  1
  O  O261  1  0.24710842  0.87424701  0.01295203  1
  O  O262  1  0.25538952  0.86840273  0.50610176  1
  O  O263  1  0.75254319  0.36578671  0.01357838  1
  O  O264  1  0.75433550  0.36536709  0.50084354  1
  O  O265  1  0.75663786  0.87428513  0.00078888  1
  O  O266  1  0.75873610  0.87303920  0.50293148  1
  O  O267  1  0.13462061  0.49140131  0.25346088  1
  O  O268  1  0.12014721  0.49969592  0.73626274  1
  O  O269  1  0.12605874  0.99077171  0.24176385  1
  O  O270  1  0.12767909  0.98881114  0.74323193  1
  O  O271  1  0.62855909  0.49229812  0.24424984  1
  O  O272  1  0.63317996  0.49538622  0.74231265  1
  O  O273  1  0.63315267  0.99490274  0.25149520  1
  O  O274  1  0.64231431  0.99571550  0.74385618  1
  O  O275  1  0.36957720  0.01024832  0.24363311  1
  O  O276  1  0.36901812  0.01697305  0.74307389  1
  O  O277  1  0.36820010  0.50134730  0.26079599  1
  O  O278  1  0.36484198  0.51385078  0.70448809  1
  O  O279  1  0.86721375  0.00551586  0.25702646  1
  O  O280  1  0.86738466  -0.00461271  0.76023441  1
  O  O281  1  0.87563716  0.50916295  0.25904569  1
  O  O282  1  0.86858449  0.50649508  0.75325655  1
  O  O283  1  0.11724891  0.37400550  0.37260676  1
  O  O284  1  0.09246383  0.38525248  0.91198180  1
  O  O285  1  0.12051671  0.86735533  0.37111048  1
  O  O286  1  0.11498420  0.86623882  0.86956664  1
  O  O287  1  0.61014631  0.37626539  0.37451239  1
  O  O288  1  0.61841813  0.38251380  0.86411459  1
  O  O289  1  0.62154635  0.86889229  0.36914316  1
  O  O290  1  0.61331760  0.87240297  0.87002413  1
  O  O291  1  0.38282529  0.13883316  0.13753734  1
  O  O292  1  0.38314826  0.13261340  0.62919471  1
  O  O293  1  0.37313298  0.63947803  0.13046058  1
  O  O294  1  0.38810147  0.64175124  0.61044054  1
  O  O295  1  0.88240017  0.11505428  0.13589307  1
  O  O296  1  0.88623947  0.13334561  0.62448057  1
  O  O297  1  0.87753335  0.63231971  0.13553315  1
  O  O298  1  0.88432034  0.63074526  0.62711405  1
  O  O299  1  0.26341850  0.26145387  0.13578057  1
  O  O300  1  0.25460231  0.24910084  0.61836311  1
  O  O301  1  0.26118052  0.75743786  0.13571754  1
  O  O302  1  0.25890197  0.75487935  0.61997505  1
  O  O303  1  0.75146033  0.26213408  0.12600695  1
  O  O304  1  0.76138090  0.24975278  0.61329436  1
  O  O305  1  0.77238450  0.75635620  0.14481100  1
  O  O306  1  0.75957091  0.75690326  0.61797155  1
  O  O307  1  0.25306758  0.24180778  0.38123171  1
  O  O308  1  0.22912184  0.27681080  0.87967749  1
  O  O309  1  0.23846922  0.75409229  0.38074763  1
  O  O310  1  0.23503354  0.75017385  0.87075618  1
  O  O311  1  0.75775917  0.23898163  0.39192933  1
  O  O312  1  0.75488669  0.25831721  0.88140276  1
  O  O313  1  0.74721337  0.74512969  0.37959579  1
  O  O314  1  0.77050106  0.76090171  0.88261485  1
  O  O315  1  -0.00770274  0.11067521  0.00862967  1
  O  O316  1  -0.00095955  0.11614939  0.51094102  1
  O  O317  1  0.01594833  0.61534539  0.00372218  1
  O  O318  1  0.00884588  0.61810288  0.50770496  1
  O  O319  1  0.51474614  0.12931558  -0.00612516  1
  O  O320  1  0.50613896  0.11953727  0.50470554  1
  O  O321  1  0.50881847  0.62567140  0.00422362  1
  O  O322  1  0.51009574  0.61866840  0.50813162  1
  O  O323  1  0.50761219  0.38292989  0.49705453  1
  O  O324  1  0.49458900  0.37920353  0.99019285  1
  O  O325  1  0.49777737  0.88310959  0.49511348  1
  O  O326  1  0.48702301  0.89231398  1.00204842  1
  O  O327  1  0.99568177  0.37804880  0.49404416  1
  O  O328  1  0.99079702  0.40005755  1.02809456  1
  O  O329  1  0.99645089  0.88187378  0.49555761  1
  O  O330  1  1.00005253  0.88620947  0.99205428  1
  O  O331  1  0.49763626  0.49395736  0.38471368  1
  O  O332  1  0.50021734  0.49121462  0.87056560  1
  O  O333  1  0.49552959  0.99676601  0.38422550  1
  O  O334  1  0.49091344  0.99743148  0.86810837  1
  O  O335  1  0.99558922  0.48856208  0.38040387  1
  O  O336  1  0.98875626  0.50625362  0.88257283  1
  O  O337  1  0.99829001  0.99736459  0.38254080  1
  O  O338  1  0.99032968  0.99142803  0.88277677  1
  O  O339  1  0.00278935  0.00362766  0.11958386  1
  O  O340  1  0.00730878  0.00527561  0.61898659  1
  O  O341  1  0.01823404  0.50830924  0.14934132  1
  O  O342  1  0.00391200  0.50699651  0.61843366  1
  O  O343  1  0.51506892  0.01321673  0.12731104  1
  O  O344  1  0.49152120  0.00615058  0.61241215  1
  O  O345  1  0.51217520  0.49992287  0.12696251  1
  O  O346  1  0.51016214  0.50665505  0.61851656  1
  O  O347  1  0.24555780  0.38228119  0.24769496  1
  O  O348  1  0.25746031  0.37047532  0.73148743  1
  O  O349  1  0.24111656  0.88284110  0.24771779  1
  O  O350  1  0.24158256  0.87529343  0.74104289  1
  O  O351  1  0.74762750  0.37282314  0.24432456  1
  O  O352  1  0.74316632  0.38333541  0.74797367  1
  O  O353  1  0.73997572  0.88751297  0.25879001  1
  O  O354  1  0.74735860  0.88200529  0.73632908  1
  O  O355  1  0.26111495  0.11681023  0.25789794  1
  O  O356  1  0.26539321  0.12670188  0.74775734  1
  O  O357  1  0.24986761  0.60981683  0.25484276  1
  O  O358  1  0.25149721  0.61522657  0.75343272  1
  O  O359  1  0.75540611  0.11996711  0.25977270  1
  O  O360  1  0.76041459  0.10595740  0.73472311  1
  O  O361  1  0.76644368  0.62500134  0.25981893  1
  O  O362  1  0.76522481  0.61801039  0.74738122  1
  O  O363  1  0.36892417  0.11784921  0.36493730  1
  O  O364  1  0.37327638  0.13225347  0.86662136  1
  O  O365  1  0.38211304  0.60699033  0.37605733  1
  O  O366  1  0.36596732  0.62536910  0.87342019  1
  O  O367  1  0.86716745  0.11748850  0.37130597  1
  O  O368  1  0.87731774  0.11047746  0.87112341  1
  O  O369  1  0.87297916  0.61974391  0.37288292  1
  O  O370  1  0.87314976  0.61902652  0.86611236  1
  O  O371  1  0.13282678  0.38135041  0.13640846  1
  O  O372  1  0.13045778  0.38092083  0.61996238  1
  O  O373  1  0.12810533  0.87508821  0.13222459  1
  O  O374  1  0.12695520  0.88153940  0.63172431  1
  O  O375  1  0.63449256  0.38477518  0.13190282  1
  O  O376  1  0.62633692  0.38940322  0.62918217  1
  O  O377  1  0.62051583  0.89430194  0.13965271  1
  O  O378  1  0.63935540  0.87313888  0.61883190  1
  O  O379  1  0.12287128  0.26385471  0.25654211  1
  O  O380  1  0.10885618  0.24813297  0.74550106  1
  O  O381  1  0.12049863  0.75030526  0.25874174  1
  O  O382  1  0.12347236  0.76137790  0.75410880  1
  O  O383  1  0.61252896  0.24696140  0.25242487  1
  O  O384  1  0.61184574  0.26921681  0.72994795  1
  O  O385  1  0.61969711  0.75972940  0.24689562  1
  O  O386  1  0.61039861  0.75024357  0.73739124  1
  O  O387  1  0.38392265  0.24630214  0.24501842  1
  O  O388  1  0.38374461  0.23905551  0.74398337  1
  O  O389  1  0.38288674  0.74784198  0.25333972  1
  O  O390  1  0.38678823  0.74459082  0.73572834  1
  O  O391  1  0.87646954  0.23449079  0.25768696  1
  O  O392  1  0.88080986  0.24902048  0.73697219  1
  O  O393  1  0.88580594  0.74559679  0.24782180  1
  O  O394  1  0.87713991  0.74059771  0.73302541  1
  O  O395  1  0.39081293  0.50263810  0.50061451  1
  O  O396  1  0.38055796  0.48846637  1.01362093  1
  O  O397  1  0.38261770  0.99486461  0.49256781  1
  O  O398  1  0.37607375  1.00235615  1.02142083  1
  O  O399  1  0.88124845  0.49379757  0.49588139  1
  O  O400  1  0.86455061  0.50810136  0.98795193  1
  O  O401  1  0.88741073  0.99581886  0.49596793  1
  O  O402  1  0.87609175  1.00163939  0.99153202  1
  O  O403  1  0.11140840  -0.00627522  0.01454211  1
  O  O404  1  0.11437317  -0.00732577  0.50831793  1
  O  O405  1  0.11964324  0.50375269  0.01663955  1
  O  O406  1  0.11942077  0.50555998  0.50474922  1
  O  O407  1  0.63185173  0.00172499  0.01542462  1
  O  O408  1  0.61690795  0.01222346  0.49845412  1
  O  O409  1  0.62316628  0.49333962  0.01601098  1
  O  O410  1  0.62122634  0.50554756  0.50691805  1
  O  O411  1  0.36962864  0.37150490  0.12652706  1
  O  O412  1  0.37090608  0.35628961  0.62464244  1
  O  O413  1  0.35929302  0.86422930  0.13173511  1
  O  O414  1  0.37168123  0.86672932  0.61926519  1
  O  O415  1  0.86008124  0.37928062  0.13366655  1
  O  O416  1  0.87408088  0.36767085  0.61739619  1
  O  O417  1  0.88509707  0.85999701  0.13020972  1
  O  O418  1  0.87459264  0.86571567  0.61936276  1
  O  O419  1  0.13986867  0.12380954  0.36633182  1
  O  O420  1  0.12488684  0.13492873  0.87620336  1
  O  O421  1  0.12040442  0.63250294  0.38746854  1
  O  O422  1  0.12353555  0.63370285  0.88287317  1
  O  O423  1  0.63819851  0.12139266  0.38549523  1
  O  O424  1  0.61683943  0.14828892  0.83409587  1
  O  O425  1  0.63231377  0.63077183  0.37709542  1
  O  O426  1  0.63857004  0.63034626  0.86824700  1
