# generated using pymatgen
data_V85Zn86O256
_symmetry_space_group_name_H-M   'P 1'
_cell_length_a   16.92737815
_cell_length_b   16.93096284
_cell_length_c   16.92817784
_cell_angle_alpha   89.97085974
_cell_angle_beta   89.88542698
_cell_angle_gamma   90.05213282
_symmetry_Int_Tables_number   1
_chemical_formula_structural   V85Zn86O256
_chemical_formula_sum   'V85 Zn86 O256'
_cell_volume   4851.54943541
_cell_formula_units_Z   1
loop_
 _symmetry_equiv_pos_site_id
 _symmetry_equiv_pos_as_xyz
  1  'x, y, z'
loop_
 _atom_site_type_symbol
 _atom_site_label
 _atom_site_symmetry_multiplicity
 _atom_site_fract_x
 _atom_site_fract_y
 _atom_site_fract_z
 _atom_site_occupancy
  V  V0  1  0.10034111  0.86154469  0.75062328  1
  V  V1  1  0.49757878  0.25135986  0.24656969  1
  V  V2  1  0.25075609  0.86957237  0.11982892  1
  V  V3  1  0.50303690  0.87896973  0.86378451  1
  V  V4  1  0.74929398  -0.00177392  0.75291179  1
  V  V5  1  -0.00557026  0.62438531  0.64070918  1
  V  V6  1  0.87555805  0.62480527  0.24908920  1
  V  V7  1  0.12086846  0.62472772  0.50069610  1
  V  V8  1  0.75265582  0.49551948  0.24228604  1
  V  V9  1  0.36926177  0.12374132  0.75113949  1
  V  V10  1  0.00405867  0.24788709  0.75634035  1
  V  V11  1  0.62769969  0.37462290  0.24955307  1
  V  V12  1  0.49644346  0.00059424  0.50040047  1
  V  V13  1  0.75007656  0.12034395  0.36718595  1
  V  V14  1  0.75171315  0.74865295  0.50083646  1
  V  V15  1  0.75839845  0.12675202  0.86900911  1
  V  V16  1  0.75023864  0.62344667  0.37480074  1
  V  V17  1  0.24019740  0.13901811  0.87591488  1
  V  V18  1  0.37805266  0.50765649  0.87208986  1
  V  V19  1  0.25250119  0.25545281  0.49371453  1
  V  V20  1  0.88174016  0.87699700  -0.00463848  1
  V  V21  1  0.00070858  0.49645137  0.49592845  1
  V  V22  1  0.87654995  0.11888312  0.23868523  1
  V  V23  1  0.11993023  0.37692886  0.25217457  1
  V  V24  1  0.24568190  0.00281965  0.24341753  1
  V  V25  1  0.87670869  0.24284615  0.63114114  1
  V  V26  1  0.87328788  -0.00143710  0.37122641  1
  V  V27  1  0.12630469  0.37281836  0.76262816  1
  V  V28  1  0.37368693  0.86704934  -0.00087834  1
  V  V29  1  0.49696126  0.49746537  0.00450414  1
  V  V30  1  0.49824947  0.12819310  0.12409395  1
  V  V31  1  0.36769408  0.00489969  0.37356153  1
  V  V32  1  0.12027299  0.74990394  0.89114610  1
  V  V33  1  0.88101530  0.37049258  0.49550067  1
  V  V34  1  0.62629568  0.12127570  0.50004986  1
  V  V35  1  0.74326039  0.87371851  0.63049137  1
  V  V36  1  0.88855340  0.00256054  0.87134554  1
  V  V37  1  0.49425620  0.37137641  0.37782012  1
  V  V38  1  0.12393582  0.49641499  0.62838049  1
  V  V39  1  0.62176032  0.74984142  0.37615106  1
  V  V40  1  0.62723576  0.25043867  0.87348006  1
  V  V41  1  -0.00120582  0.24505646  0.25170926  1
  V  V42  1  0.12637782  0.13763097  0.00894003  1
  V  V43  1  0.49525470  0.87360977  0.37548489  1
  V  V44  1  0.01355076  -0.00064930  0.01357944  1
  V  V45  1  0.24720767  0.37232192  0.11528901  1
  V  V46  1  0.37366233  0.25671186  0.61986482  1
  V  V47  1  0.75159038  0.24659972  0.49920534  1
  V  V48  1  0.63163494  0.88112280  0.25209281  1
  V  V49  1  0.49943030  0.24949514  0.74938575  1
  V  V50  1  0.49692504  0.49753784  0.50051883  1
  V  V51  1  0.63233695  0.00278423  0.12956757  1
  V  V52  1  0.75818774  0.50940753  0.74885297  1
  V  V53  1  0.12389786  0.88008583  0.24500235  1
  V  V54  1  0.49490660  0.37279405  0.88075654  1
  V  V55  1  0.62504667  0.50056702  0.62512016  1
  V  V56  1  0.12954861  0.12354241  0.49793878  1
  V  V57  1  0.75159236  0.37354547  0.62603119  1
  V  V58  1  0.36825799  0.12784407  0.24955312  1
  V  V59  1  0.24784117  0.75730202  0.50943787  1
  V  V60  1  0.87795892  0.49881433  0.88035766  1
  V  V61  1  0.62079815  0.50867864  0.12783922  1
  V  V62  1  0.37475920  0.25675324  0.11042137  1
  V  V63  1  0.87311906  0.26596400  0.12292083  1
  V  V64  1  0.25362688  0.50910084  0.75175920  1
  V  V65  1  0.24456356  -0.01281106  0.74802353  1
  V  V66  1  0.75010505  0.75212251  0.00212112  1
  V  V67  1  0.87592113  0.74491227  0.64122180  1
  V  V68  1  0.38214645  0.62645584  0.24879696  1
  V  V69  1  0.87803604  0.87323909  0.50211595  1
  V  V70  1  0.24556639  0.49792857  0.24655666  1
  V  V71  1  0.00982604  0.62284934  0.12219546  1
  V  V72  1  0.62884707  0.12600815  -0.00217032  1
  V  V73  1  0.12352104  0.24841057  0.37446637  1
  V  V74  1  0.87585681  0.49562036  0.37509162  1
  V  V75  1  0.62002437  0.63006930  0.00217302  1
  V  V76  1  0.00131213  0.75081271  0.25108241  1
  V  V77  1  0.87458747  0.75073394  0.12370534  1
  V  V78  1  0.49691967  -0.00093496  0.00052801  1
  V  V79  1  0.49919364  0.12431042  0.62506219  1
  V  V80  1  0.00154502  0.12138897  0.62862609  1
  V  V81  1  0.00378342  0.49118463  0.00638547  1
  V  V82  1  0.24657045  0.62823567  0.37459309  1
  V  V83  1  0.36973511  0.49414918  0.38154626  1
  V  V84  1  0.62857722  0.75670361  0.86662919  1
  Zn  Zn85  1  0.76842951  0.26268518  -0.00565850  1
  Zn  Zn86  1  -0.00065067  0.87652448  0.37417834  1
  Zn  Zn87  1  0.25314873  0.37707323  0.62362008  1
  Zn  Zn88  1  0.14034339  0.62301831  0.00738598  1
  Zn  Zn89  1  0.75653644  0.62936073  0.87202282  1
  Zn  Zn90  1  0.62294089  0.62419341  0.49913650  1
  Zn  Zn91  1  0.48649021  0.62025311  0.63677621  1
  Zn  Zn92  1  0.00129827  -0.00023028  0.50033087  1
  Zn  Zn93  1  0.37866258  0.73919300  0.11466977  1
  Zn  Zn94  1  0.12176878  0.75342196  0.37638063  1
  Zn  Zn95  1  0.75322395  0.88132595  0.12872122  1
  Zn  Zn96  1  0.62475604  0.24788391  0.37307183  1
  Zn  Zn97  1  0.25756555  0.63630786  0.88504250  1
  Zn  Zn98  1  0.12779252  -0.00987037  0.62122930  1
  Zn  Zn99  1  0.36279182  0.88050434  0.50333712  1
  Zn  Zn100  1  0.62519764  0.37338234  0.74925712  1
  Zn  Zn101  1  0.62006948  -0.00501484  0.63415559  1
  Zn  Zn102  1  -0.00530832  0.36705338  0.88426898  1
  Zn  Zn103  1  0.36900461  0.00131249  0.87816333  1
  Zn  Zn104  1  0.49773289  0.73801112  0.75091746  1
  Zn  Zn105  1  0.50137303  0.74795808  0.24314535  1
  Zn  Zn106  1  0.37715341  0.75211456  0.63810573  1
  Zn  Zn107  1  0.18880542  0.19111722  0.18478602  1
  Zn  Zn108  1  0.18666407  0.18748958  0.68468599  1
  Zn  Zn109  1  0.19083946  0.69115349  0.18771869  1
  Zn  Zn110  1  0.18318730  0.68719799  0.69117629  1
  Zn  Zn111  1  0.69062628  0.19021959  0.18572363  1
  Zn  Zn112  1  0.68839161  0.18275066  0.68874565  1
  Zn  Zn113  1  0.68695230  0.68937382  0.18918520  1
  Zn  Zn114  1  0.68065038  0.68568872  0.68548423  1
  Zn  Zn115  1  0.30867512  0.31070964  0.31079608  1
  Zn  Zn116  1  0.31357434  0.31726045  0.81163174  1
  Zn  Zn117  1  0.30951060  0.81272709  0.31444467  1
  Zn  Zn118  1  0.31232387  0.80804711  0.81756080  1
  Zn  Zn119  1  0.81265392  0.30910961  0.31207962  1
  Zn  Zn120  1  0.81746568  0.31664767  0.81193758  1
  Zn  Zn121  1  0.81159822  0.81302291  0.31319679  1
  Zn  Zn122  1  0.81460550  0.81788312  0.81526047  1
  Zn  Zn123  1  0.18474867  0.43276116  0.43570892  1
  Zn  Zn124  1  0.18555959  0.44386189  0.93736832  1
  Zn  Zn125  1  0.18353384  0.93963726  0.42958980  1
  Zn  Zn126  1  0.18702522  0.93347982  0.92886668  1
  Zn  Zn127  1  0.68729881  0.43494884  0.43617721  1
  Zn  Zn128  1  0.69082650  0.43809858  0.93413210  1
  Zn  Zn129  1  0.68945711  0.93724170  0.44026626  1
  Zn  Zn130  1  0.69005924  0.93844426  0.93868104  1
  Zn  Zn131  1  0.30761531  0.06280432  0.06173339  1
  Zn  Zn132  1  0.30852210  0.06579455  0.56477729  1
  Zn  Zn133  1  0.31533842  0.55542224  0.06335134  1
  Zn  Zn134  1  0.30969273  0.56547421  0.56329645  1
  Zn  Zn135  1  0.81390348  0.06464240  0.05491857  1
  Zn  Zn136  1  0.81358155  0.05938818  0.56279116  1
  Zn  Zn137  1  0.81631977  0.56319249  0.05993763  1
  Zn  Zn138  1  0.81395451  0.56268985  0.56262099  1
  Zn  Zn139  1  0.43546026  0.43821876  0.18810711  1
  Zn  Zn140  1  0.43833398  0.43694669  0.69129287  1
  Zn  Zn141  1  0.43924177  0.93534181  0.18631828  1
  Zn  Zn142  1  0.42823144  0.93270626  0.68459775  1
  Zn  Zn143  1  0.94192921  0.43646185  0.18769745  1
  Zn  Zn144  1  0.93853122  0.43465965  0.68881656  1
  Zn  Zn145  1  0.93695431  0.93874056  0.18484780  1
  Zn  Zn146  1  0.93258225  0.93945603  0.68662635  1
  Zn  Zn147  1  0.06006171  0.06333348  0.31277022  1
  Zn  Zn148  1  0.06763509  0.06246419  0.81178058  1
  Zn  Zn149  1  0.06173629  0.56175136  0.31255388  1
  Zn  Zn150  1  0.06596155  0.56475630  0.82253252  1
  Zn  Zn151  1  0.55789815  0.06243996  0.31235398  1
  Zn  Zn152  1  0.56357822  0.06173991  0.81271088  1
  Zn  Zn153  1  0.56205541  0.56004988  0.31758414  1
  Zn  Zn154  1  0.57174875  0.56058121  0.81669929  1
  Zn  Zn155  1  0.43524563  0.18662121  0.43557369  1
  Zn  Zn156  1  0.43631202  0.18447669  0.93475107  1
  Zn  Zn157  1  0.43151765  0.68269096  0.44807070  1
  Zn  Zn158  1  0.44323558  0.68845257  0.93228044  1
  Zn  Zn159  1  0.94119253  0.18446673  0.43560283  1
  Zn  Zn160  1  0.94397377  0.18216888  0.94343991  1
  Zn  Zn161  1  0.93705290  0.68572882  0.44028679  1
  Zn  Zn162  1  0.94102270  0.68285616  0.93296710  1
  Zn  Zn163  1  0.06121119  0.31004122  0.07104989  1
  Zn  Zn164  1  0.06335896  0.31128266  0.56492018  1
  Zn  Zn165  1  0.06163023  0.81562552  0.06448309  1
  Zn  Zn166  1  0.06091979  0.80944863  0.56913510  1
  Zn  Zn167  1  0.60521786  0.33377564  0.04585745  1
  Zn  Zn168  1  0.56305075  0.31158443  0.56002611  1
  Zn  Zn169  1  0.55879659  0.81368960  0.06537221  1
  Zn  Zn170  1  0.55647125  0.81231749  0.56380489  1
  O  O171  1  0.13735398  0.12382770  0.10795099  1
  O  O172  1  0.11700115  0.12264875  0.61622263  1
  O  O173  1  0.11337112  0.62951762  0.12819091  1
  O  O174  1  0.11719191  0.61295842  0.62075426  1
  O  O175  1  0.62063018  0.12177208  0.11847241  1
  O  O176  1  0.61879885  0.12209815  0.61645856  1
  O  O177  1  0.62706380  0.61664286  0.12160458  1
  O  O178  1  0.62943357  0.60743270  0.61763884  1
  O  O179  1  0.38196509  0.38157365  0.36847050  1
  O  O180  1  0.38942212  0.38215842  0.87210385  1
  O  O181  1  0.38081702  0.88351549  0.37658768  1
  O  O182  1  0.38379672  0.88154833  0.88415802  1
  O  O183  1  0.86902248  0.37819426  0.38827280  1
  O  O184  1  0.87675998  0.38915296  0.87623532  1
  O  O185  1  0.87463838  0.88127008  0.38197933  1
  O  O186  1  0.87150549  0.88606254  0.88866727  1
  O  O187  1  0.26137590  -0.00363009  0.36258910  1
  O  O188  1  0.24941390  0.00925745  0.86049660  1
  O  O189  1  0.25384117  0.50415880  0.37012988  1
  O  O190  1  0.26220450  0.49747516  0.86827427  1
  O  O191  1  0.76185360  0.00725103  0.38055698  1
  O  O192  1  0.75801670  0.00698849  0.87154705  1
  O  O193  1  0.75507631  0.50456966  0.36732914  1
  O  O194  1  0.75558475  0.50090361  0.86531201  1
  O  O195  1  0.25780244  0.48689767  0.14030783  1
  O  O196  1  0.24137035  0.49852651  0.63075307  1
  O  O197  1  0.25645532  0.98953375  0.13808910  1
  O  O198  1  0.24467098  1.01017907  0.64369211  1
  O  O199  1  0.74467648  0.50644284  0.13795192  1
  O  O200  1  0.74713812  0.49098310  0.62819484  1
  O  O201  1  0.73586136  1.00184031  0.11711376  1
  O  O202  1  0.75267838  0.99170102  0.63459597  1
  O  O203  1  0.01351481  0.36904829  0.24740171  1
  O  O204  1  0.00858775  0.36589434  0.75050031  1
  O  O205  1  0.00570180  0.86768291  0.24744452  1
  O  O206  1  0.00219098  0.87538099  0.75385819  1
  O  O207  1  0.50457392  0.37169178  0.26021691  1
  O  O208  1  0.50262080  0.36441830  0.75612826  1
  O  O209  1  0.50833123  0.87581149  0.26318484  1
  O  O210  1  0.50202037  0.88750961  0.76328921  1
  O  O211  1  0.49061090  0.13035915  0.24332494  1
  O  O212  1  0.49038258  0.12915339  0.74694949  1
  O  O213  1  0.48462545  0.62376070  0.26082668  1
  O  O214  1  0.51483858  0.62290210  0.74668518  1
  O  O215  1  0.98878577  0.13210192  0.25329708  1
  O  O216  1  1.00883836  0.13180286  0.73751769  1
  O  O217  1  0.99447092  0.63031076  0.24445372  1
  O  O218  1  1.00224038  0.61273206  0.73884403  1
  O  O219  1  0.38070889  0.24830007  0.01138271  1
  O  O220  1  0.36493895  0.24181361  0.50681091  1
  O  O221  1  0.38029264  0.76312737  -0.00417912  1
  O  O222  1  0.35219469  0.75465764  0.48779427  1
  O  O223  1  0.88297651  0.24710310  0.01786137  1
  O  O224  1  0.87274793  0.25468577  0.50559090  1
  O  O225  1  0.87094981  0.75711055  0.00228468  1
  O  O226  1  0.86760773  0.75605762  0.50328340  1
  O  O227  1  0.12893740  0.24597324  0.49297036  1
  O  O228  1  0.11778374  0.23705209  1.00177706  1
  O  O229  1  0.12948733  0.74317906  0.49815493  1
  O  O230  1  0.12443806  0.74977951  0.99570417  1
  O  O231  1  0.63052452  0.23738048  0.49796469  1
  O  O232  1  0.61232687  0.23132265  0.99071997  1
  O  O233  1  0.63174953  0.75030083  0.48819837  1
  O  O234  1  0.63236878  0.74680103  0.99818988  1
  O  O235  1  0.49187793  0.24547112  0.13309747  1
  O  O236  1  0.49442774  0.24390554  0.62809151  1
  O  O237  1  0.49113452  0.75489122  0.13076090  1
  O  O238  1  0.50650969  0.74064718  0.62982733  1
  O  O239  1  0.98716498  0.25235167  0.14025989  1
  O  O240  1  0.99349162  0.24301788  0.63129562  1
  O  O241  1  0.99424821  0.74394848  0.13427103  1
  O  O242  1  0.98753804  0.73622773  0.62142957  1
  O  O243  1  0.00476736  0.24947101  0.36254226  1
  O  O244  1  -0.00970169  0.24835058  0.86026133  1
  O  O245  1  -0.00234298  0.74931813  0.36167994  1
  O  O246  1  0.01829697  0.74472009  0.87734216  1
  O  O247  1  0.50103925  0.25590833  0.36793718  1
  O  O248  1  0.50307303  0.25426824  0.86901835  1
  O  O249  1  0.50582456  0.75676861  0.37776979  1
  O  O250  1  0.51216793  0.76194405  0.87488990  1
  O  O251  1  0.23577089  0.13584106  0.50458956  1
  O  O252  1  0.23902277  0.11847013  0.98551602  1
  O  O253  1  0.23867625  0.63105352  0.49110323  1
  O  O254  1  0.25357490  0.61952774  0.99970771  1
  O  O255  1  0.74373327  0.12652813  0.49281942  1
  O  O256  1  0.74272728  0.13002195  0.98899125  1
  O  O257  1  0.74922131  0.62985021  0.49162794  1
  O  O258  1  0.74312014  0.63841216  1.00344459  1
  O  O259  1  0.24419764  0.38386488  0.01689144  1
  O  O260  1  0.24444560  0.36065053  0.50410365  1
  O  O261  1  0.26053793  0.88535271  0.00805942  1
  O  O262  1  0.24068285  0.86032513  0.49320210  1
  O  O263  1  0.71208296  0.35859643  0.00713247  1
  O  O264  1  0.75581467  0.36819455  0.50864134  1
  O  O265  1  0.75701851  0.86605544  0.00433764  1
  O  O266  1  0.76034779  0.86930780  0.50586012  1
  O  O267  1  0.13332344  0.49033447  0.25744752  1
  O  O268  1  0.12963322  0.49296296  0.74527894  1
  O  O269  1  0.13389919  0.99465460  0.25491283  1
  O  O270  1  0.13234339  0.98592042  0.75228094  1
  O  O271  1  0.63171980  0.49797498  0.24695162  1
  O  O272  1  0.63807876  0.49303282  0.74114976  1
  O  O273  1  0.61991233  0.99424786  0.24193739  1
  O  O274  1  0.64194218  1.00630820  0.74998765  1
  O  O275  1  0.37047929  0.00776153  0.25389432  1
  O  O276  1  0.36517267  0.01205071  0.74928257  1
  O  O277  1  0.36802895  0.50801844  0.26208011  1
  O  O278  1  0.36605622  0.49481900  0.75829330  1
  O  O279  1  0.87734609  0.00563983  0.25783866  1
  O  O280  1  0.86480879  -0.00304168  0.76132004  1
  O  O281  1  0.86943989  0.50160236  0.25469052  1
  O  O282  1  0.86575595  0.49316680  0.75613097  1
  O  O283  1  0.12684881  0.36030402  0.36666012  1
  O  O284  1  0.12010359  0.37770780  0.86538070  1
  O  O285  1  0.11903679  0.87319635  0.36039369  1
  O  O286  1  0.12564085  0.86181855  0.86251289  1
  O  O287  1  0.61623681  0.37392348  0.36500887  1
  O  O288  1  0.61384673  0.36649460  0.86913087  1
  O  O289  1  0.61994061  0.87090043  0.37052276  1
  O  O290  1  0.61634248  0.86815521  0.88498574  1
  O  O291  1  0.37803937  0.13253051  0.12976620  1
  O  O292  1  0.37972610  0.13351506  0.63223826  1
  O  O293  1  0.37126051  0.62119272  0.14590718  1
  O  O294  1  0.37959324  0.63958555  0.60358137  1
  O  O295  1  0.87092073  0.12163607  0.13717522  1
  O  O296  1  0.88447686  0.13396575  0.61692353  1
  O  O297  1  0.88235258  0.63194695  0.13174423  1
  O  O298  1  0.88191874  0.63284112  0.62179473  1
  O  O299  1  0.25928813  0.26431300  0.12800074  1
  O  O300  1  0.25823679  0.25117249  0.61703094  1
  O  O301  1  0.26072995  0.76503922  0.13285086  1
  O  O302  1  0.24488929  0.74471066  0.61048063  1
  O  O303  1  0.76983694  0.24404725  0.12440373  1
  O  O304  1  0.75748255  0.25271067  0.62034324  1
  O  O305  1  0.75650272  0.75363109  0.11989955  1
  O  O306  1  0.75378988  0.75457208  0.62016353  1
  O  O307  1  0.24086303  0.24949929  0.38232986  1
  O  O308  1  0.25421771  0.23762559  0.87224723  1
  O  O309  1  0.24278619  0.73825293  0.37691387  1
  O  O310  1  0.22970749  0.74878672  0.86753467  1
  O  O311  1  0.74841418  0.23979789  0.38263896  1
  O  O312  1  0.74895444  0.24374927  0.87409319  1
  O  O313  1  0.74313483  0.74408729  0.37955613  1
  O  O314  1  0.74611193  0.75239718  0.88504982  1
  O  O315  1  0.01754555  0.11232830  -0.00227872  1
  O  O316  1  0.01099976  0.12664759  0.50939244  1
  O  O317  1  0.00051047  0.61708219  0.01159579  1
  O  O318  1  0.00534251  0.61565271  0.50531378  1
  O  O319  1  0.50442792  0.11427456  0.00312877  1
  O  O320  1  0.50733897  0.12017256  0.50249459  1
  O  O321  1  0.51413938  0.61772889  -0.00510267  1
  O  O322  1  0.50428848  0.60587205  0.49335621  1
  O  O323  1  0.50406801  0.38119313  0.48673554  1
  O  O324  1  0.51283483  0.38513812  0.99202105  1
  O  O325  1  0.50292008  0.88394607  0.48682605  1
  O  O326  1  0.49384886  0.88692751  0.99612102  1
  O  O327  1  0.99129975  0.38186606  0.50525734  1
  O  O328  1  1.00429390  0.38694860  1.00469290  1
  O  O329  1  0.98808799  0.87222810  0.49913524  1
  O  O330  1  0.99422977  0.88717188  1.00291526  1
  O  O331  1  0.49106272  0.49054440  0.38042182  1
  O  O332  1  0.49850086  0.49161483  0.88158245  1
  O  O333  1  0.48848640  0.99444578  0.37942674  1
  O  O334  1  0.49954324  0.99679208  0.88480127  1
  O  O335  1  0.99346861  0.50285717  0.38807871  1
  O  O336  1  0.99390306  0.49759716  0.88770375  1
  O  O337  1  0.98658784  0.99879860  0.37918345  1
  O  O338  1  0.99100568  1.00665775  0.87993544  1
  O  O339  1  0.00318917  0.00050650  0.11225659  1
  O  O340  1  0.00001150  0.00871226  0.62216955  1
  O  O341  1  -0.00515514  0.50821436  0.11558407  1
  O  O342  1  0.00355247  0.50349919  0.61543332  1
  O  O343  1  0.50897680  0.00652028  0.11846651  1
  O  O344  1  0.50039151  0.00651576  0.61827382  1
  O  O345  1  0.50766435  0.49857870  0.11851714  1
  O  O346  1  0.50730971  0.49528133  0.61684397  1
  O  O347  1  0.24017460  0.38130261  0.24787057  1
  O  O348  1  0.24129356  0.38234148  0.74654839  1
  O  O349  1  0.24338937  0.88222244  0.24520136  1
  O  O350  1  0.25329364  0.88815512  0.75172170  1
  O  O351  1  0.74102240  0.38401153  0.25848766  1
  O  O352  1  0.75031806  0.37679997  0.73514995  1
  O  O353  1  0.73619960  0.87366882  0.24954500  1
  O  O354  1  0.75290361  0.88329699  0.74148313  1
  O  O355  1  0.26019562  0.11898089  0.24361304  1
  O  O356  1  0.25245057  0.12360125  0.75930585  1
  O  O357  1  0.25336093  0.61685862  0.25761713  1
  O  O358  1  0.24322248  0.61114325  0.75417932  1
  O  O359  1  0.75600653  0.12900163  0.26239192  1
  O  O360  1  0.75227701  0.11958672  0.76200310  1
  O  O361  1  0.75613469  0.61848750  0.25611933  1
  O  O362  1  0.74719416  0.61219591  0.74816669  1
  O  O363  1  0.37963433  0.11653261  0.36218843  1
  O  O364  1  0.36452429  0.12289155  0.86716790  1
  O  O365  1  0.36316451  0.61536938  0.37194733  1
  O  O366  1  0.37902493  0.61114582  0.87643106  1
  O  O367  1  0.86818927  0.11763256  0.36897717  1
  O  O368  1  0.86786267  0.11598255  0.88391086  1
  O  O369  1  0.87036726  0.61718937  0.36909209  1
  O  O370  1  0.87111790  0.60857455  0.87908034  1
  O  O371  1  0.13862717  0.36834942  0.13670093  1
  O  O372  1  0.12331691  0.38759731  0.63090052  1
  O  O373  1  0.13418534  0.87189737  0.13634320  1
  O  O374  1  0.11745128  0.87525126  0.64343696  1
  O  O375  1  0.61920616  0.39188910  0.14439360  1
  O  O376  1  0.63405079  0.38163485  0.62309006  1
  O  O377  1  0.62494058  0.88573621  0.13447311  1
  O  O378  1  0.64020188  0.87804580  0.61479459  1
  O  O379  1  0.11850359  0.25165676  0.25563626  1
  O  O380  1  0.11589379  0.26084602  0.74109977  1
  O  O381  1  0.11583421  0.75724096  0.25079154  1
  O  O382  1  0.11709508  0.75931145  0.75011847  1
  O  O383  1  0.61897481  0.25850740  0.24925675  1
  O  O384  1  0.61806594  0.24721057  0.75592131  1
  O  O385  1  0.62289564  0.75710272  0.26200132  1
  O  O386  1  0.63060808  0.75210153  0.76446282  1
  O  O387  1  0.37824924  0.24230183  0.24528507  1
  O  O388  1  0.37811959  0.24029582  0.74305135  1
  O  O389  1  0.37468468  0.73241230  0.25963324  1
  O  O390  1  0.38460783  0.75559680  0.75375525  1
  O  O391  1  0.88002787  0.24239119  0.24454803  1
  O  O392  1  0.88293523  0.25573224  0.73575763  1
  O  O393  1  0.88102378  0.74713263  0.24451272  1
  O  O394  1  0.86915467  0.75070476  0.74039548  1
  O  O395  1  0.37908672  0.49775583  0.48915652  1
  O  O396  1  0.39194908  0.49857703  0.99403381  1
  O  O397  1  0.37480704  1.00341758  0.49070953  1
  O  O398  1  0.38398138  0.99656890  1.00029641  1
  O  O399  1  0.88154969  0.49070315  0.49694635  1
  O  O400  1  0.88737626  0.50065093  0.99475371  1
  O  O401  1  0.87644182  0.98940350  0.49383507  1
  O  O402  1  0.88637771  0.99501150  0.99508748  1
  O  O403  1  0.11500186  -0.00103805  -0.00582582  1
  O  O404  1  0.12372912  0.00787982  0.50001187  1
  O  O405  1  0.10768350  0.50488831  -0.00234731  1
  O  O406  1  0.11815171  0.50172755  0.50621162  1
  O  O407  1  0.61896479  0.00994206  0.00508615  1
  O  O408  1  0.62000607  0.01073405  0.50013360  1
  O  O409  1  0.62103264  0.51085633  0.00962188  1
  O  O410  1  0.61700012  0.49660716  0.50611637  1
  O  O411  1  0.36240811  0.36736084  0.13286104  1
  O  O412  1  0.37638720  0.36013708  0.62815802  1
  O  O413  1  0.36939865  0.87652044  0.11532592  1
  O  O414  1  0.37935866  0.86609346  0.61290879  1
  O  O415  1  0.87146893  0.36462313  0.13141702  1
  O  O416  1  0.86904346  0.36724293  0.61454424  1
  O  O417  1  0.87317643  0.87031759  0.11479998  1
  O  O418  1  0.86722548  0.86631591  0.61831197  1
  O  O419  1  0.11876148  0.13709320  0.38313820  1
  O  O420  1  0.13573585  0.12696071  0.88057577  1
  O  O421  1  0.13098246  0.62478550  0.38148109  1
  O  O422  1  0.12951236  0.63569085  0.88365167  1
  O  O423  1  0.63225780  0.12351294  0.38024905  1
  O  O424  1  0.63372190  0.12913174  0.88052144  1
  O  O425  1  0.63105500  0.63330804  0.37507584  1
  O  O426  1  0.63426720  0.63566164  0.88706217  1
