# generated using pymatgen
data_V85Zn86O256
_symmetry_space_group_name_H-M   'P 1'
_cell_length_a   16.91461344
_cell_length_b   16.92249070
_cell_length_c   16.92109118
_cell_angle_alpha   89.98850236
_cell_angle_beta   90.01791610
_cell_angle_gamma   90.06069264
_symmetry_Int_Tables_number   1
_chemical_formula_structural   V85Zn86O256
_chemical_formula_sum   'V85 Zn86 O256'
_cell_volume   4843.44590074
_cell_formula_units_Z   1
loop_
 _symmetry_equiv_pos_site_id
 _symmetry_equiv_pos_as_xyz
  1  'x, y, z'
loop_
 _atom_site_type_symbol
 _atom_site_label
 _atom_site_symmetry_multiplicity
 _atom_site_fract_x
 _atom_site_fract_y
 _atom_site_fract_z
 _atom_site_occupancy
  V  V0  1  0.74618992  0.74845313  -0.01312063  1
  V  V1  1  0.87591170  0.37734060  0.50108679  1
  V  V2  1  0.75342902  0.86973638  0.63136396  1
  V  V3  1  0.25838169  -0.00045612  0.75449208  1
  V  V4  1  0.37669786  0.37549086  0.50058276  1
  V  V5  1  0.24927042  0.49979567  0.24877024  1
  V  V6  1  0.01221760  0.50220151  0.50087687  1
  V  V7  1  0.50089808  0.49968261  0.00401349  1
  V  V8  1  0.62937191  0.38746915  0.24856389  1
  V  V9  1  -0.00504443  0.12190560  0.62773993  1
  V  V10  1  0.11733220  0.36878568  0.24861871  1
  V  V11  1  0.49581311  0.86365577  0.87444369  1
  V  V12  1  0.62597442  0.75149812  0.37641090  1
  V  V13  1  0.75369063  0.00366005  0.26041761  1
  V  V14  1  0.87348284  0.62430581  0.25178377  1
  V  V15  1  0.12596412  0.12275524  0.00199848  1
  V  V16  1  0.38330544  0.12256696  0.24727968  1
  V  V17  1  -0.00257417  0.12962184  0.13035827  1
  V  V18  1  0.74672522  0.01476479  0.75164326  1
  V  V19  1  0.87330560  0.87985800  0.49828988  1
  V  V20  1  0.37931923  0.74429640  0.64381293  1
  V  V21  1  0.75369079  0.74834169  0.50549596  1
  V  V22  1  0.63941481  0.13139056  -0.00914715  1
  V  V23  1  0.49968631  0.75343809  0.25072422  1
  V  V24  1  0.12458519  0.49886903  0.12399465  1
  V  V25  1  0.00657912  0.75460804  0.25034484  1
  V  V26  1  0.74784575  0.62070304  0.37267848  1
  V  V27  1  0.25204237  0.24874874  0.00162122  1
  V  V28  1  0.25169136  0.37279642  0.12527457  1
  V  V29  1  0.86931899  0.50764613  0.87528415  1
  V  V30  1  0.24477367  0.62578934  0.37712610  1
  V  V31  1  0.12434923  0.12387818  0.50022966  1
  V  V32  1  0.86972096  0.01077985  0.86962838  1
  V  V33  1  0.62342698  0.87849449  0.24650119  1
  V  V34  1  0.12173329  0.75180655  0.38468864  1
  V  V35  1  0.12306496  -0.00363164  0.12938087  1
  V  V36  1  0.11890083  0.24796369  0.37138783  1
  V  V37  1  0.49746146  0.00963208  -0.00760075  1
  V  V38  1  0.62166445  0.01373772  0.12425852  1
  V  V39  1  -0.00174052  0.37346876  0.87779580  1
  V  V40  1  0.24956804  -0.00228422  0.25041611  1
  V  V41  1  0.37176826  0.50245746  0.86601922  1
  V  V42  1  -0.00444471  -0.00316777  -0.00047392  1
  V  V43  1  0.87244092  0.49974587  0.37382382  1
  V  V44  1  0.50819067  0.25107536  0.75031225  1
  V  V45  1  0.49961452  0.37276769  0.37210794  1
  V  V46  1  0.37437568  0.62487724  0.24842148  1
  V  V47  1  0.25101570  0.24905138  0.50071990  1
  V  V48  1  0.24680232  0.87430156  0.12723644  1
  V  V49  1  0.61857391  0.49912811  0.63067076  1
  V  V50  1  -0.00381473  0.74990054  0.74104679  1
  V  V51  1  0.12320768  0.87728561  0.74857134  1
  V  V52  1  0.75409763  0.38853654  0.13349488  1
  V  V53  1  0.49841671  0.87822662  0.38891269  1
  V  V54  1  0.87158550  0.75323845  0.12320251  1
  V  V55  1  0.13194370  0.38101611  0.74533399  1
  V  V56  1  0.62699625  0.62700491  -0.01889809  1
  V  V57  1  0.38545377  0.24743783  0.12505245  1
  V  V58  1  0.37791970  -0.00336544  0.38682126  1
  V  V59  1  -0.00245996  0.88242656  0.37228592  1
  V  V60  1  0.62487960  0.86163399  0.75919072  1
  V  V61  1  0.12346289  0.75026310  0.87281858  1
  V  V62  1  0.62260890  0.11782676  0.49862166  1
  V  V63  1  0.74429742  0.37778066  0.62905896  1
  V  V64  1  0.62969251  0.24557773  0.37164628  1
  V  V65  1  0.50951660  0.37661111  0.86997229  1
  V  V66  1  0.81578819  0.31929052  -0.03815662  1
  V  V67  1  0.26180052  0.75421162  0.49655073  1
  V  V68  1  0.87469834  0.12599362  0.26465151  1
  V  V69  1  0.12620817  0.62571777  -0.00203468  1
  V  V70  1  0.12781462  0.24876903  0.87526721  1
  V  V71  1  0.87378958  0.24751887  0.62767381  1
  V  V72  1  0.51259563  0.62252935  0.12742364  1
  V  V73  1  0.12370291  -0.00072693  0.62483100  1
  V  V74  1  0.75030586  0.24337088  0.49735555  1
  V  V75  1  0.86836796  0.24860656  0.12917577  1
  V  V76  1  0.00116334  0.24599613  0.74992861  1
  V  V77  1  -0.00078817  0.62605355  0.12524742  1
  V  V78  1  0.26029171  0.12056128  0.87679879  1
  V  V79  1  0.37651634  0.75145409  0.12029058  1
  V  V80  1  -0.00567790  0.49472910  0.00008891  1
  V  V81  1  0.86686775  0.62703719  0.74248924  1
  V  V82  1  0.25690131  0.87729525  0.61906265  1
  V  V83  1  0.49841759  0.11646228  0.62372153  1
  V  V84  1  0.01218527  0.62083304  0.62138893  1
  Zn  Zn85  1  0.86828126  0.87519756  -0.00516955  1
  Zn  Zn86  1  0.37379603  0.88264244  -0.00404234  1
  Zn  Zn87  1  0.62177865  0.62267174  0.50052569  1
  Zn  Zn88  1  0.50821400  0.24573833  0.24361772  1
  Zn  Zn89  1  0.24902560  0.75292345  -0.00028378  1
  Zn  Zn90  1  0.62106735  -0.00468853  0.62382718  1
  Zn  Zn91  1  -0.00388327  0.87645346  0.87174320  1
  Zn  Zn92  1  0.25128116  0.12300999  0.37489624  1
  Zn  Zn93  1  0.37652814  0.24920251  0.62890447  1
  Zn  Zn94  1  0.25753919  0.63016585  0.87107221  1
  Zn  Zn95  1  0.49331022  0.62814346  0.62502905  1
  Zn  Zn96  1  0.24860764  0.37949911  0.62122324  1
  Zn  Zn97  1  0.63939685  0.25385235  0.87550459  1
  Zn  Zn98  1  0.25159780  0.51981661  0.72865595  1
  Zn  Zn99  1  -0.00155717  0.37426388  0.37309021  1
  Zn  Zn100  1  0.38008093  0.12475524  0.75307701  1
  Zn  Zn101  1  0.74272568  0.50061862  0.75689657  1
  Zn  Zn102  1  -0.00687874  0.00167814  0.49674837  1
  Zn  Zn103  1  0.50112845  0.50182475  0.49818455  1
  Zn  Zn104  1  0.37823472  0.37544309  0.00002119  1
  Zn  Zn105  1  0.37599293  0.49989583  0.37333252  1
  Zn  Zn106  1  0.74759611  0.87613766  0.12214734  1
  Zn  Zn107  1  0.19240485  0.18390598  0.18937159  1
  Zn  Zn108  1  0.18781692  0.18798375  0.68753389  1
  Zn  Zn109  1  0.18609784  0.68967146  0.18908852  1
  Zn  Zn110  1  0.18990317  0.69089837  0.68546725  1
  Zn  Zn111  1  0.69215468  0.18918707  0.18621055  1
  Zn  Zn112  1  0.68122829  0.18947343  0.68464086  1
  Zn  Zn113  1  0.69083363  0.68997161  0.18941625  1
  Zn  Zn114  1  0.68145460  0.68343174  0.68886493  1
  Zn  Zn115  1  0.31050614  0.30878682  0.31228806  1
  Zn  Zn116  1  0.32029189  0.31287900  0.81416814  1
  Zn  Zn117  1  0.31320391  0.81503426  0.31117266  1
  Zn  Zn118  1  0.31023247  0.81601999  0.81519771  1
  Zn  Zn119  1  0.81292314  0.31081931  0.31287878  1
  Zn  Zn120  1  0.81494772  0.31288470  0.79905394  1
  Zn  Zn121  1  0.81288000  0.81322014  0.31264827  1
  Zn  Zn122  1  0.81595170  0.81515166  0.81317985  1
  Zn  Zn123  1  0.19004990  0.43579725  0.43529653  1
  Zn  Zn124  1  0.18739799  0.43567568  0.93659533  1
  Zn  Zn125  1  0.18378721  0.93588716  0.43554437  1
  Zn  Zn126  1  0.18570972  0.93584965  0.93923654  1
  Zn  Zn127  1  0.68636148  0.43533224  0.44207679  1
  Zn  Zn128  1  0.68174263  0.44714402  0.94040321  1
  Zn  Zn129  1  0.68747109  0.93485089  0.43744150  1
  Zn  Zn130  1  0.68641834  0.93887882  0.93674158  1
  Zn  Zn131  1  0.31598908  0.06260824  0.06476609  1
  Zn  Zn132  1  0.31287624  0.06470810  0.56497750  1
  Zn  Zn133  1  0.31474348  0.56333428  0.05936405  1
  Zn  Zn134  1  0.30904610  0.56191517  0.55789626  1
  Zn  Zn135  1  0.81080980  0.05963602  0.06739809  1
  Zn  Zn136  1  0.80933862  0.05998753  0.56565249  1
  Zn  Zn137  1  0.81036277  0.56699074  0.06065779  1
  Zn  Zn138  1  0.81299917  0.56234375  0.56253169  1
  Zn  Zn139  1  0.43948033  0.43644679  0.18807784  1
  Zn  Zn140  1  0.43696614  0.43419795  0.68791542  1
  Zn  Zn141  1  0.43957116  0.93934770  0.18396952  1
  Zn  Zn142  1  0.43892527  0.93356954  0.68955814  1
  Zn  Zn143  1  0.93415102  0.43771205  0.18862227  1
  Zn  Zn144  1  0.93927124  0.43916073  0.68767257  1
  Zn  Zn145  1  0.93429214  0.93791924  0.18830270  1
  Zn  Zn146  1  0.93108456  0.93741340  0.68754433  1
  Zn  Zn147  1  0.06283739  0.06236529  0.31136510  1
  Zn  Zn148  1  0.06512585  0.06274665  0.81411549  1
  Zn  Zn149  1  0.06162123  0.56255001  0.31370790  1
  Zn  Zn150  1  0.06128013  0.56345646  0.81125031  1
  Zn  Zn151  1  0.56165926  0.06227061  0.31522081  1
  Zn  Zn152  1  0.56556301  0.06320847  0.81472531  1
  Zn  Zn153  1  0.56215675  0.56166695  0.31384368  1
  Zn  Zn154  1  0.54987813  0.56860049  0.80340938  1
  Zn  Zn155  1  0.44006708  0.18671899  0.43607751  1
  Zn  Zn156  1  0.44307350  0.18995671  0.93868402  1
  Zn  Zn157  1  0.43846500  0.68573008  0.43864962  1
  Zn  Zn158  1  0.43919057  0.68527267  0.93662942  1
  Zn  Zn159  1  0.93978867  0.18889532  0.44115934  1
  Zn  Zn160  1  0.94095928  0.18103663  0.93737720  1
  Zn  Zn161  1  0.93454461  0.69007045  0.44175813  1
  Zn  Zn162  1  0.93733964  0.68731759  0.93405475  1
  Zn  Zn163  1  0.06009486  0.30931134  0.06441891  1
  Zn  Zn164  1  0.06196661  0.31332496  0.56135976  1
  Zn  Zn165  1  0.06207026  0.81431787  0.06325978  1
  Zn  Zn166  1  0.06243562  0.81108596  0.56143057  1
  Zn  Zn167  1  0.57074148  0.31568870  0.06178243  1
  Zn  Zn168  1  0.56243735  0.30962150  0.56279000  1
  Zn  Zn169  1  0.56323325  0.81374511  0.05821666  1
  Zn  Zn170  1  0.56668218  0.81133897  0.56744624  1
  O  O171  1  0.11680444  0.11919760  0.12333717  1
  O  O172  1  0.11550030  0.12110224  0.62036307  1
  O  O173  1  0.11919101  0.62044388  0.11898993  1
  O  O174  1  0.11080415  0.62866005  0.62394231  1
  O  O175  1  0.62688508  0.11822699  0.11909840  1
  O  O176  1  0.61735552  0.12171613  0.61593586  1
  O  O177  1  0.61389381  0.62818724  0.12997018  1
  O  O178  1  0.62680607  0.60971799  0.62048106  1
  O  O179  1  0.38369180  0.37271339  0.37769494  1
  O  O180  1  0.38584850  0.38556373  0.88021326  1
  O  O181  1  0.38327450  0.88771384  0.36978706  1
  O  O182  1  0.38967024  0.87405836  0.87655340  1
  O  O183  1  0.87671921  0.38208441  0.37985002  1
  O  O184  1  0.87858545  0.37498150  0.88486608  1
  O  O185  1  0.88408700  0.86948608  0.38460004  1
  O  O186  1  0.87913324  0.88831315  0.87704247  1
  O  O187  1  0.25975433  -0.00377848  0.36706910  1
  O  O188  1  0.24210803  0.00828893  0.86688021  1
  O  O189  1  0.24984327  0.50968248  0.36710344  1
  O  O190  1  0.26699418  0.49742724  0.88158605  1
  O  O191  1  0.74467448  -0.00110091  0.35910702  1
  O  O192  1  0.75848550  -0.00147829  0.86356523  1
  O  O193  1  0.75840772  0.50886292  0.38256005  1
  O  O194  1  0.76453458  0.49353501  0.87533732  1
  O  O195  1  0.24439160  0.49396346  0.12741681  1
  O  O196  1  0.24996588  0.49280924  0.62072390  1
  O  O197  1  0.24627952  0.99399350  0.13109158  1
  O  O198  1  0.24503011  0.99433370  0.63123442  1
  O  O199  1  0.76310054  0.48754910  0.12957085  1
  O  O200  1  0.74117406  0.49236737  0.62302016  1
  O  O201  1  0.73858902  0.99617004  0.13410371  1
  O  O202  1  0.74841031  0.99153057  0.63925038  1
  O  O203  1  0.01366222  0.37768852  0.24922905  1
  O  O204  1  0.00667442  0.36450530  0.75492670  1
  O  O205  1  -0.00874238  0.86649093  0.25899602  1
  O  O206  1  0.00327500  0.86630282  0.74588592  1
  O  O207  1  0.50974376  0.37116546  0.25485021  1
  O  O208  1  0.49790088  0.36620896  0.75925924  1
  O  O209  1  0.50696856  0.87150358  0.25500674  1
  O  O210  1  0.51265464  0.88171395  0.76364570  1
  O  O211  1  0.48845939  0.12577929  0.25151296  1
  O  O212  1  0.50091762  0.12984959  0.74442743  1
  O  O213  1  0.49410173  0.63102561  0.24567741  1
  O  O214  1  0.49751002  0.63435221  0.73600007  1
  O  O215  1  0.98492457  0.11527432  0.24296507  1
  O  O216  1  1.00769768  0.13744810  0.74308814  1
  O  O217  1  0.99394722  0.63266189  0.24408856  1
  O  O218  1  0.99554315  0.62928488  0.73861717  1
  O  O219  1  0.37023309  0.25064744  0.00812544  1
  O  O220  1  0.36677914  0.25675294  0.49658537  1
  O  O221  1  0.37291801  0.74914028  0.01127802  1
  O  O222  1  0.36293776  0.75628240  0.49295337  1
  O  O223  1  0.88098167  0.25055488  0.00866956  1
  O  O224  1  0.87024537  0.25438785  0.50897582  1
  O  O225  1  0.86874271  0.74781741  0.00686691  1
  O  O226  1  0.86107181  0.76053109  0.49793596  1
  O  O227  1  0.13081007  0.24463364  0.49428554  1
  O  O228  1  0.13082080  0.24242844  0.99672480  1
  O  O229  1  0.13274789  0.75065767  0.48894219  1
  O  O230  1  0.12161512  0.74315966  0.99190756  1
  O  O231  1  0.63342298  0.24315030  0.49337963  1
  O  O232  1  0.62247013  0.23476462  0.99885764  1
  O  O233  1  0.63585819  0.74939771  0.49385713  1
  O  O234  1  0.63076761  0.73571105  1.00362210  1
  O  O235  1  0.48887797  0.25719455  0.12447722  1
  O  O236  1  0.50260695  0.24035561  0.63421996  1
  O  O237  1  0.49338131  0.74545391  0.12980897  1
  O  O238  1  0.47995513  0.75824606  0.62085475  1
  O  O239  1  0.99130689  0.23622007  0.12278469  1
  O  O240  1  0.99415926  0.24346259  0.63004217  1
  O  O241  1  0.99417737  0.74707767  0.13192149  1
  O  O242  1  1.00141065  0.74004494  0.63367545  1
  O  O243  1  0.01419814  0.25394389  0.38076520  1
  O  O244  1  0.00432805  0.25214085  0.86819606  1
  O  O245  1  0.00509527  0.75407556  0.37017787  1
  O  O246  1  0.00830118  0.75108594  0.86354666  1
  O  O247  1  0.50894642  0.25914610  0.37113604  1
  O  O248  1  0.50197699  0.26046293  0.86968592  1
  O  O249  1  0.50517522  0.75770617  0.36904763  1
  O  O250  1  0.50180283  0.76483211  0.88254512  1
  O  O251  1  0.24218243  0.13091860  0.49838820  1
  O  O252  1  0.24544303  0.12652210  0.99517533  1
  O  O253  1  0.25431619  0.63489233  0.48285132  1
  O  O254  1  0.23639740  0.62676620  0.99792392  1
  O  O255  1  0.74396513  0.13722057  0.50812039  1
  O  O256  1  0.73802539  0.12181124  1.00303883  1
  O  O257  1  0.75180945  0.63298872  0.49029726  1
  O  O258  1  0.73328136  0.62928106  1.00342023  1
  O  O259  1  0.25037215  0.36794262  0.00925981  1
  O  O260  1  0.25803117  0.36557815  0.49620311  1
  O  O261  1  0.25376717  0.87578666  0.01146160  1
  O  O262  1  0.24357355  0.86855149  0.50948494  1
  O  O263  1  0.74835520  0.38188270  0.01381926  1
  O  O264  1  0.75644411  0.36390017  0.50881948  1
  O  O265  1  0.74700644  0.86512778  0.00268475  1
  O  O266  1  0.75289209  0.86953073  0.50813941  1
  O  O267  1  0.12945115  0.49309881  0.24268736  1
  O  O268  1  0.12485539  0.48260041  0.75917700  1
  O  O269  1  0.14087247  1.00643063  0.24544867  1
  O  O270  1  0.13100019  0.99530887  0.74361451  1
  O  O271  1  0.62556295  0.48699485  0.25411691  1
  O  O272  1  0.62638513  0.50120861  0.73594469  1
  O  O273  1  0.63106196  0.99850517  0.24411509  1
  O  O274  1  0.63845582  0.99389039  0.75184884  1
  O  O275  1  0.36768757  0.00542547  0.25162904  1
  O  O276  1  0.36137270  0.00165276  0.74781480  1
  O  O277  1  0.36753771  0.50686606  0.24983567  1
  O  O278  1  0.36981964  0.49385075  0.76252892  1
  O  O279  1  0.86157500  0.00893361  0.24630742  1
  O  O280  1  0.86166332  -0.00224140  0.75909976  1
  O  O281  1  0.88213384  0.50765489  0.26508285  1
  O  O282  1  0.87526006  0.50948126  0.75704974  1
  O  O283  1  0.12527915  0.36687997  0.36471576  1
  O  O284  1  0.11861268  0.36705566  0.86879543  1
  O  O285  1  0.11272678  0.86430389  0.37647528  1
  O  O286  1  0.11903155  0.86849736  0.86863836  1
  O  O287  1  0.62108797  0.36562682  0.36920752  1
  O  O288  1  0.61393588  0.37565139  0.88086499  1
  O  O289  1  0.61826434  0.87374351  0.36415694  1
  O  O290  1  0.61848165  0.87684789  0.86494716  1
  O  O291  1  0.37133490  0.13532245  0.13432011  1
  O  O292  1  0.38368025  0.12896068  0.62698015  1
  O  O293  1  0.38086038  0.63285067  0.13087138  1
  O  O294  1  0.36923354  0.64320970  0.61762925  1
  O  O295  1  0.87975962  0.13055211  0.13191402  1
  O  O296  1  0.88680192  0.13143753  0.61970727  1
  O  O297  1  0.87950265  0.63467678  0.12981945  1
  O  O298  1  0.88325437  0.62016359  0.63867507  1
  O  O299  1  0.25714298  0.25379117  0.11960364  1
  O  O300  1  0.24998698  0.25165633  0.61158142  1
  O  O301  1  0.25605653  0.75738082  0.12490301  1
  O  O302  1  0.25784672  0.75781913  0.61584919  1
  O  O303  1  0.76324460  0.25737012  0.12267942  1
  O  O304  1  0.75665650  0.25578749  0.62155719  1
  O  O305  1  0.75869827  0.75144853  0.11858808  1
  O  O306  1  0.74271431  0.75627040  0.61727315  1
  O  O307  1  0.24004970  0.24672011  0.38480184  1
  O  O308  1  0.24778317  0.24331998  0.88273269  1
  O  O309  1  0.24201832  0.74870463  0.37709899  1
  O  O310  1  0.23600594  0.75282692  0.87940494  1
  O  O311  1  0.74294639  0.25358098  0.38566902  1
  O  O312  1  0.75860426  0.26768861  0.88738053  1
  O  O313  1  0.74387865  0.74487926  0.38105179  1
  O  O314  1  0.75717383  0.74938823  0.88777244  1
  O  O315  1  0.00456797  0.11399143  0.00932657  1
  O  O316  1  0.00644776  0.12262701  0.50897320  1
  O  O317  1  0.00882548  0.61868453  0.00559255  1
  O  O318  1  -0.00780036  0.61988398  0.51420385  1
  O  O319  1  0.51050699  0.11354235  -0.00456080  1
  O  O320  1  0.51033535  0.13130078  0.50935003  1
  O  O321  1  0.51051420  0.62254190  0.00751320  1
  O  O322  1  0.50185678  0.62148166  0.50607298  1
  O  O323  1  0.49254242  0.37101431  0.49009598  1
  O  O324  1  0.50252519  0.38556657  0.99657241  1
  O  O325  1  0.51124776  0.87533003  0.48748915  1
  O  O326  1  0.50349104  0.88454272  0.98788260  1
  O  O327  1  0.99333562  0.38405703  0.50032965  1
  O  O328  1  1.00618846  0.38660554  0.99642940  1
  O  O329  1  0.99008750  0.87384954  0.49404970  1
  O  O330  1  0.99793913  0.88861835  1.00043072  1
  O  O331  1  0.49901921  0.48550495  0.37508701  1
  O  O332  1  0.49249308  0.49484931  0.87961738  1
  O  O333  1  0.48659327  0.99305306  0.37161188  1
  O  O334  1  0.50609447  0.99369667  0.88876725  1
  O  O335  1  0.99218376  0.50029234  0.38329519  1
  O  O336  1  0.99082894  0.49281400  0.88061121  1
  O  O337  1  1.00440502  0.98643307  0.37611252  1
  O  O338  1  0.99168025  1.00155293  0.88182924  1
  O  O339  1  0.00082545  0.00755665  0.11976075  1
  O  O340  1  0.00286552  0.00747672  0.62604852  1
  O  O341  1  0.00314472  0.50422958  0.11782894  1
  O  O342  1  -0.00054159  0.51134850  0.61787555  1
  O  O343  1  0.51277171  -0.00665409  0.11073959  1
  O  O344  1  0.50115188  0.01114808  0.62992105  1
  O  O345  1  0.49381990  0.51077363  0.11713940  1
  O  O346  1  0.51039802  0.49468994  0.62200601  1
  O  O347  1  0.24193646  0.37907836  0.24320448  1
  O  O348  1  0.23692002  0.36996049  0.75175595  1
  O  O349  1  0.25515431  0.88274605  0.23676398  1
  O  O350  1  0.24280692  0.88277198  0.74465049  1
  O  O351  1  0.74595728  0.37365045  0.24110772  1
  O  O352  1  0.75337200  0.38060502  0.73362618  1
  O  O353  1  0.74337916  0.88577198  0.24883972  1
  O  O354  1  0.74144251  0.87733929  0.74723647  1
  O  O355  1  0.26194045  0.11584846  0.25365554  1
  O  O356  1  0.24945618  0.11806167  0.75920327  1
  O  O357  1  0.25495556  0.62177915  0.25538710  1
  O  O358  1  0.23488376  0.62464139  0.76098036  1
  O  O359  1  0.76138826  0.11439417  0.24758126  1
  O  O360  1  0.74711474  0.11333849  0.74404826  1
  O  O361  1  0.75700091  0.63088424  0.26445869  1
  O  O362  1  0.76344777  0.62222289  0.74574918  1
  O  O363  1  0.37488884  0.11263113  0.36901403  1
  O  O364  1  0.36325012  0.12679410  0.87729083  1
  O  O365  1  0.36765532  0.62635897  0.36305207  1
  O  O366  1  0.37529480  0.60831555  0.88172514  1
  O  O367  1  0.88030873  0.12738240  0.36366151  1
  O  O368  1  0.87749993  0.11067527  0.87404037  1
  O  O369  1  0.86871065  0.61966227  0.37247723  1
  O  O370  1  0.88486132  0.61600027  0.85914095  1
  O  O371  1  0.13071636  0.37709069  0.13050991  1
  O  O372  1  0.12411996  0.36767169  0.64246079  1
  O  O373  1  0.13377796  0.88239471  0.12300481  1
  O  O374  1  0.13299074  0.87893922  0.62972283  1
  O  O375  1  0.64295571  0.37067631  0.13458284  1
  O  O376  1  0.63294818  0.38497249  0.61852916  1
  O  O377  1  0.62368146  0.88033014  0.13683181  1
  O  O378  1  0.63218063  0.87739825  0.63842570  1
  O  O379  1  0.13196395  0.25626859  0.25800628  1
  O  O380  1  0.11958737  0.25593281  0.75684453  1
  O  O381  1  0.11080104  0.74850097  0.25563809  1
  O  O382  1  0.11664773  0.75804208  0.75480673  1
  O  O383  1  0.62785726  0.25441976  0.25727143  1
  O  O384  1  0.61508810  0.24728334  0.75747615  1
  O  O385  1  0.62169410  0.76069382  0.25546411  1
  O  O386  1  0.62832176  0.76301818  0.75195675  1
  O  O387  1  0.37564258  0.24084796  0.24289884  1
  O  O388  1  0.38834256  0.24581439  0.74994713  1
  O  O389  1  0.37934533  0.74562924  0.24005631  1
  O  O390  1  0.36927660  0.74939970  0.74222089  1
  O  O391  1  0.87136487  0.23454882  0.24543393  1
  O  O392  1  0.88503249  0.24990094  0.73594280  1
  O  O393  1  0.88203744  0.74446947  0.24329797  1
  O  O394  1  0.88274891  0.73649522  0.75477744  1
  O  O395  1  0.37704579  0.48651405  0.49336485  1
  O  O396  1  0.38783308  0.49918532  0.99524158  1
  O  O397  1  0.36873750  1.00136669  0.48512219  1
  O  O398  1  0.39325803  1.00100492  1.00630071  1
  O  O399  1  0.88126193  0.49599055  0.49101537  1
  O  O400  1  0.88645765  0.51171678  0.99234937  1
  O  O401  1  0.87286320  0.98592767  0.50367777  1
  O  O402  1  0.87903891  1.00034626  0.99201556  1
  O  O403  1  0.11619394  0.00518320  0.00664080  1
  O  O404  1  0.12243286  0.00726523  0.50658613  1
  O  O405  1  0.11724457  0.50655844  0.00350668  1
  O  O406  1  0.11151455  0.49699282  0.49131782  1
  O  O407  1  0.62071014  0.00997907  0.00569796  1
  O  O408  1  0.63370443  0.01418855  0.50026274  1
  O  O409  1  0.61337665  0.51599188  0.00133060  1
  O  O410  1  0.62261133  0.50047177  0.51094850  1
  O  O411  1  0.36713833  0.36690614  0.12563075  1
  O  O412  1  0.37498720  0.36827352  0.61352513  1
  O  O413  1  0.36994301  0.86680678  0.12181833  1
  O  O414  1  0.36256357  0.86706523  0.63122526  1
  O  O415  1  0.86574915  0.36532494  0.13130710  1
  O  O416  1  0.87084684  0.36826130  0.61980612  1
  O  O417  1  0.87384654  0.86332726  0.12126733  1
  O  O418  1  0.86048720  0.87432188  0.62027220  1
  O  O419  1  0.12606744  0.13063521  0.38109977  1
  O  O420  1  0.13297362  0.13090754  0.88250137  1
  O  O421  1  0.13380329  0.63670957  0.36627732  1
  O  O422  1  0.11934084  0.63317959  0.88431906  1
  O  O423  1  0.61904904  0.13728650  0.38137108  1
  O  O424  1  0.63066285  0.12881431  0.88663315  1
  O  O425  1  0.63224501  0.63074006  0.37581205  1
  O  O426  1  0.62306900  0.62040652  0.88317376  1
