# generated using pymatgen
data_V85Zn86O256
_symmetry_space_group_name_H-M   'P 1'
_cell_length_a   16.91169069
_cell_length_b   16.91323066
_cell_length_c   16.91682412
_cell_angle_alpha   89.97622417
_cell_angle_beta   90.07437462
_cell_angle_gamma   89.91889022
_symmetry_Int_Tables_number   1
_chemical_formula_structural   V85Zn86O256
_chemical_formula_sum   'V85 Zn86 O256'
_cell_volume   4838.73228127
_cell_formula_units_Z   1
loop_
 _symmetry_equiv_pos_site_id
 _symmetry_equiv_pos_as_xyz
  1  'x, y, z'
loop_
 _atom_site_type_symbol
 _atom_site_label
 _atom_site_symmetry_multiplicity
 _atom_site_fract_x
 _atom_site_fract_y
 _atom_site_fract_z
 _atom_site_occupancy
  V  V0  1  0.63094238  0.24913530  0.88212037  1
  V  V1  1  0.50276798  0.12804790  0.62249491  1
  V  V2  1  0.75353550  0.12369570  0.88140228  1
  V  V3  1  0.75653930  0.86703200  0.12568186  1
  V  V4  1  0.11911229  0.24916740  0.87904269  1
  V  V5  1  -0.00023493  0.00202353  0.01626569  1
  V  V6  1  0.25185065  0.36972339  0.12832238  1
  V  V7  1  0.37404119  0.37457343  0.49923302  1
  V  V8  1  0.76012372  0.49553886  0.25301546  1
  V  V9  1  0.12257984  0.87834870  0.74153769  1
  V  V10  1  0.74291965  0.75196845  0.48989368  1
  V  V11  1  0.50505748  0.00260635  0.49972545  1
  V  V12  1  0.37249835  0.62769123  0.24051927  1
  V  V13  1  0.87629230  0.23611505  0.12413256  1
  V  V14  1  0.12641771  0.87926814  0.24283209  1
  V  V15  1  0.37422977  0.36536031  0.00445443  1
  V  V16  1  0.49979403  0.24935567  0.75320830  1
  V  V17  1  0.12722098  0.62448241  -0.00288628  1
  V  V18  1  0.62498411  0.50051889  0.12485521  1
  V  V19  1  0.75338227  0.36711273  0.11853384  1
  V  V20  1  0.50076543  0.50306542  0.51069316  1
  V  V21  1  0.25475617  0.74828492  0.50032676  1
  V  V22  1  0.37069636  0.49852253  0.87498977  1
  V  V23  1  0.87077323  0.37821931  0.49715315  1
  V  V24  1  0.12586587  0.11760093  0.50523186  1
  V  V25  1  0.24916544  0.00173761  0.24343392  1
  V  V26  1  0.62739914  0.00712383  0.62481750  1
  V  V27  1  0.00108284  0.74110305  0.74386135  1
  V  V28  1  0.37768423  0.00537848  0.37330225  1
  V  V29  1  0.00239238  0.49310292  -0.00905297  1
  V  V30  1  0.62744827  0.62381192  -0.00747595  1
  V  V31  1  0.24594871  0.00248423  0.74709156  1
  V  V32  1  0.37340059  0.25334916  0.62566746  1
  V  V33  1  0.49410141  0.25184812  0.24707880  1
  V  V34  1  0.25007786  0.62047406  0.37106200  1
  V  V35  1  0.00279972  0.12277972  0.62678251  1
  V  V36  1  0.62710172  -0.00163049  0.12397816  1
  V  V37  1  0.26922911  0.64950536  0.84746613  1
  V  V38  1  0.24941183  0.49269006  0.75005022  1
  V  V39  1  -0.00872849  0.75004191  0.24233709  1
  V  V40  1  0.87728545  0.87089090  -0.00194070  1
  V  V41  1  0.75454283  0.74296534  -0.00630318  1
  V  V42  1  0.50331664  -0.00245220  -0.00221185  1
  V  V43  1  0.50519965  0.37204167  0.37715497  1
  V  V44  1  0.12625002  0.37971976  0.25163087  1
  V  V45  1  0.11178475  0.37289521  0.75320842  1
  V  V46  1  0.62531756  0.38323536  0.75014257  1
  V  V47  1  0.25235657  0.12625194  0.37562717  1
  V  V48  1  0.12672859  0.50049561  0.12722725  1
  V  V49  1  0.86746570  0.50757219  0.87471927  1
  V  V50  1  0.87476498  0.12496622  0.75325653  1
  V  V51  1  0.12333461  0.25232609  0.37744793  1
  V  V52  1  0.12134930  0.75158660  0.87537243  1
  V  V53  1  0.25622513  0.75109106  0.00944536  1
  V  V54  1  0.37504941  -0.00095369  0.87403016  1
  V  V55  1  0.49891848  0.74981317  0.24915959  1
  V  V56  1  0.37403529  0.49994689  0.36900329  1
  V  V57  1  0.50186241  0.86425771  0.87172340  1
  V  V58  1  0.87808442  0.73905752  0.61912472  1
  V  V59  1  0.24998194  0.88105421  0.62069284  1
  V  V60  1  0.74828626  0.62083466  0.37263818  1
  V  V61  1  0.62174501  0.86831506  0.74799115  1
  V  V62  1  0.75440998  0.00875411  0.24896402  1
  V  V63  1  0.11461294  0.50874254  0.62472386  1
  V  V64  1  -0.00061757  0.87757092  0.37439222  1
  V  V65  1  0.12614512  0.11830318  0.01298545  1
  V  V66  1  0.87849545  0.36572481  -0.00813844  1
  V  V67  1  0.62730651  0.36999455  0.25289851  1
  V  V68  1  0.25078743  0.25022824  0.50051907  1
  V  V69  1  0.12347803  0.74947608  0.37427276  1
  V  V70  1  0.48687957  0.64543972  0.63500147  1
  V  V71  1  0.74696628  0.38147233  0.62662691  1
  V  V72  1  0.49477716  0.12789446  0.12370348  1
  V  V73  1  0.75095756  0.87503101  0.62356786  1
  V  V74  1  0.73349534  0.13040885  0.38309365  1
  V  V75  1  0.62791912  0.86776156  0.25764420  1
  V  V76  1  0.37817014  0.87285261  0.50206208  1
  V  V77  1  -0.00281328  0.88755794  0.87183043  1
  V  V78  1  0.87578652  0.87687867  0.49841931  1
  V  V79  1  0.75563093  -0.00158047  0.75521366  1
  V  V80  1  0.49899050  0.37438195  0.87753263  1
  V  V81  1  0.87727023  0.01611740  0.37491976  1
  V  V82  1  -0.00702455  0.38368899  0.37445927  1
  V  V83  1  0.62013300  0.62670732  0.50097176  1
  V  V84  1  -0.00402058  0.23892850  0.24773794  1
  Zn  Zn85  1  0.50643028  0.87024880  0.37791648  1
  Zn  Zn86  1  0.11853755  0.62794822  0.50493003  1
  Zn  Zn87  1  0.73612559  0.25130233  0.50271833  1
  Zn  Zn88  1  0.87240286  0.62396969  0.24678547  1
  Zn  Zn89  1  -0.00853098  0.62661417  0.11861958  1
  Zn  Zn90  1  0.74036927  0.51300951  0.75072090  1
  Zn  Zn91  1  0.00429114  -0.00110700  0.50423212  1
  Zn  Zn92  1  0.25557151  0.87496666  0.12777969  1
  Zn  Zn93  1  -0.01150121  0.51178197  0.49969705  1
  Zn  Zn94  1  0.37363128  0.12563998  0.75110913  1
  Zn  Zn95  1  -0.00489419  0.25073273  0.75316248  1
  Zn  Zn96  1  0.24856404  0.12451430  0.87660133  1
  Zn  Zn97  1  0.63177224  0.12775417  0.00306416  1
  Zn  Zn98  1  0.25131111  0.24413839  0.00335539  1
  Zn  Zn99  1  0.87158983  0.25075024  0.62445156  1
  Zn  Zn100  1  0.37229620  0.13038403  0.24474614  1
  Zn  Zn101  1  0.86772697  0.62737847  0.75192162  1
  Zn  Zn102  1  0.38187366  0.86923896  0.00880322  1
  Zn  Zn103  1  0.49788562  0.50141898  0.00172100  1
  Zn  Zn104  1  0.62977811  0.74071494  0.86537368  1
  Zn  Zn105  1  0.24300674  0.37509899  0.62342380  1
  Zn  Zn106  1  0.49862747  0.63015894  0.12345736  1
  Zn  Zn107  1  0.18492956  0.19058083  0.18945726  1
  Zn  Zn108  1  0.18591411  0.18830820  0.68928215  1
  Zn  Zn109  1  0.18259578  0.68460915  0.18976180  1
  Zn  Zn110  1  0.20670540  0.69309669  0.69061251  1
  Zn  Zn111  1  0.68553907  0.18834976  0.18912438  1
  Zn  Zn112  1  0.68901136  0.19302867  0.69130822  1
  Zn  Zn113  1  0.68788773  0.68620346  0.18365337  1
  Zn  Zn114  1  0.68647669  0.68360655  0.67852920  1
  Zn  Zn115  1  0.31265719  0.31376032  0.31165383  1
  Zn  Zn116  1  0.30633152  0.31053049  0.81607290  1
  Zn  Zn117  1  0.31634269  0.81262995  0.31356681  1
  Zn  Zn118  1  0.31042684  0.81924982  0.81538492  1
  Zn  Zn119  1  0.81460167  0.30790410  0.31193699  1
  Zn  Zn120  1  0.81167730  0.31263057  0.81275694  1
  Zn  Zn121  1  0.81139679  0.81627909  0.31537414  1
  Zn  Zn122  1  0.81525347  0.81083417  0.81171151  1
  Zn  Zn123  1  0.18554953  0.43989393  0.43935302  1
  Zn  Zn124  1  0.18938755  0.43324335  0.93636652  1
  Zn  Zn125  1  0.18927045  0.93771568  0.43109478  1
  Zn  Zn126  1  0.18555811  0.93656117  0.93751256  1
  Zn  Zn127  1  0.68524746  0.44056740  0.43959008  1
  Zn  Zn128  1  0.69006490  0.43533506  0.93948315  1
  Zn  Zn129  1  0.68955653  0.94357611  0.43750292  1
  Zn  Zn130  1  0.68912008  0.93415515  0.93554537  1
  Zn  Zn131  1  0.31480702  0.05745918  0.06112497  1
  Zn  Zn132  1  0.31654586  0.06391238  0.56290833  1
  Zn  Zn133  1  0.30708036  0.55787126  0.05807409  1
  Zn  Zn134  1  0.31165971  0.56183724  0.56322304  1
  Zn  Zn135  1  0.81736758  0.05524427  0.05984034  1
  Zn  Zn136  1  0.81434718  0.06514147  0.56264773  1
  Zn  Zn137  1  0.81467936  0.56036548  0.06512184  1
  Zn  Zn138  1  0.80713845  0.55969544  0.56167979  1
  Zn  Zn139  1  0.43738136  0.43980185  0.18747953  1
  Zn  Zn140  1  0.43681267  0.43897373  0.69069167  1
  Zn  Zn141  1  0.43709529  0.93374517  0.18714060  1
  Zn  Zn142  1  0.43639193  0.93492655  0.68636950  1
  Zn  Zn143  1  0.94114741  0.43380332  0.18029203  1
  Zn  Zn144  1  0.93346457  0.43828076  0.68673261  1
  Zn  Zn145  1  0.93414608  0.93679669  0.19000925  1
  Zn  Zn146  1  0.93799674  0.93887961  0.68401077  1
  Zn  Zn147  1  0.06613782  0.06290447  0.31604846  1
  Zn  Zn148  1  0.06486045  0.06604851  0.81536434  1
  Zn  Zn149  1  0.06109469  0.56464319  0.31339063  1
  Zn  Zn150  1  0.06481908  0.56231639  0.81412407  1
  Zn  Zn151  1  0.56107371  0.05687061  0.30522392  1
  Zn  Zn152  1  0.56586906  0.06076578  0.81094363  1
  Zn  Zn153  1  0.56425824  0.56207655  0.31472622  1
  Zn  Zn154  1  0.55350259  0.56486642  0.81135230  1
  Zn  Zn155  1  0.55555177  0.19003438  0.43702252  1
  Zn  Zn156  1  0.43914283  0.18403995  0.93837372  1
  Zn  Zn157  1  0.43977906  0.68919749  0.43075541  1
  Zn  Zn158  1  0.44026564  0.68445649  0.93910664  1
  Zn  Zn159  1  0.93690178  0.19608043  0.44204237  1
  Zn  Zn160  1  0.93932605  0.18224947  0.93731461  1
  Zn  Zn161  1  0.93434360  0.68468670  0.43171562  1
  Zn  Zn162  1  0.94015259  0.68873199  0.93786293  1
  Zn  Zn163  1  0.06096526  0.30895340  0.06393454  1
  Zn  Zn164  1  0.05824996  0.31245901  0.56497420  1
  Zn  Zn165  1  0.06548512  0.81506383  0.06326444  1
  Zn  Zn166  1  0.06330769  0.81075723  0.56099437  1
  Zn  Zn167  1  0.56280049  0.31293618  0.06279552  1
  Zn  Zn168  1  0.56404083  0.31819401  0.56708050  1
  Zn  Zn169  1  0.56654609  0.80968882  0.06515681  1
  Zn  Zn170  1  0.56295216  0.81187710  0.56444040  1
  O  O171  1  0.12495392  0.12811522  0.11197209  1
  O  O172  1  0.11797106  0.12924704  0.61628521  1
  O  O173  1  0.12290043  0.61671864  0.11613121  1
  O  O174  1  0.13206523  0.61099513  0.62750399  1
  O  O175  1  0.62019730  0.11359634  0.12427682  1
  O  O176  1  0.62012766  0.11429204  0.63384843  1
  O  O177  1  0.62629312  0.61449009  0.11561984  1
  O  O178  1  0.60851153  0.63214737  0.60893767  1
  O  O179  1  0.38068144  0.38234051  0.37851201  1
  O  O180  1  0.37762166  0.37852012  0.88314342  1
  O  O181  1  0.37539122  0.88791763  0.38623456  1
  O  O182  1  0.38351966  0.88264240  0.87644745  1
  O  O183  1  0.88198072  0.37051824  0.38164063  1
  O  O184  1  0.87176630  0.38116259  0.88691561  1
  O  O185  1  0.87794552  0.88406323  0.38486206  1
  O  O186  1  0.88616253  0.87146506  0.88279332  1
  O  O187  1  0.25816456  0.00703654  0.36809555  1
  O  O188  1  0.25889526  -0.00331984  0.86747269  1
  O  O189  1  0.25770215  0.51079430  0.38072747  1
  O  O190  1  0.25583305  0.50270662  0.86895251  1
  O  O191  1  0.75545442  0.01237937  0.36958906  1
  O  O192  1  0.74432747  0.00669164  0.86385372  1
  O  O193  1  0.74525785  0.50703440  0.36463768  1
  O  O194  1  0.76472368  0.49733923  0.87527481  1
  O  O195  1  0.23396058  0.48884338  0.11816533  1
  O  O196  1  0.24362579  0.49545456  0.63317125  1
  O  O197  1  0.25187947  1.00212534  0.14024919  1
  O  O198  1  0.25400123  0.99001474  0.63027501  1
  O  O199  1  0.74153734  0.48782223  0.13164278  1
  O  O200  1  0.75058403  0.48732997  0.63089665  1
  O  O201  1  0.74633319  0.99431713  0.13200342  1
  O  O202  1  0.74298901  0.99608373  0.62857591  1
  O  O203  1  0.00845302  0.36952212  0.25555514  1
  O  O204  1  0.00810701  0.37188117  0.74792921  1
  O  O205  1  0.00686339  0.86850703  0.25385756  1
  O  O206  1  0.00596377  0.87181902  0.75424081  1
  O  O207  1  0.50611195  0.37108993  0.25530616  1
  O  O208  1  0.50585182  0.36971327  0.75751172  1
  O  O209  1  0.51092338  0.87026739  0.25215299  1
  O  O210  1  0.50943453  0.88210475  0.75831212  1
  O  O211  1  0.50059136  0.13365847  0.24218830  1
  O  O212  1  0.49837295  0.12834116  0.73987401  1
  O  O213  1  0.49255321  0.63057722  0.24902229  1
  O  O214  1  0.50020967  0.62749505  0.73397831  1
  O  O215  1  1.00544449  0.14018164  0.25604013  1
  O  O216  1  0.99206471  0.12258513  0.74511364  1
  O  O217  1  0.99867160  0.64135144  0.25272802  1
  O  O218  1  0.99754215  0.63905784  0.75562749  1
  O  O219  1  0.37446138  0.26077170  -0.00338045  1
  O  O220  1  0.36830159  0.25890671  0.51107705  1
  O  O221  1  0.35947646  0.74949328  -0.00570997  1
  O  O222  1  0.36649288  0.76107192  0.48854825  1
  O  O223  1  0.88597445  0.25554546  0.00890970  1
  O  O224  1  0.86539237  0.26279055  0.50276193  1
  O  O225  1  0.87161992  0.76075809  -0.00186390  1
  O  O226  1  0.86913337  0.75910701  0.50193784  1
  O  O227  1  0.13115230  0.24503876  0.49575158  1
  O  O228  1  0.12281398  0.23665954  0.99673350  1
  O  O229  1  0.13226173  0.75201507  0.48740008  1
  O  O230  1  0.12675903  0.74301321  0.99364783  1
  O  O231  1  0.62218789  0.25441055  0.49832023  1
  O  O232  1  0.62144713  0.24703199  0.98705822  1
  O  O233  1  0.63320230  0.74595580  0.50053958  1
  O  O234  1  0.63456684  0.74093939  0.99807796  1
  O  O235  1  0.50680186  0.23962234  0.13219536  1
  O  O236  1  0.49425876  0.24450304  0.63189807  1
  O  O237  1  0.50547835  0.74814534  0.14007719  1
  O  O238  1  0.49262211  0.74601652  0.62500695  1
  O  O239  1  0.99333611  0.25244663  0.13985228  1
  O  O240  1  0.99534281  0.23684440  0.62846428  1
  O  O241  1  1.00777422  0.74955627  0.13950714  1
  O  O242  1  0.99115158  0.75727683  0.63241682  1
  O  O243  1  0.00337309  0.25921556  0.36589712  1
  O  O244  1  0.01357870  0.24311923  0.87275871  1
  O  O245  1  0.00675472  0.75833951  0.36618646  1
  O  O246  1  0.00841739  0.75918531  0.86880433  1
  O  O247  1  0.49936100  0.26505910  0.36715516  1
  O  O248  1  0.50528750  0.25353287  0.87037892  1
  O  O249  1  0.50106081  0.75437544  0.35876154  1
  O  O250  1  0.50235632  0.76111306  0.87752098  1
  O  O251  1  0.24501965  0.13031643  0.49730627  1
  O  O252  1  0.23866842  0.12115323  1.00072082  1
  O  O253  1  0.24769071  0.63399636  0.49126440  1
  O  O254  1  0.24187495  0.63509481  0.99287568  1
  O  O255  1  0.74778890  0.12501258  0.48643323  1
  O  O256  1  0.75151847  0.11524004  0.98542012  1
  O  O257  1  0.74175303  0.63165251  0.49462737  1
  O  O258  1  0.74386368  0.63345333  1.00507221  1
  O  O259  1  0.25664474  0.37078350  0.00894981  1
  O  O260  1  0.25641918  0.36920639  0.50049894  1
  O  O261  1  0.24556964  0.86109485  0.00296954  1
  O  O262  1  0.25587956  0.87331961  0.50383016  1
  O  O263  1  0.76021530  0.37462287  0.01005991  1
  O  O264  1  0.75242407  0.37579481  0.50709254  1
  O  O265  1  0.76001905  0.87232632  0.00592441  1
  O  O266  1  0.75551276  0.87056380  0.50144592  1
  O  O267  1  0.11793896  0.49264327  0.23994241  1
  O  O268  1  0.12408542  0.49034758  0.74226956  1
  O  O269  1  0.13533838  0.99101444  0.25993560  1
  O  O270  1  0.13663414  0.99249532  0.75523976  1
  O  O271  1  0.63070475  0.48926669  0.24277004  1
  O  O272  1  0.62343417  0.48669093  0.76297171  1
  O  O273  1  0.63269337  0.99144675  0.24073646  1
  O  O274  1  0.63463057  0.99166666  0.74238087  1
  O  O275  1  0.36989123  0.00237183  0.25884492  1
  O  O276  1  0.36457656  -0.00164460  0.75573766  1
  O  O277  1  0.37931455  0.50680250  0.26308238  1
  O  O278  1  0.36367625  0.49140933  0.76321803  1
  O  O279  1  0.86549696  -0.00455820  0.26164979  1
  O  O280  1  0.86229659  0.00467619  0.74438316  1
  O  O281  1  0.86266541  0.49295506  0.24545897  1
  O  O282  1  0.87880061  0.50104071  0.76695396  1
  O  O283  1  0.11962363  0.37141379  0.36941021  1
  O  O284  1  0.12720047  0.36473014  0.86670688  1
  O  O285  1  0.11946709  0.86799881  0.36815403  1
  O  O286  1  0.11911159  0.86931011  0.86407296  1
  O  O287  1  0.61598562  0.38268547  0.36526382  1
  O  O288  1  0.62056005  0.36712240  0.87316692  1
  O  O289  1  0.62761382  0.88382581  0.36123803  1
  O  O290  1  0.61787556  0.87394965  0.86509479  1
  O  O291  1  0.39053621  0.11871382  0.12485744  1
  O  O292  1  0.38341511  0.13688891  0.62647341  1
  O  O293  1  0.37284540  0.61260088  0.13760528  1
  O  O294  1  0.38835310  0.62582864  0.61765088  1
  O  O295  1  0.86811467  0.13635583  0.12175333  1
  O  O296  1  0.87853696  0.12708349  0.63597401  1
  O  O297  1  0.87915975  0.62020210  0.13280107  1
  O  O298  1  0.87344920  0.63680128  0.62056439  1
  O  O299  1  0.24589280  0.26418826  0.12382702  1
  O  O300  1  0.25819203  0.25216215  0.62213413  1
  O  O301  1  0.24207708  0.74678447  0.11158876  1
  O  O302  1  0.24424148  0.76367483  0.60782395  1
  O  O303  1  0.75909003  0.25879911  0.13369326  1
  O  O304  1  0.74925548  0.26354766  0.62504211  1
  O  O305  1  0.74589031  0.76229161  0.11474293  1
  O  O306  1  0.75834303  0.75799317  0.61128888  1
  O  O307  1  0.24618242  0.24437501  0.37962115  1
  O  O308  1  0.23787091  0.24488966  0.88110851  1
  O  O309  1  0.24317364  0.74611674  0.38233126  1
  O  O310  1  0.23550048  0.75390095  0.89106786  1
  O  O311  1  0.75051080  0.23124438  0.37079257  1
  O  O312  1  0.74164084  0.23840966  0.86994494  1
  O  O313  1  0.75030991  0.74679626  0.38466500  1
  O  O314  1  0.74818639  0.75720081  0.88926888  1
  O  O315  1  0.00757702  0.10815779  -0.00125068  1
  O  O316  1  0.00894958  0.12659766  0.50597512  1
  O  O317  1  0.01369254  0.61964857  -0.00207446  1
  O  O318  1  0.00585767  0.62354519  0.48944759  1
  O  O319  1  0.50526336  0.11318922  0.00495954  1
  O  O320  1  0.50176391  0.11790166  0.51392445  1
  O  O321  1  0.50876980  0.62175049  0.00590575  1
  O  O322  1  0.50342440  0.62042606  0.50003801  1
  O  O323  1  0.49403216  0.38337683  0.49408984  1
  O  O324  1  0.49236449  0.37752469  0.99573117  1
  O  O325  1  0.49417974  0.88224138  0.49907973  1
  O  O326  1  0.50456966  0.88287161  0.99232973  1
  O  O327  1  0.99054558  0.37489555  0.49070498  1
  O  O328  1  0.99243519  0.38201421  1.00397945  1
  O  O329  1  0.99315782  0.87752766  0.49395745  1
  O  O330  1  0.99879345  0.88208333  0.99405954  1
  O  O331  1  0.49248388  0.49157530  0.38161752  1
  O  O332  1  0.48839775  0.49244275  0.87700514  1
  O  O333  1  0.49488709  0.99929369  0.38282114  1
  O  O334  1  0.49621396  0.99384119  0.88085697  1
  O  O335  1  1.00364886  0.48689896  0.37529231  1
  O  O336  1  0.99417256  0.50152515  0.88564640  1
  O  O337  1  0.99211325  0.99568706  0.37690709  1
  O  O338  1  1.00484717  0.98920908  0.88075367  1
  O  O339  1  0.00160296  -0.00561083  0.11498824  1
  O  O340  1  -0.00392686  0.01527468  0.62138331  1
  O  O341  1  0.01094424  0.49981935  0.11153679  1
  O  O342  1  0.01134636  0.50051425  0.62487917  1
  O  O343  1  0.51007803  0.00336114  0.11816960  1
  O  O344  1  0.50567923  0.00717476  0.62034840  1
  O  O345  1  0.51501433  0.49907413  0.12476848  1
  O  O346  1  0.49316381  0.50259823  0.61284387  1
  O  O347  1  0.23572292  0.37146896  0.24571074  1
  O  O348  1  0.23806737  0.38172221  0.75001835  1
  O  O349  1  0.24328944  0.88319619  0.25462658  1
  O  O350  1  0.24308907  0.88141481  0.73999471  1
  O  O351  1  0.74394074  0.37756411  0.24608964  1
  O  O352  1  0.74087448  0.37824219  0.74603810  1
  O  O353  1  0.74614284  0.88188004  0.24309254  1
  O  O354  1  0.74683602  0.88154878  0.74402680  1
  O  O355  1  0.25066101  0.12106369  0.25647135  1
  O  O356  1  0.25197511  0.11516195  0.75104771  1
  O  O357  1  0.25720586  0.63218836  0.26172213  1
  O  O358  1  0.22778443  0.59932576  0.75664620  1
  O  O359  1  0.74185333  0.11364033  0.26029186  1
  O  O360  1  0.75584057  0.11744343  0.75636766  1
  O  O361  1  0.74498993  0.61350427  0.25513125  1
  O  O362  1  0.75315626  0.62536486  0.74503286  1
  O  O363  1  0.36850046  0.11224037  0.37377327  1
  O  O364  1  0.37416399  0.11117886  0.87350079  1
  O  O365  1  0.36851716  0.61773362  0.36778308  1
  O  O366  1  0.36748561  0.61523331  0.88042703  1
  O  O367  1  0.86991441  0.11797388  0.38127095  1
  O  O368  1  0.86883589  0.12524847  0.86327829  1
  O  O369  1  0.85520755  0.63132638  0.36618644  1
  O  O370  1  0.87781798  0.61110489  0.87813511  1
  O  O371  1  0.12849897  0.37983796  0.13282793  1
  O  O372  1  0.12378552  0.38186229  0.63446081  1
  O  O373  1  0.13143644  0.87271524  0.13952029  1
  O  O374  1  0.13018671  0.87461437  0.63445129  1
  O  O375  1  0.63415976  0.37865901  0.12930025  1
  O  O376  1  0.62981830  0.37578388  0.64037647  1
  O  O377  1  0.63462161  0.88480995  0.12998369  1
  O  O378  1  0.62972079  0.88572139  0.62986471  1
  O  O379  1  0.11471413  0.25781120  0.25623332  1
  O  O380  1  0.12309181  0.25674640  0.75820799  1
  O  O381  1  0.11938002  0.75719714  0.25959839  1
  O  O382  1  0.12075501  0.75778132  0.75499219  1
  O  O383  1  0.61554696  0.26338741  0.24676336  1
  O  O384  1  0.61785778  0.25822781  0.76140623  1
  O  O385  1  0.62302070  0.76109438  0.24501799  1
  O  O386  1  0.63230942  0.76472761  0.74688513  1
  O  O387  1  0.38893188  0.25091379  0.25089629  1
  O  O388  1  0.38035697  0.25042492  0.74463879  1
  O  O389  1  0.38248761  0.73932416  0.25330096  1
  O  O390  1  0.30583605  0.71695176  0.76864906  1
  O  O391  1  0.88867955  0.25294164  0.24204008  1
  O  O392  1  0.87554217  0.23993900  0.74883299  1
  O  O393  1  0.88957805  0.75782033  0.25252938  1
  O  O394  1  0.88368544  0.75178019  0.73811184  1
  O  O395  1  0.37970636  0.49446936  0.49019138  1
  O  O396  1  0.37269235  0.48926147  0.98975061  1
  O  O397  1  0.38713285  0.99652655  0.49597798  1
  O  O398  1  0.38529018  0.99585091  0.99065872  1
  O  O399  1  0.87368509  0.48548523  0.50382822  1
  O  O400  1  0.88241117  0.49251662  0.99067861  1
  O  O401  1  0.87519449  0.99322808  0.49259863  1
  O  O402  1  0.89116367  0.98868115  1.00045910  1
  O  O403  1  0.11558406  0.00809415  -0.00148162  1
  O  O404  1  0.12596777  0.01388415  0.49300309  1
  O  O405  1  0.12074679  0.50571749  0.00078213  1
  O  O406  1  0.12445226  0.49981431  0.51701253  1
  O  O407  1  0.62037303  -0.00034011  0.00681148  1
  O  O408  1  0.61371323  -0.00462934  0.50895180  1
  O  O409  1  0.62661883  0.50532276  0.00720869  1
  O  O410  1  0.61180200  0.51096041  0.49689980  1
  O  O411  1  0.36439758  0.38427746  0.11785475  1
  O  O412  1  0.37516730  0.36540347  0.62160732  1
  O  O413  1  0.36920524  0.87767002  0.12079813  1
  O  O414  1  0.36734354  0.87883017  0.61115448  1
  O  O415  1  0.86926921  0.36715225  0.11471153  1
  O  O416  1  0.86625477  0.37275309  0.61944112  1
  O  O417  1  0.86592106  0.87896673  0.11629785  1
  O  O418  1  0.87081526  0.87143422  0.61252640  1
  O  O419  1  0.13211756  0.13332417  0.38420726  1
  O  O420  1  0.12795988  0.13071539  0.88628991  1
  O  O421  1  0.13429313  0.63339583  0.37276273  1
  O  O422  1  0.13323110  0.63610333  0.87842771  1
  O  O423  1  0.62944412  0.11985391  0.37529380  1
  O  O424  1  0.63386319  0.13162654  0.87440120  1
  O  O425  1  0.63448370  0.62396144  0.38536795  1
  O  O426  1  0.61891759  0.62393033  0.88736548  1
