# generated using pymatgen
data_V85Zn86O256
_symmetry_space_group_name_H-M   'P 1'
_cell_length_a   16.95315285
_cell_length_b   16.96678426
_cell_length_c   16.97676489
_cell_angle_alpha   90.02607593
_cell_angle_beta   89.95452084
_cell_angle_gamma   89.95538405
_symmetry_Int_Tables_number   1
_chemical_formula_structural   V85Zn86O256
_chemical_formula_sum   'V85 Zn86 O256'
_cell_volume   4883.20139582
_cell_formula_units_Z   1
loop_
 _symmetry_equiv_pos_site_id
 _symmetry_equiv_pos_as_xyz
  1  'x, y, z'
loop_
 _atom_site_type_symbol
 _atom_site_label
 _atom_site_symmetry_multiplicity
 _atom_site_fract_x
 _atom_site_fract_y
 _atom_site_fract_z
 _atom_site_occupancy
  V  V0  1  0.36809544  0.62670524  0.25545397  1
  V  V1  1  -0.01417427  0.13620932  0.13254964  1
  V  V2  1  0.50046624  0.48932815  -0.00203527  1
  V  V3  1  0.38540520  0.62331176  0.74275119  1
  V  V4  1  0.87474794  0.37602166  0.50100138  1
  V  V5  1  0.75075655  -0.00113598  0.75046300  1
  V  V6  1  0.35126470  0.87186034  0.49912929  1
  V  V7  1  0.25153682  0.00620047  0.73747409  1
  V  V8  1  0.24630294  0.24514642  0.49987218  1
  V  V9  1  0.50040670  -0.01470427  0.49363531  1
  V  V10  1  0.37092783  0.24488780  0.63091876  1
  V  V11  1  0.87518575  0.87853604  0.49982822  1
  V  V12  1  0.74740899  0.87900587  0.12446514  1
  V  V13  1  0.01106538  0.50113834  0.49580275  1
  V  V14  1  0.49431977  0.24614180  0.75131577  1
  V  V15  1  0.12902021  0.12119151  0.50697812  1
  V  V16  1  0.12442949  0.50256986  0.62244193  1
  V  V17  1  0.87517627  0.62478173  0.75107495  1
  V  V18  1  0.00112168  0.35648960  0.36891590  1
  V  V19  1  0.36831992  0.75136439  0.62148693  1
  V  V20  1  0.00496573  0.75329980  0.75549610  1
  V  V21  1  0.14735750  0.74638916  0.88433392  1
  V  V22  1  0.00522776  0.62584285  0.61956329  1
  V  V23  1  0.13020585  0.74794376  0.38872399  1
  V  V24  1  0.00159338  0.74685574  0.24740377  1
  V  V25  1  0.87558810  0.24769674  0.62639436  1
  V  V26  1  0.24774384  0.37649465  0.62091356  1
  V  V27  1  0.87611023  0.87336391  -0.00348346  1
  V  V28  1  0.75360497  0.50390134  0.24554401  1
  V  V29  1  0.36703833  0.75381142  0.12100293  1
  V  V30  1  0.49923243  0.12640975  0.12315859  1
  V  V31  1  0.12784004  0.87011275  0.24661529  1
  V  V32  1  0.37940624  0.12583626  0.25754630  1
  V  V33  1  0.37337079  -0.00010312  0.86925520  1
  V  V34  1  0.87760894  0.37173681  0.00639390  1
  V  V35  1  0.75044700  0.74830199  0.50098575  1
  V  V36  1  0.61451569  0.87585461  0.75370846  1
  V  V37  1  0.62473225  0.75280693  0.37594569  1
  V  V38  1  0.49929032  0.75255326  0.25517543  1
  V  V39  1  0.50041377  0.62524460  0.12639455  1
  V  V40  1  0.00118197  0.25273791  0.75172056  1
  V  V41  1  0.62313581  -0.00154234  0.62616012  1
  V  V42  1  0.00212065  0.00128655  0.50720418  1
  V  V43  1  0.38602075  0.50499363  0.38225059  1
  V  V44  1  0.60852251  0.50261386  0.62304879  1
  V  V45  1  0.74359208  0.24885577  0.49595972  1
  V  V46  1  0.49351604  0.12083168  0.62864284  1
  V  V47  1  0.49638281  -0.01027193  -0.00512802  1
  V  V48  1  0.74754372  0.37741953  0.62653845  1
  V  V49  1  0.75236132  0.63055587  0.37752988  1
  V  V50  1  0.12293782  0.37800242  0.75260739  1
  V  V51  1  0.62247062  0.37646206  0.75184652  1
  V  V52  1  0.25312257  0.50791256  0.74918798  1
  V  V53  1  0.38053769  0.26417114  0.12115201  1
  V  V54  1  0.62961940  0.49860254  0.12548701  1
  V  V55  1  0.25917467  0.26164903  -0.00000916  1
  V  V56  1  0.12873413  0.12353839  -0.00155680  1
  V  V57  1  0.00704350  0.50384354  -0.00080706  1
  V  V58  1  0.87573566  0.00046129  0.87405489  1
  V  V59  1  0.88017357  0.48997276  0.87189321  1
  V  V60  1  0.74848111  0.11615169  0.36909382  1
  V  V61  1  0.74892625  0.74806682  -0.00144809  1
  V  V62  1  0.74955828  0.87408690  0.62719520  1
  V  V63  1  0.13433151  0.87945924  0.73984161  1
  V  V64  1  0.62448975  0.00336433  0.12751281  1
  V  V65  1  0.62224636  0.25066403  0.87583066  1
  V  V66  1  0.62626907  0.37785877  0.26094611  1
  V  V67  1  0.19502999  0.18025032  0.32622813  1
  V  V68  1  0.00214502  0.87457497  0.37687123  1
  V  V69  1  0.00207077  0.00150658  0.00084482  1
  V  V70  1  0.61712609  0.75265127  0.87515106  1
  V  V71  1  0.62110424  0.87795876  0.25295352  1
  V  V72  1  0.25049093  -0.00327992  0.25284958  1
  V  V73  1  0.32110857  0.55733316  0.92237883  1
  V  V74  1  0.61162725  0.62297840  0.50432556  1
  V  V75  1  0.50739268  0.25191313  0.26239437  1
  V  V76  1  0.12180614  0.25096745  0.87752487  1
  V  V77  1  0.62088148  0.12803286  0.49886250  1
  V  V78  1  0.38076650  0.37815050  0.50157607  1
  V  V79  1  0.74892351  0.12597053  0.87409277  1
  V  V80  1  0.87583757  0.74861457  0.62613380  1
  V  V81  1  0.62618801  0.62302336  -0.00065661  1
  V  V82  1  0.24636243  0.62646966  0.39558986  1
  V  V83  1  0.87873371  0.50231169  0.37399326  1
  V  V84  1  0.48671445  0.37668607  0.87770369  1
  Zn  Zn85  1  0.24899718  0.48982184  0.25199833  1
  Zn  Zn86  1  0.00922361  0.62835351  0.11544055  1
  Zn  Zn87  1  0.00947889  0.87579507  0.87602276  1
  Zn  Zn88  1  0.25728713  0.12648250  0.87203356  1
  Zn  Zn89  1  0.78548000  0.33058772  0.15563157  1
  Zn  Zn90  1  0.37722110  -0.00590295  0.37297207  1
  Zn  Zn91  1  0.87918779  0.74799142  0.12263088  1
  Zn  Zn92  1  0.87812791  0.01116099  0.35783291  1
  Zn  Zn93  1  0.13588814  0.49456713  0.13005208  1
  Zn  Zn94  1  0.75083305  0.62223074  0.87427035  1
  Zn  Zn95  1  0.87795077  0.62911198  0.24571641  1
  Zn  Zn96  1  0.49871889  0.74913225  0.74558736  1
  Zn  Zn97  1  0.36854870  0.86442541  -0.01641899  1
  Zn  Zn98  1  0.12704393  0.00075692  0.12483573  1
  Zn  Zn99  1  0.87897338  0.12425566  0.75095016  1
  Zn  Zn100  1  0.12688304  0.36820908  0.24611516  1
  Zn  Zn101  1  0.50737442  0.37919000  0.38503388  1
  Zn  Zn102  1  0.62426397  0.12299027  -0.00073734  1
  Zn  Zn103  1  0.75768152  0.24985864  0.00007097  1
  Zn  Zn104  1  0.00270856  0.12234041  0.62798853  1
  Zn  Zn105  1  0.74855230  0.50177834  0.74934374  1
  Zn  Zn106  1  0.24958998  0.87666037  0.11770500  1
  Zn  Zn107  1  0.18579559  0.19179871  0.16279985  1
  Zn  Zn108  1  0.18629253  0.18556635  0.68708243  1
  Zn  Zn109  1  0.18331122  0.67952694  0.18687811  1
  Zn  Zn110  1  0.18881774  0.68895884  0.68957205  1
  Zn  Zn111  1  0.70853806  0.19765682  0.19856324  1
  Zn  Zn112  1  0.68513903  0.18693327  0.68816549  1
  Zn  Zn113  1  0.68924894  0.68895593  0.18699087  1
  Zn  Zn114  1  0.68504539  0.68636303  0.68714793  1
  Zn  Zn115  1  0.32585775  0.31703188  0.30911107  1
  Zn  Zn116  1  0.30600869  0.31458738  0.81170222  1
  Zn  Zn117  1  0.31142004  0.81173269  0.31647375  1
  Zn  Zn118  1  0.31492359  0.81616942  0.80723597  1
  Zn  Zn119  1  0.81662147  0.30798994  0.32013205  1
  Zn  Zn120  1  0.81091513  0.31229304  0.81220900  1
  Zn  Zn121  1  0.83169145  0.84708565  0.29138692  1
  Zn  Zn122  1  0.80940417  0.81144721  0.81403957  1
  Zn  Zn123  1  0.20295591  0.41835277  0.40535798  1
  Zn  Zn124  1  0.18419542  0.43292108  0.93603765  1
  Zn  Zn125  1  0.18485653  0.94493816  0.42984523  1
  Zn  Zn126  1  0.19210654  0.93160283  0.93277900  1
  Zn  Zn127  1  0.69047705  0.44475394  0.44075549  1
  Zn  Zn128  1  0.69198735  0.43642886  0.93511558  1
  Zn  Zn129  1  0.68506929  0.93636754  0.43880070  1
  Zn  Zn130  1  0.68444908  0.93801290  0.93815678  1
  Zn  Zn131  1  0.31383253  0.06221346  0.06211763  1
  Zn  Zn132  1  0.31385462  0.06079007  0.55802694  1
  Zn  Zn133  1  0.30749978  0.56323588  0.08357693  1
  Zn  Zn134  1  0.31798564  0.56269800  0.56644397  1
  Zn  Zn135  1  0.81008814  0.06175228  0.05984914  1
  Zn  Zn136  1  0.81228604  0.06224425  0.56099261  1
  Zn  Zn137  1  0.82056049  0.56465723  0.06265338  1
  Zn  Zn138  1  0.81343345  0.56174816  0.56190948  1
  Zn  Zn139  1  0.44116272  0.44226990  0.19335705  1
  Zn  Zn140  1  0.43381036  0.43357721  0.69062268  1
  Zn  Zn141  1  0.43955003  0.93771613  0.18710918  1
  Zn  Zn142  1  0.42966724  0.93493457  0.68303225  1
  Zn  Zn143  1  0.94849715  0.43843343  0.18786852  1
  Zn  Zn144  1  0.93904617  0.43631549  0.68711129  1
  Zn  Zn145  1  0.94013152  0.94045858  0.18309792  1
  Zn  Zn146  1  0.94040343  0.93585469  0.68784343  1
  Zn  Zn147  1  0.05603276  0.05639473  0.30967352  1
  Zn  Zn148  1  0.06582152  0.06294127  0.81289891  1
  Zn  Zn149  1  0.06838410  0.56380931  0.31059973  1
  Zn  Zn150  1  0.06256299  0.56717059  0.81517265  1
  Zn  Zn151  1  0.56589715  0.06385316  0.31405020  1
  Zn  Zn152  1  0.55925201  0.06133436  0.81299162  1
  Zn  Zn153  1  0.56320800  0.56806806  0.31449348  1
  Zn  Zn154  1  0.56327486  0.56075504  0.81466949  1
  Zn  Zn155  1  0.43523679  0.18709319  0.44191529  1
  Zn  Zn156  1  0.43688451  0.18061916  0.93671465  1
  Zn  Zn157  1  0.43583100  0.69692499  0.43918324  1
  Zn  Zn158  1  0.44401769  0.68787128  0.93973098  1
  Zn  Zn159  1  0.93042580  0.18129128  0.44155032  1
  Zn  Zn160  1  0.94015846  0.18706899  0.93836309  1
  Zn  Zn161  1  0.94034441  0.68934523  0.43613341  1
  Zn  Zn162  1  0.93740654  0.68494958  0.93420351  1
  Zn  Zn163  1  0.05806053  0.31682815  0.06262754  1
  Zn  Zn164  1  0.06263534  0.31256447  0.55855791  1
  Zn  Zn165  1  0.06731754  0.81164884  0.06037137  1
  Zn  Zn166  1  0.06402860  0.81456570  0.56625736  1
  Zn  Zn167  1  0.59268907  0.29962676  0.08061626  1
  Zn  Zn168  1  0.56111565  0.31105596  0.56739247  1
  Zn  Zn169  1  0.55864436  0.81257611  0.06483784  1
  Zn  Zn170  1  0.55976258  0.80554497  0.56885680  1
  O  O171  1  0.11531329  0.12145644  0.10992109  1
  O  O172  1  0.12118063  0.12921619  0.61064264  1
  O  O173  1  0.12157805  0.61104944  0.12823024  1
  O  O174  1  0.11242460  0.61982156  0.63231469  1
  O  O175  1  0.61469558  0.11492075  0.12661348  1
  O  O176  1  0.61808116  0.11713099  0.61837392  1
  O  O177  1  0.62058574  0.61710481  0.12087707  1
  O  O178  1  0.62945593  0.61425727  0.61722630  1
  O  O179  1  0.38220253  0.38722474  0.38505041  1
  O  O180  1  0.38769773  0.36983719  0.87116617  1
  O  O181  1  0.37170982  0.87390264  0.39353994  1
  O  O182  1  0.37792477  0.89115435  0.86988311  1
  O  O183  1  0.87909758  0.38249006  0.38137230  1
  O  O184  1  0.87657946  0.38769867  0.87151374  1
  O  O185  1  0.88388419  0.86320965  0.39490850  1
  O  O186  1  0.87303361  0.88032087  0.88507160  1
  O  O187  1  0.25603010  0.00147412  0.35912142  1
  O  O188  1  0.26099635  0.00342258  0.86636047  1
  O  O189  1  0.26335665  0.51702412  0.37852221  1
  O  O190  1  0.25665138  0.49402765  0.86694295  1
  O  O191  1  0.75190765  0.01429862  0.38975565  1
  O  O192  1  0.75386438  0.00705339  0.87077012  1
  O  O193  1  0.76083564  0.51132106  0.37142462  1
  O  O194  1  0.76348482  0.50260836  0.86915313  1
  O  O195  1  0.25415730  0.48864421  0.13862002  1
  O  O196  1  0.24270409  0.49579207  0.62988015  1
  O  O197  1  0.24871226  1.00446336  0.13970782  1
  O  O198  1  0.25427641  1.00448022  0.63858277  1
  O  O199  1  0.74341121  0.50836907  0.13386832  1
  O  O200  1  0.74961131  0.48603375  0.62528489  1
  O  O201  1  0.73612974  0.99147498  0.11552255  1
  O  O202  1  0.74475727  0.99440442  0.63021053  1
  O  O203  1  -0.00397129  0.37099160  0.26588942  1
  O  O204  1  0.00923653  0.36274616  0.74299076  1
  O  O205  1  0.01144191  0.86574291  0.25473305  1
  O  O206  1  0.00982585  0.86931554  0.75188165  1
  O  O207  1  0.50824783  0.36972353  0.25821269  1
  O  O208  1  0.50414015  0.36764430  0.75747932  1
  O  O209  1  0.51123928  0.86634754  0.24570789  1
  O  O210  1  0.51239807  0.87784159  0.74454479  1
  O  O211  1  0.49729170  0.13225492  0.24538841  1
  O  O212  1  0.50439575  0.12832951  0.73538319  1
  O  O213  1  0.49149232  0.63253586  0.24708941  1
  O  O214  1  0.48824012  0.62270537  0.75325194  1
  O  O215  1  1.00070261  0.11655129  0.23151630  1
  O  O216  1  1.00167204  0.13707730  0.74732693  1
  O  O217  1  1.00016510  0.64030811  0.25700239  1
  O  O218  1  0.99063992  0.63208722  0.74245566  1
  O  O219  1  0.36708575  0.24512361  0.00493669  1
  O  O220  1  0.36461851  0.25269770  0.50974644  1
  O  O221  1  0.38530101  0.74941938  0.01756615  1
  O  O222  1  0.37279395  0.76283490  0.50783228  1
  O  O223  1  0.87670299  0.26703362  -0.00869527  1
  O  O224  1  0.86502003  0.25451778  0.51044648  1
  O  O225  1  0.86654224  0.75675101  -0.00342796  1
  O  O226  1  0.87070704  0.75404092  0.50900664  1
  O  O227  1  0.13922311  0.24463317  0.50117513  1
  O  O228  1  0.13293224  0.24617135  0.99294894  1
  O  O229  1  0.11948284  0.75486211  0.48766026  1
  O  O230  1  0.12502710  0.75396017  0.98260065  1
  O  O231  1  0.63158598  0.24011939  0.51102493  1
  O  O232  1  0.61421942  0.24496245  0.98008063  1
  O  O233  1  0.63233531  0.74542365  0.49747553  1
  O  O234  1  0.62849138  0.74662036  0.99392599  1
  O  O235  1  0.50024328  0.24184027  0.13162864  1
  O  O236  1  0.49033144  0.24199121  0.63147520  1
  O  O237  1  0.49568392  0.74361793  0.13682379  1
  O  O238  1  0.48209198  0.75275262  0.62960938  1
  O  O239  1  0.99836602  0.23464178  0.11933509  1
  O  O240  1  0.99071687  0.24970351  0.62996061  1
  O  O241  1  1.00222790  0.75062892  0.13347470  1
  O  O242  1  0.99678545  0.74345765  0.63430302  1
  O  O243  1  -0.01406059  0.25861489  0.37868434  1
  O  O244  1  0.01349876  0.24673520  0.86729210  1
  O  O245  1  0.00910739  0.75606327  0.36973308  1
  O  O246  1  -0.00477706  0.75312979  0.86055925  1
  O  O247  1  0.49617542  0.25096036  0.36479151  1
  O  O248  1  0.50234681  0.25298589  0.86773863  1
  O  O249  1  0.50768665  0.74668657  0.36268508  1
  O  O250  1  0.51328632  0.74894810  0.87105322  1
  O  O251  1  0.24249871  0.12987876  0.49966109  1
  O  O252  1  0.24244950  0.13300840  0.99874806  1
  O  O253  1  0.25255196  0.62670888  0.49352040  1
  O  O254  1  0.26457077  0.60873765  0.98459570  1
  O  O255  1  0.73953922  0.13199057  0.50171943  1
  O  O256  1  0.74605669  0.12721794  0.98613896  1
  O  O257  1  0.74697059  0.63039574  0.49406767  1
  O  O258  1  0.74500272  0.63291636  0.99966361  1
  O  O259  1  0.25196656  0.35987610  -0.00780679  1
  O  O260  1  0.25856412  0.36457899  0.49976176  1
  O  O261  1  0.25902059  0.88309774  0.00637359  1
  O  O262  1  0.25362164  0.88201199  0.50006781  1
  O  O263  1  0.77068127  0.37492797  -0.00944342  1
  O  O264  1  0.75301635  0.36801152  0.50620847  1
  O  O265  1  0.75341253  0.86855714  0.00525491  1
  O  O266  1  0.75678556  0.86950273  0.50648448  1
  O  O267  1  0.12804554  0.49021430  0.25591377  1
  O  O268  1  0.12914685  0.49394951  0.74673212  1
  O  O269  1  0.13218615  0.98876194  0.25074867  1
  O  O270  1  0.13547698  0.98845865  0.75650013  1
  O  O271  1  0.63275368  0.50227413  0.24522641  1
  O  O272  1  0.62772615  0.49541644  0.74163040  1
  O  O273  1  0.61497850  0.98926107  0.24014950  1
  O  O274  1  0.63036312  0.99323125  0.74611101  1
  O  O275  1  0.37088688  0.00806811  0.25012623  1
  O  O276  1  0.36193040  -0.00349515  0.75455042  1
  O  O277  1  0.37787785  0.51112451  0.26313686  1
  O  O278  1  0.36598293  0.50868785  0.74295494  1
  O  O279  1  0.86579375  -0.04549080  0.26244584  1
  O  O280  1  0.87018073  0.00012505  0.75633529  1
  O  O281  1  0.87061538  0.50229098  0.25767875  1
  O  O282  1  0.87744661  0.50639026  0.75645120  1
  O  O283  1  0.10106206  0.36858946  0.38222212  1
  O  O284  1  0.12861506  0.36622875  0.85984964  1
  O  O285  1  0.12184350  0.86791299  0.36651451  1
  O  O286  1  0.12614688  0.86315097  0.86320310  1
  O  O287  1  0.62442445  0.38785106  0.36630165  1
  O  O288  1  0.61926724  0.36801367  0.86917549  1
  O  O289  1  0.63391245  0.86716114  0.36330270  1
  O  O290  1  0.63137682  0.86625118  0.86495044  1
  O  O291  1  0.38687197  0.13017314  0.13528375  1
  O  O292  1  0.38209863  0.13305236  0.61889021  1
  O  O293  1  0.38139129  0.63585692  0.13650911  1
  O  O294  1  0.37546989  0.63621330  0.63098400  1
  O  O295  1  0.88683145  0.11940316  0.11759159  1
  O  O296  1  0.87331776  0.13829390  0.62773427  1
  O  O297  1  0.88523463  0.63079515  0.12819994  1
  O  O298  1  0.88460772  0.62766628  0.63088809  1
  O  O299  1  0.26453508  0.25047644  0.10967132  1
  O  O300  1  0.25432690  0.25409816  0.61914898  1
  O  O301  1  0.26568276  0.74781326  0.13228258  1
  O  O302  1  0.26705469  0.74835223  0.63122263  1
  O  O303  1  0.70667108  0.26276002  0.10295435  1
  O  O304  1  0.75401460  0.25958609  0.62174009  1
  O  O305  1  0.74781902  0.75681422  0.11077527  1
  O  O306  1  0.75566926  0.75572583  0.62176341  1
  O  O307  1  0.25938356  0.23865142  0.38193321  1
  O  O308  1  0.24268612  0.24631442  0.88166995  1
  O  O309  1  0.24427564  0.73619979  0.37444770  1
  O  O310  1  0.24707119  0.75268136  0.87403198  1
  O  O311  1  0.74862296  0.23953668  0.39302107  1
  O  O312  1  0.74083344  0.24263806  0.87389221  1
  O  O313  1  0.74627889  0.73866013  0.37938605  1
  O  O314  1  0.74110757  0.74818323  0.88566070  1
  O  O315  1  0.00686063  0.11710801  0.00310217  1
  O  O316  1  0.00643242  0.11788778  0.50062037  1
  O  O317  1  -0.00525016  0.60864366  -0.00469074  1
  O  O318  1  -0.00587137  0.61568083  0.50949320  1
  O  O319  1  0.50134173  0.11567512  0.00987151  1
  O  O320  1  0.50410228  0.11958379  0.51019418  1
  O  O321  1  0.50932977  0.61451347  0.00468475  1
  O  O322  1  0.51317817  0.63261687  0.49590123  1
  O  O323  1  0.48547322  0.36404040  0.50126994  1
  O  O324  1  0.50672327  0.38628105  0.99546475  1
  O  O325  1  0.50568684  0.88567883  0.50174796  1
  O  O326  1  0.49267037  0.88682358  1.00549925  1
  O  O327  1  0.99096860  0.38183425  0.49425943  1
  O  O328  1  0.98550095  0.38673533  0.99445321  1
  O  O329  1  0.99452352  0.88199467  0.49968888  1
  O  O330  1  0.99181000  0.88103405  0.99745566  1
  O  O331  1  0.48972947  0.50517756  0.37785626  1
  O  O332  1  0.50588631  0.48887454  0.88420229  1
  O  O333  1  0.49859030  1.00483585  0.39121631  1
  O  O334  1  0.49136808  1.00381298  0.88403099  1
  O  O335  1  0.98949338  0.50129528  0.38092186  1
  O  O336  1  0.98717873  0.50422220  0.87887440  1
  O  O337  1  0.99506174  0.99202525  0.38518540  1
  O  O338  1  0.99441020  0.99917829  0.88379729  1
  O  O339  1  0.00317951  0.00122028  0.11027093  1
  O  O340  1  -0.00577459  0.00338693  0.61206414  1
  O  O341  1  -0.00320894  0.50189420  0.10574780  1
  O  O342  1  0.00373699  0.50637689  0.61724883  1
  O  O343  1  0.50435163  0.00635370  0.11786346  1
  O  O344  1  0.50090296  0.00521478  0.61679815  1
  O  O345  1  0.50550319  0.50740784  0.11868457  1
  O  O346  1  0.50988383  0.49186637  0.62633374  1
  O  O347  1  0.23641329  0.37999144  0.29493507  1
  O  O348  1  0.24263983  0.38494461  0.74160901  1
  O  O349  1  0.24510541  0.88091383  0.24733575  1
  O  O350  1  0.24060769  0.88659674  0.74898248  1
  O  O351  1  0.74332823  0.39467441  0.25360648  1
  O  O352  1  0.74165915  0.37483972  0.74168216  1
  O  O353  1  0.73348210  0.86283138  0.22961451  1
  O  O354  1  0.74369896  0.88012532  0.74469760  1
  O  O355  1  0.25309653  0.12509556  0.25405997  1
  O  O356  1  0.24019885  0.11014577  0.75341621  1
  O  O357  1  0.26381017  0.62726509  0.25876223  1
  O  O358  1  0.25706933  0.61197493  0.74606839  1
  O  O359  1  0.72595006  0.11226052  0.27266359  1
  O  O360  1  0.75105454  0.11888756  0.75885938  1
  O  O361  1  0.75163495  0.61920480  0.25899781  1
  O  O362  1  0.76473794  0.62482751  0.74659075  1
  O  O363  1  0.38208140  0.12312217  0.36086594  1
  O  O364  1  0.37563116  0.10886333  0.87139184  1
  O  O365  1  0.36834272  0.62485186  0.37510065  1
  O  O366  1  0.37622152  0.62572517  0.86709303  1
  O  O367  1  0.85571002  0.12447498  0.37586868  1
  O  O368  1  0.86693561  0.11992952  0.87317095  1
  O  O369  1  0.86846901  0.61955422  0.37366880  1
  O  O370  1  0.87242308  0.61681440  0.86462428  1
  O  O371  1  0.11508834  0.37869493  0.13315666  1
  O  O372  1  0.12932373  0.38047543  0.63197653  1
  O  O373  1  0.12811182  0.87647376  0.13638604  1
  O  O374  1  0.12294645  0.87548363  0.64107163  1
  O  O375  1  0.61726091  0.39477681  0.14197477  1
  O  O376  1  0.63078308  0.38102123  0.63002848  1
  O  O377  1  0.62813331  0.88281999  0.12835878  1
  O  O378  1  0.63088323  0.87936625  0.63226226  1
  O  O379  1  0.14251545  0.23808829  0.26161426  1
  O  O380  1  0.12094036  0.25655299  0.75499910  1
  O  O381  1  0.12254715  0.75586729  0.25827057  1
  O  O382  1  0.12078453  0.76205463  0.75180524  1
  O  O383  1  0.61860084  0.26566601  0.24929473  1
  O  O384  1  0.61674177  0.25455106  0.75740757  1
  O  O385  1  0.61737090  0.75378014  0.25419719  1
  O  O386  1  0.62454606  0.75737000  0.75693176  1
  O  O387  1  0.38490385  0.24435107  0.24195522  1
  O  O388  1  0.37402455  0.25379897  0.73715998  1
  O  O389  1  0.38271233  0.74556124  0.24750807  1
  O  O390  1  0.37690100  0.74255377  0.74204282  1
  O  O391  1  0.81101368  0.24860070  0.22922776  1
  O  O392  1  0.88385228  0.25058091  0.74464711  1
  O  O393  1  0.88747554  0.75472259  0.24734560  1
  O  O394  1  0.88129761  0.74502990  0.74523477  1
  O  O395  1  0.37227329  0.48917483  0.49700839  1
  O  O396  1  0.38385527  0.50970558  0.99109152  1
  O  O397  1  0.38305578  0.98608958  0.50001289  1
  O  O398  1  0.38177324  1.00152517  0.98891923  1
  O  O399  1  0.88045566  0.49445984  0.49209562  1
  O  O400  1  0.87932731  0.49328134  0.98649278  1
  O  O401  1  0.88128962  0.99147042  0.49880557  1
  O  O402  1  0.88091184  0.99245929  0.99281141  1
  O  O403  1  0.11814947  0.00694583  -0.00393896  1
  O  O404  1  0.11597819  0.00990322  0.49403383  1
  O  O405  1  0.10812646  0.49464267  -0.00946568  1
  O  O406  1  0.11273892  0.49328251  0.50282509  1
  O  O407  1  0.61443593  0.00051104  0.00684046  1
  O  O408  1  0.61484103  0.00383110  0.50741381  1
  O  O409  1  0.62214613  0.50171180  0.00765244  1
  O  O410  1  0.62858108  0.51074054  0.51069693  1
  O  O411  1  0.38765283  0.36246745  0.13061623  1
  O  O412  1  0.36671334  0.36730881  0.61915273  1
  O  O413  1  0.37567062  0.85852536  0.13162877  1
  O  O414  1  0.37363341  0.86655647  0.60973030  1
  O  O415  1  0.87572749  0.38382146  0.11063540  1
  O  O416  1  0.86750455  0.36621795  0.62260218  1
  O  O417  1  0.86487157  0.87309401  0.10968280  1
  O  O418  1  0.87155880  0.86925867  0.61703071  1
  O  O419  1  0.12618450  0.12546245  0.37888077  1
  O  O420  1  0.12675612  0.13298859  0.88502755  1
  O  O421  1  0.13972136  0.63173779  0.37701817  1
  O  O422  1  0.12426301  0.64911773  0.86052384  1
  O  O423  1  0.62947306  0.12128496  0.39319734  1
  O  O424  1  0.63201086  0.13154267  0.87202994  1
  O  O425  1  0.63452115  0.63022299  0.38383191  1
  O  O426  1  0.62953195  0.63227740  0.88077829  1
