# generated using pymatgen
data_V85Zn86O256
_symmetry_space_group_name_H-M   'P 1'
_cell_length_a   16.96252619
_cell_length_b   16.94253605
_cell_length_c   16.97810200
_cell_angle_alpha   90.01984460
_cell_angle_beta   89.99492619
_cell_angle_gamma   89.98559768
_symmetry_Int_Tables_number   1
_chemical_formula_structural   V85Zn86O256
_chemical_formula_sum   'V85 Zn86 O256'
_cell_volume   4879.30590412
_cell_formula_units_Z   1
loop_
 _symmetry_equiv_pos_site_id
 _symmetry_equiv_pos_as_xyz
  1  'x, y, z'
loop_
 _atom_site_type_symbol
 _atom_site_label
 _atom_site_symmetry_multiplicity
 _atom_site_fract_x
 _atom_site_fract_y
 _atom_site_fract_z
 _atom_site_occupancy
  V  V0  1  0.49469517  0.49444130  0.00476164  1
  V  V1  1  0.25624505  0.88264503  0.12331808  1
  V  V2  1  0.37592180  0.12312183  0.74939799  1
  V  V3  1  0.63347623  0.37801063  0.74864152  1
  V  V4  1  0.87290100  0.12675789  0.74529024  1
  V  V5  1  0.12626292  0.25095537  0.87141170  1
  V  V6  1  0.61982150  0.86890891  0.24828498  1
  V  V7  1  0.62425037  0.13356723  0.49847179  1
  V  V8  1  -0.00352552  0.25190840  0.74074086  1
  V  V9  1  0.50335007  0.24861770  0.25562057  1
  V  V10  1  0.25011689  0.12510918  0.87022697  1
  V  V11  1  0.49488386  0.87014655  0.37281099  1
  V  V12  1  0.25050769  0.62265734  0.87859557  1
  V  V13  1  0.50224075  0.25465502  0.75242407  1
  V  V14  1  0.50000497  0.37185829  0.37986618  1
  V  V15  1  -0.00586437  0.37552384  0.87379370  1
  V  V16  1  0.87829691  0.63129056  0.25343537  1
  V  V17  1  0.87041142  -0.00308045  0.37588713  1
  V  V18  1  0.13927637  0.24681936  0.37358615  1
  V  V19  1  0.49834394  -0.00164618  0.50037855  1
  V  V20  1  0.36680062  0.25636777  0.62671827  1
  V  V21  1  0.87993028  0.63248374  0.75050539  1
  V  V22  1  0.49835431  0.12720020  0.12769510  1
  V  V23  1  0.75300664  0.50040443  0.25041306  1
  V  V24  1  -0.00358749  0.87053334  0.86614796  1
  V  V25  1  0.75055875  0.13131144  0.87848505  1
  V  V26  1  0.62377232  -0.00098313  0.62786470  1
  V  V27  1  0.63206688  0.50065703  0.61751525  1
  V  V28  1  0.49615148  0.63332028  0.13008926  1
  V  V29  1  0.62205699  0.74805632  0.38084594  1
  V  V30  1  0.12489785  0.87041464  0.74077266  1
  V  V31  1  0.49918260  0.86427162  0.87930381  1
  V  V32  1  0.36855532  0.00632265  0.37663999  1
  V  V33  1  0.87197984  0.12940862  0.24530708  1
  V  V34  1  0.74312620  0.63132724  0.87591491  1
  V  V35  1  0.00065158  0.63401646  0.13053563  1
  V  V36  1  -0.00528867  0.49868652  0.00267530  1
  V  V37  1  0.62543953  0.50396739  0.12584026  1
  V  V38  1  -0.01784876  0.14848569  0.10128413  1
  V  V39  1  0.86446016  0.87477580  0.00022400  1
  V  V40  1  0.37893078  0.63919776  0.25497305  1
  V  V41  1  0.10381002  0.75347574  0.36971226  1
  V  V42  1  0.62896063  0.37300354  0.25733530  1
  V  V43  1  0.87383906  0.37133188  0.51004684  1
  V  V44  1  0.36031009  0.86939845  0.50758276  1
  V  V45  1  0.12305720  0.00083382  0.12367609  1
  V  V46  1  0.12692706  0.37528317  0.73982840  1
  V  V47  1  0.12568444  0.37400478  0.24540631  1
  V  V48  1  0.37386716  0.49189731  0.88006608  1
  V  V49  1  0.12567883  0.12550993  -0.00568623  1
  V  V50  1  0.11992456  0.75094297  0.87477010  1
  V  V51  1  0.87465994  0.87290364  0.49804664  1
  V  V52  1  0.00175243  0.50206445  0.49794896  1
  V  V53  1  0.62782254  0.13499593  0.00134730  1
  V  V54  1  0.62355462  0.86358589  0.75488956  1
  V  V55  1  0.50025533  0.50416273  0.49567939  1
  V  V56  1  0.49871509  -0.00358328  -0.00002770  1
  V  V57  1  0.00363054  0.63082465  0.62525856  1
  V  V58  1  0.25635957  0.75536431  0.00265624  1
  V  V59  1  0.36818676  0.37867491  0.49952085  1
  V  V60  1  -0.00099940  -0.00606037  -0.00215813  1
  V  V61  1  0.25391377  0.49586277  0.74572210  1
  V  V62  1  0.62855224  -0.00514496  0.12379737  1
  V  V63  1  -0.00146740  -0.00028749  0.49746424  1
  V  V64  1  0.49979690  0.12586030  0.62680921  1
  V  V65  1  0.25967325  0.49725482  0.25492879  1
  V  V66  1  0.50049787  0.63051432  0.62145412  1
  V  V67  1  -0.00187394  0.12692045  0.62137279  1
  V  V68  1  0.37425360  -0.00464241  0.88435385  1
  V  V69  1  0.13099668  0.12240877  0.48920492  1
  V  V70  1  0.74687648  0.62514109  0.38152703  1
  V  V71  1  0.24892151  0.00875417  0.25051034  1
  V  V72  1  0.24769521  0.63611495  0.37648444  1
  V  V73  1  0.74987554  0.87214245  0.62579042  1
  V  V74  1  0.13052880  0.50169995  0.61670520  1
  V  V75  1  0.74625806  -0.00492530  0.25027388  1
  V  V76  1  0.87216681  0.49965857  0.87514600  1
  V  V77  1  0.12936800  0.49617980  0.12623206  1
  V  V78  1  0.25084788  -0.00821031  0.74356592  1
  V  V79  1  0.76179164  0.36531030  0.11552266  1
  V  V80  1  0.75447688  0.25218606  0.51472539  1
  V  V81  1  0.12527397  0.62749648  0.00199986  1
  V  V82  1  -0.00119205  0.24606825  0.25605084  1
  V  V83  1  0.74495552  0.13601307  0.37441896  1
  V  V84  1  0.86660643  0.75340631  0.12669194  1
  Zn  Zn85  1  0.10808032  0.86603647  0.24579344  1
  Zn  Zn86  1  0.87785213  0.49778991  0.37481687  1
  Zn  Zn87  1  0.37017109  0.13257696  0.25641345  1
  Zn  Zn88  1  0.25237792  0.24753370  0.50044361  1
  Zn  Zn89  1  0.63094642  0.25901371  0.88103282  1
  Zn  Zn90  1  -0.00048508  0.37499835  0.37572932  1
  Zn  Zn91  1  0.12904980  -0.00364609  0.61929151  1
  Zn  Zn92  1  0.25565721  0.27272149  0.00450497  1
  Zn  Zn93  1  0.74866171  0.74438201  0.50311321  1
  Zn  Zn94  1  0.87904648  0.75101578  0.62631609  1
  Zn  Zn95  1  0.37795301  0.75757261  0.12698268  1
  Zn  Zn96  1  0.61789022  0.63083126  -0.00611984  1
  Zn  Zn97  1  0.75001782  0.00042559  0.75133168  1
  Zn  Zn98  1  0.49543673  0.74685340  0.75320046  1
  Zn  Zn99  1  0.87253722  -0.00008264  0.87257453  1
  Zn  Zn100  1  0.37135044  0.27266388  0.12311350  1
  Zn  Zn101  1  0.75427613  0.49761688  0.74445553  1
  Zn  Zn102  1  0.37577967  0.62654306  0.74999770  1
  Zn  Zn103  1  0.35311316  0.75128264  0.62762655  1
  Zn  Zn104  1  0.74061125  0.75567534  0.00013418  1
  Zn  Zn105  1  0.18916770  0.68889579  0.53689885  1
  Zn  Zn106  1  0.50115558  0.37584314  0.87953256  1
  Zn  Zn107  1  0.18221429  0.18502584  0.18340726  1
  Zn  Zn108  1  0.18487450  0.18256247  0.68375485  1
  Zn  Zn109  1  0.18966492  0.68997977  0.19031236  1
  Zn  Zn110  1  0.18488460  0.68294888  0.69995470  1
  Zn  Zn111  1  0.68591958  0.18944972  0.18606861  1
  Zn  Zn112  1  0.68641794  0.18855920  0.68995549  1
  Zn  Zn113  1  0.68783417  0.68764324  0.19108670  1
  Zn  Zn114  1  0.68721210  0.68227482  0.68799093  1
  Zn  Zn115  1  0.31797672  0.31654187  0.31051880  1
  Zn  Zn116  1  0.31186361  0.31377013  0.81352686  1
  Zn  Zn117  1  0.30417981  0.82139001  0.31170615  1
  Zn  Zn118  1  0.31319531  0.81057443  0.81241626  1
  Zn  Zn119  1  0.81513969  0.31488421  0.31720206  1
  Zn  Zn120  1  0.81291056  0.31038078  0.80971038  1
  Zn  Zn121  1  0.81042086  0.81162362  0.31269270  1
  Zn  Zn122  1  0.81195777  0.81108013  0.81042566  1
  Zn  Zn123  1  0.18762564  0.43796162  0.43072418  1
  Zn  Zn124  1  0.17796049  0.43918926  0.93069936  1
  Zn  Zn125  1  0.18325471  0.93311700  0.42963442  1
  Zn  Zn126  1  0.18847161  0.93608122  0.93478269  1
  Zn  Zn127  1  0.69016667  0.43483399  0.43793892  1
  Zn  Zn128  1  0.68512100  0.44133469  0.94003120  1
  Zn  Zn129  1  0.68579010  0.93847560  0.43825711  1
  Zn  Zn130  1  0.68494484  0.94391656  0.93270020  1
  Zn  Zn131  1  0.31499263  0.12589079  0.06090930  1
  Zn  Zn132  1  0.31257355  0.06120059  0.56298359  1
  Zn  Zn133  1  0.30983627  0.44446257  0.06410625  1
  Zn  Zn134  1  0.31936137  0.56040324  0.56275879  1
  Zn  Zn135  1  0.80884096  0.06050661  0.06060708  1
  Zn  Zn136  1  0.81051936  0.06328207  0.56441283  1
  Zn  Zn137  1  0.81216016  0.56255331  0.06269081  1
  Zn  Zn138  1  0.81796892  0.56036493  0.56169183  1
  Zn  Zn139  1  0.44251867  0.44307440  0.19616815  1
  Zn  Zn140  1  0.44163136  0.43849589  0.68482912  1
  Zn  Zn141  1  0.43678783  0.94164249  0.18894441  1
  Zn  Zn142  1  0.43729014  0.93351116  0.69009733  1
  Zn  Zn143  1  0.93901138  0.43814760  0.18894340  1
  Zn  Zn144  1  0.93887890  0.44330319  0.68580361  1
  Zn  Zn145  1  0.93380881  0.93961536  0.17978799  1
  Zn  Zn146  1  0.93780324  0.94025713  0.68492193  1
  Zn  Zn147  1  0.03791688  0.03128571  0.29216024  1
  Zn  Zn148  1  0.06109138  0.05794136  0.80915882  1
  Zn  Zn149  1  0.06637364  0.56565562  0.31395414  1
  Zn  Zn150  1  0.06208113  0.56189748  0.80987743  1
  Zn  Zn151  1  0.56084687  0.05977559  0.31556183  1
  Zn  Zn152  1  0.56368939  0.06183334  0.81493296  1
  Zn  Zn153  1  0.56265257  0.56245959  0.31449702  1
  Zn  Zn154  1  0.55995714  0.55895513  0.80782772  1
  Zn  Zn155  1  0.43847547  0.19051027  0.43879979  1
  Zn  Zn156  1  0.44053380  0.18676561  0.93582914  1
  Zn  Zn157  1  0.43287756  0.68904976  0.43900741  1
  Zn  Zn158  1  0.43392152  0.67917321  0.94198188  1
  Zn  Zn159  1  0.93664712  0.18699895  0.43457536  1
  Zn  Zn160  1  0.93845226  0.18710938  0.92937624  1
  Zn  Zn161  1  0.93619913  0.68540678  0.44038569  1
  Zn  Zn162  1  0.93410258  0.68805169  0.94068059  1
  Zn  Zn163  1  0.04799090  0.30677609  0.05715847  1
  Zn  Zn164  1  0.06366489  0.31293433  0.55851071  1
  Zn  Zn165  1  0.06071108  0.81429435  0.06172129  1
  Zn  Zn166  1  0.06025682  0.81353025  0.55576166  1
  Zn  Zn167  1  0.56437145  0.31597397  0.07131663  1
  Zn  Zn168  1  0.56221043  0.31488501  0.56669673  1
  Zn  Zn169  1  0.56461984  0.81129275  0.06104854  1
  Zn  Zn170  1  0.56131960  0.81439114  0.55852588  1
  O  O171  1  0.11008446  0.12166438  0.10800309  1
  O  O172  1  0.11231578  0.12085029  0.61713693  1
  O  O173  1  0.11812691  0.62078380  0.12053017  1
  O  O174  1  0.11936350  0.61635131  0.62219478  1
  O  O175  1  0.61744556  0.11839441  0.11993716  1
  O  O176  1  0.62012047  0.11743791  0.62063467  1
  O  O177  1  0.61645807  0.61469830  0.13680609  1
  O  O178  1  0.61530850  0.61139995  0.62797514  1
  O  O179  1  0.39065290  0.37185799  0.38387764  1
  O  O180  1  0.37940230  0.38710553  0.87120053  1
  O  O181  1  0.37879426  0.88182051  0.38334058  1
  O  O182  1  0.38433399  0.88601012  0.87086079  1
  O  O183  1  0.88018150  0.37882403  0.38550867  1
  O  O184  1  0.88593581  0.38178528  0.86775868  1
  O  O185  1  0.86536808  0.88863734  0.38221661  1
  O  O186  1  0.88118503  0.87520134  0.87914230  1
  O  O187  1  0.25660576  -0.00390939  0.36449478  1
  O  O188  1  0.25765242  0.00265397  0.86560457  1
  O  O189  1  0.23916112  0.51310934  0.35804557  1
  O  O190  1  0.25481726  0.50362594  0.86841565  1
  O  O191  1  0.75252755  0.00999167  0.36985504  1
  O  O192  1  0.75178469  0.01442628  0.86967661  1
  O  O193  1  0.74887054  0.50604316  0.36410648  1
  O  O194  1  0.76353082  0.50459860  0.87547893  1
  O  O195  1  0.23477292  0.50510374  0.13955331  1
  O  O196  1  0.24222835  0.50610272  0.63254561  1
  O  O197  1  0.23885641  0.99582288  0.12659792  1
  O  O198  1  0.24821831  1.00323122  0.63972181  1
  O  O199  1  0.74409445  0.50015080  0.13628522  1
  O  O200  1  0.73565280  0.50733786  0.62399995  1
  O  O201  1  0.73642887  1.00534765  0.13454817  1
  O  O202  1  0.74164833  0.98965636  0.62689302  1
  O  O203  1  0.00697271  0.36655943  0.25351234  1
  O  O204  1  0.00419720  0.36915115  0.75106553  1
  O  O205  1  0.01009942  0.92304163  0.25626156  1
  O  O206  1  0.00521909  0.87966335  0.76000939  1
  O  O207  1  0.50888580  0.37188213  0.26144131  1
  O  O208  1  0.50974932  0.36857765  0.75125071  1
  O  O209  1  0.50751196  0.88157054  0.26050146  1
  O  O210  1  0.50699414  0.87149445  0.75953997  1
  O  O211  1  0.50607073  0.13407042  0.24602328  1
  O  O212  1  0.49614084  0.13178280  0.74632930  1
  O  O213  1  0.48490284  0.61971704  0.24975480  1
  O  O214  1  0.49836867  0.62602242  0.73694511  1
  O  O215  1  0.98619059  0.12804094  0.24163986  1
  O  O216  1  0.99570987  0.13151381  0.74225964  1
  O  O217  1  0.99096900  0.61729569  0.23980185  1
  O  O218  1  0.99264901  0.61825185  0.73886799  1
  O  O219  1  0.36666907  0.22513758  0.00935008  1
  O  O220  1  0.37400707  0.25647599  0.50943558  1
  O  O221  1  0.35858579  0.74296781  0.00457831  1
  O  O222  1  0.37459170  0.76583765  0.50319799  1
  O  O223  1  0.94566867  0.22594459  0.03433550  1
  O  O224  1  0.87029584  0.26145272  0.49700040  1
  O  O225  1  0.86943153  0.75823595  0.00764528  1
  O  O226  1  0.87075176  0.75954739  0.50223323  1
  O  O227  1  0.12926861  0.24433370  0.49151997  1
  O  O228  1  0.12244405  0.23950991  0.98883296  1
  O  O229  1  0.11556570  0.75032108  0.47954610  1
  O  O230  1  0.12787376  0.74577932  0.99274848  1
  O  O231  1  0.63120107  0.23914605  0.50784236  1
  O  O232  1  0.61639716  0.23838187  1.00086938  1
  O  O233  1  0.63031694  0.75761666  0.48481506  1
  O  O234  1  0.62944697  0.74220227  1.00440583  1
  O  O235  1  0.49837379  0.24168080  0.13332264  1
  O  O236  1  0.49378913  0.24534701  0.63646004  1
  O  O237  1  0.49746215  0.73761498  0.12355188  1
  O  O238  1  0.50743422  0.73496698  0.62128032  1
  O  O239  1  1.02082858  0.24340178  0.15076792  1
  O  O240  1  1.00572055  0.24409403  0.63434894  1
  O  O241  1  0.99065501  0.73902106  0.11855196  1
  O  O242  1  1.00057618  0.73462373  0.61789277  1
  O  O243  1  0.01047955  0.24750026  0.36595423  1
  O  O244  1  0.00501747  0.25818863  0.86078313  1
  O  O245  1  0.00480923  0.74333526  0.36892502  1
  O  O246  1  0.00662294  0.75971038  0.88358931  1
  O  O247  1  0.50214100  0.25831643  0.36917951  1
  O  O248  1  0.50200520  0.25153010  0.86281249  1
  O  O249  1  0.50522893  0.76164056  0.37957312  1
  O  O250  1  0.49104871  0.76127528  0.87995289  1
  O  O251  1  0.23560690  0.12565125  0.50735192  1
  O  O252  1  0.23216813  0.10906623  0.98414113  1
  O  O253  1  0.25518895  0.61383339  0.47997875  1
  O  O254  1  0.23215152  0.63364473  0.99567812  1
  O  O255  1  0.74431603  0.13095541  0.49462208  1
  O  O256  1  0.74038830  0.12203091  0.99250273  1
  O  O257  1  0.75657755  0.62313262  0.48518414  1
  O  O258  1  0.75238325  0.62268300  0.98347389  1
  O  O259  1  0.23944271  0.38295111  0.00202901  1
  O  O260  1  0.26504372  0.37470025  0.49091070  1
  O  O261  1  0.24276543  0.86668615  0.00870230  1
  O  O262  1  0.26212587  0.88301330  0.49907004  1
  O  O263  1  0.74540027  0.38195757  0.01728910  1
  O  O264  1  0.76298663  0.36663181  0.49679093  1
  O  O265  1  0.76130681  0.87788571  -0.00872754  1
  O  O266  1  0.75875787  0.87710760  0.50836503  1
  O  O267  1  0.12851229  0.49256343  0.24350495  1
  O  O268  1  0.13045925  0.49327604  0.74001854  1
  O  O269  1  0.13353415  1.01710298  0.23044312  1
  O  O270  1  0.13297235  0.98912365  0.74888924  1
  O  O271  1  0.63307719  0.49411996  0.24644425  1
  O  O272  1  0.62694508  0.49321054  0.73884050  1
  O  O273  1  0.62876417  0.99330725  0.24424143  1
  O  O274  1  0.62334996  0.99444443  0.73783540  1
  O  O275  1  0.36627845  -0.00062599  0.26118237  1
  O  O276  1  0.36900613  0.00336417  0.75599662  1
  O  O277  1  0.36149130  0.51031365  0.25147634  1
  O  O278  1  0.36756190  0.49950421  0.75414209  1
  O  O279  1  0.86285525  0.00930336  0.25630714  1
  O  O280  1  0.87569595  0.01392494  0.75053375  1
  O  O281  1  0.86828136  0.51046842  0.25102976  1
  O  O282  1  0.87423884  0.50821966  0.75828938  1
  O  O283  1  0.12283017  0.36538867  0.36374807  1
  O  O284  1  0.11135402  0.37443504  0.85887652  1
  O  O285  1  0.12401100  0.85810903  0.36845465  1
  O  O286  1  0.11609760  0.86807528  0.86919069  1
  O  O287  1  0.62009360  0.37773357  0.36435288  1
  O  O288  1  0.62224835  0.37723028  0.86660635  1
  O  O289  1  0.61548570  0.87259771  0.36938055  1
  O  O290  1  0.61370114  0.88309399  0.86477580  1
  O  O291  1  0.39634480  0.10716045  0.13789059  1
  O  O292  1  0.38216759  0.13134403  0.63016247  1
  O  O293  1  0.38257072  0.63022397  0.14433869  1
  O  O294  1  0.38824359  0.62810235  0.62613329  1
  O  O295  1  0.87751097  0.11964066  0.13308944  1
  O  O296  1  0.88784888  0.12158002  0.62995466  1
  O  O297  1  0.88182022  0.63118382  0.13159404  1
  O  O298  1  0.88273504  0.62412153  0.63361975  1
  O  O299  1  0.26099753  0.22293367  0.11362156  1
  O  O300  1  0.26373399  0.24691084  0.62747308  1
  O  O301  1  0.24663943  0.76210353  0.11830575  1
  O  O302  1  0.24033038  0.73899960  0.62197069  1
  O  O303  1  0.74700805  0.26610022  0.12842556  1
  O  O304  1  0.75228300  0.24345146  0.61364220  1
  O  O305  1  0.76324976  0.74406758  0.12349246  1
  O  O306  1  0.74852879  0.76061834  0.62362735  1
  O  O307  1  0.24236473  0.25059597  0.37384453  1
  O  O308  1  0.24311991  0.24367128  0.87586160  1
  O  O309  1  0.24795961  0.73855274  0.37266493  1
  O  O310  1  0.24178779  0.74533139  0.88423778  1
  O  O311  1  0.75191936  0.23845463  0.38281667  1
  O  O312  1  0.74851367  0.23778925  0.87191906  1
  O  O313  1  0.74203584  0.74191263  0.37589355  1
  O  O314  1  0.75468470  0.73405438  0.87567061  1
  O  O315  1  0.01173274  0.10663569  -0.01436407  1
  O  O316  1  0.00452974  0.12193813  0.50644746  1
  O  O317  1  0.00796154  0.62040973  0.00682098  1
  O  O318  1  -0.00872778  0.60944736  0.50903275  1
  O  O319  1  0.50897813  0.11435105  0.00705418  1
  O  O320  1  0.50775652  0.12091894  0.50601829  1
  O  O321  1  0.49854268  0.61437558  0.01296261  1
  O  O322  1  0.49490985  0.61679923  0.50792133  1
  O  O323  1  0.49669761  0.37893924  0.49414232  1
  O  O324  1  0.50913322  0.39018477  1.00159280  1
  O  O325  1  0.49354631  0.88271886  0.49206384  1
  O  O326  1  0.50391062  0.88851054  0.99476393  1
  O  O327  1  0.99173865  0.38196155  0.49905566  1
  O  O328  1  1.00708926  0.38695176  0.98620050  1
  O  O329  1  0.98389573  0.88535590  0.50418862  1
  O  O330  1  0.99157660  0.88098854  0.99157800  1
  O  O331  1  0.50900533  0.49209207  0.38931890  1
  O  O332  1  0.49142743  0.50263252  0.88530950  1
  O  O333  1  0.49214125  0.99035255  0.38129783  1
  O  O334  1  0.49431219  0.99433873  0.88272617  1
  O  O335  1  1.00299420  0.50002043  0.38510635  1
  O  O336  1  0.99198378  0.49531193  0.88010205  1
  O  O337  1  0.98340416  1.01327274  0.39175287  1
  O  O338  1  0.99821199  0.98825997  0.88063549  1
  O  O339  1  0.00169341  0.01430016  0.10861944  1
  O  O340  1  0.00153291  0.00775982  0.61239590  1
  O  O341  1  0.00785680  0.50721497  0.11860827  1
  O  O342  1  0.01126359  0.50718299  0.61849497  1
  O  O343  1  0.51054157  0.00292967  0.11882706  1
  O  O344  1  0.50576898  0.00452888  0.62103304  1
  O  O345  1  0.50788519  0.50919697  0.12328120  1
  O  O346  1  0.50773253  0.50897392  0.61543851  1
  O  O347  1  0.24428530  0.38929237  0.25559370  1
  O  O348  1  0.24052975  0.38657769  0.75433345  1
  O  O349  1  0.24095460  0.88900352  0.23989006  1
  O  O350  1  0.23780968  0.88127628  0.75766683  1
  O  O351  1  0.74544827  0.38222557  0.24795257  1
  O  O352  1  0.73838549  0.37615367  0.75101710  1
  O  O353  1  0.74085342  0.88967278  0.25741171  1
  O  O354  1  0.74257753  0.87750789  0.74403385  1
  O  O355  1  0.25387576  0.11323437  0.24551130  1
  O  O356  1  0.25432031  0.11728348  0.75450315  1
  O  O357  1  0.25935602  0.62012833  0.25649429  1
  O  O358  1  0.24848049  0.60961811  0.76165566  1
  O  O359  1  0.75037718  0.11958416  0.25681467  1
  O  O360  1  0.75838859  0.12461232  0.75390147  1
  O  O361  1  0.75800749  0.61834724  0.25776812  1
  O  O362  1  0.75848484  0.62089051  0.76037237  1
  O  O363  1  0.38197495  0.11062764  0.37648260  1
  O  O364  1  0.37044684  0.11657949  0.86531389  1
  O  O365  1  0.36476577  0.62988490  0.36438833  1
  O  O366  1  0.36663189  0.61329369  0.87298497  1
  O  O367  1  0.86430116  0.11676363  0.36859832  1
  O  O368  1  0.86888134  0.12464586  0.86656020  1
  O  O369  1  0.86788700  0.62292758  0.36697135  1
  O  O370  1  0.87192666  0.61820642  0.86852975  1
  O  O371  1  0.11626193  0.38199220  0.13733246  1
  O  O372  1  0.12193420  0.38122861  0.63422388  1
  O  O373  1  0.12652916  0.88577377  0.12580111  1
  O  O374  1  0.11454627  0.87517502  0.63802680  1
  O  O375  1  0.63090717  0.38805801  0.13808555  1
  O  O376  1  0.61920659  0.39089653  0.63271606  1
  O  O377  1  0.61914133  0.88364077  0.13542729  1
  O  O378  1  0.62940310  0.88133302  0.63019003  1
  O  O379  1  0.12510357  0.25474132  0.25786767  1
  O  O380  1  0.12027223  0.25725912  0.75118088  1
  O  O381  1  0.12354546  0.75040964  0.26132114  1
  O  O382  1  0.12492377  0.75594632  0.76707088  1
  O  O383  1  0.61417808  0.26017715  0.24535846  1
  O  O384  1  0.61742472  0.25860096  0.74970511  1
  O  O385  1  0.63146189  0.76453601  0.25891907  1
  O  O386  1  0.62214363  0.76092970  0.74697899  1
  O  O387  1  0.38906411  0.24935702  0.24835851  1
  O  O388  1  0.38158278  0.24675493  0.74479408  1
  O  O389  1  0.36897180  0.74238626  0.25005714  1
  O  O390  1  0.37692493  0.74663781  0.74407555  1
  O  O391  1  0.88253684  0.23797828  0.25801052  1
  O  O392  1  0.88451972  0.23860705  0.75088403  1
  O  O393  1  0.87165168  0.74064269  0.24364357  1
  O  O394  1  0.87480417  0.73703720  0.74725572  1
  O  O395  1  0.38806676  0.48929691  0.50445985  1
  O  O396  1  0.38223485  0.50297467  0.99173609  1
  O  O397  1  0.37903250  0.99350544  0.49496323  1
  O  O398  1  0.38402142  1.01171941  0.98708335  1
  O  O399  1  0.88258593  0.48888316  0.49768001  1
  O  O400  1  0.88828017  0.50748269  0.99311151  1
  O  O401  1  0.87656946  0.99624065  0.49382285  1
  O  O402  1  0.88167589  0.99256792  0.99728659  1
  O  O403  1  0.11787593  0.00055777  0.00540305  1
  O  O404  1  0.11587854  0.00441352  0.49657938  1
  O  O405  1  0.11465367  0.50966125  0.00647427  1
  O  O406  1  0.11877553  0.48971607  0.50951282  1
  O  O407  1  0.61936171  0.00698025  0.00818551  1
  O  O408  1  0.62053050  0.00668326  0.51171199  1
  O  O409  1  0.61890731  0.50934598  0.01154704  1
  O  O410  1  0.61955049  0.49328736  0.51164449  1
  O  O411  1  0.37744672  0.38412931  0.12944265  1
  O  O412  1  0.38298062  0.36606395  0.61480313  1
  O  O413  1  0.36094560  0.87711824  0.12845577  1
  O  O414  1  0.37823041  0.87472452  0.61111695  1
  O  O415  1  0.86090185  0.38049754  0.12877164  1
  O  O416  1  0.87886357  0.37979854  0.60965023  1
  O  O417  1  0.87853603  0.86645362  0.11419764  1
  O  O418  1  0.86619225  0.87425538  0.61975720  1
  O  O419  1  0.11859277  0.13274975  0.38597729  1
  O  O420  1  0.12887288  0.12937651  0.87374138  1
  O  O421  1  0.13805950  0.63775834  0.36832041  1
  O  O422  1  0.12549380  0.63095852  0.88217920  1
  O  O423  1  0.63217921  0.11698359  0.38837884  1
  O  O424  1  0.63141536  0.12700198  0.88461866  1
  O  O425  1  0.63291299  0.63675201  0.36647316  1
  O  O426  1  0.64103910  0.61507030  0.87179592  1
