# generated using pymatgen
data_V85Zn86O256
_symmetry_space_group_name_H-M   'P 1'
_cell_length_a   16.97828878
_cell_length_b   16.97184092
_cell_length_c   16.97056602
_cell_angle_alpha   89.96479898
_cell_angle_beta   90.00983922
_cell_angle_gamma   89.92785165
_symmetry_Int_Tables_number   1
_chemical_formula_structural   V85Zn86O256
_chemical_formula_sum   'V85 Zn86 O256'
_cell_volume   4890.11151894
_cell_formula_units_Z   1
loop_
 _symmetry_equiv_pos_site_id
 _symmetry_equiv_pos_as_xyz
  1  'x, y, z'
loop_
 _atom_site_type_symbol
 _atom_site_label
 _atom_site_symmetry_multiplicity
 _atom_site_fract_x
 _atom_site_fract_y
 _atom_site_fract_z
 _atom_site_occupancy
  V  V0  1  -0.00784487  0.12909480  0.12501970  1
  V  V1  1  0.12402621  0.75115406  0.87287340  1
  V  V2  1  0.24684094  0.49573566  0.74620754  1
  V  V3  1  0.87751428  0.50317180  0.87542978  1
  V  V4  1  0.75152630  0.50521110  0.25451524  1
  V  V5  1  0.25807418  0.37852544  0.60768690  1
  V  V6  1  0.12179311  0.62635967  0.00600055  1
  V  V7  1  0.12396373  0.87341655  0.25081774  1
  V  V8  1  0.12528701  -0.00082904  0.62913206  1
  V  V9  1  0.87365093  0.01019141  0.37535915  1
  V  V10  1  0.37408666  -0.00575504  0.37648292  1
  V  V11  1  0.12514117  0.25086029  0.37870044  1
  V  V12  1  0.63052762  -0.00434385  0.62694372  1
  V  V13  1  0.75017852  0.87540318  0.12341194  1
  V  V14  1  0.37444686  0.85805951  0.50401807  1
  V  V15  1  0.86481910  0.24656620  0.62392686  1
  V  V16  1  0.87287155  0.87826236  -0.00430738  1
  V  V17  1  0.12545300  0.37145920  0.74908982  1
  V  V18  1  0.63937194  0.24581633  0.37748561  1
  V  V19  1  0.25087277  0.50153761  0.25390177  1
  V  V20  1  0.74588283  0.37235402  0.62061759  1
  V  V21  1  0.75007224  0.86996337  0.62771182  1
  V  V22  1  0.88013117  0.50378094  0.38133311  1
  V  V23  1  0.25334535  0.75113615  -0.00207576  1
  V  V24  1  0.12562944  0.37748393  0.25232222  1
  V  V25  1  0.25458221  0.62535464  0.38413668  1
  V  V26  1  0.49083242  0.37706561  0.37516239  1
  V  V27  1  0.75112961  0.00641985  0.25304438  1
  V  V28  1  0.50056665  0.87108856  0.37358011  1
  V  V29  1  0.37492232  0.63446071  0.73623309  1
  V  V30  1  0.24314395  0.12114645  0.37566070  1
  V  V31  1  0.10719900  0.50283156  0.62235946  1
  V  V32  1  0.24223603  0.25482752  -0.00861055  1
  V  V33  1  0.63440882  0.61767475  0.49374519  1
  V  V34  1  0.48880117  0.49679868  0.49454362  1
  V  V35  1  0.50199418  0.74442299  0.24319981  1
  V  V36  1  0.25036794  0.87461794  0.12434647  1
  V  V37  1  0.12412932  0.12880064  -0.00512680  1
  V  V38  1  0.00613291  0.37218807  0.87769738  1
  V  V39  1  0.37265754  0.12307706  0.25623251  1
  V  V40  1  -0.00123651  -0.00064400  -0.00583002  1
  V  V41  1  0.49252869  0.00794794  -0.01169367  1
  V  V42  1  -0.00193388  0.12518997  0.62804637  1
  V  V43  1  0.24475986  0.37627218  0.12599170  1
  V  V44  1  0.62693493  0.37191283  0.24764436  1
  V  V45  1  0.10915010  0.62386644  0.50331373  1
  V  V46  1  0.88359791  0.74024325  0.62282063  1
  V  V47  1  -0.00353062  0.87532862  0.87020603  1
  V  V48  1  -0.00217161  0.50533788  0.00655630  1
  V  V49  1  0.24685405  -0.00190655  0.25090191  1
  V  V50  1  0.00424049  0.24768964  0.75332202  1
  V  V51  1  0.25237836  0.62447026  0.87351969  1
  V  V52  1  0.50079585  0.24679423  0.25700373  1
  V  V53  1  0.62119185  0.49821301  0.62656624  1
  V  V54  1  0.61474421  0.50845373  0.12737439  1
  V  V55  1  0.26231696  0.00355690  0.75285478  1
  V  V56  1  0.64566244  0.12423289  0.49485951  1
  V  V57  1  0.49344736  0.86490035  0.86955862  1
  V  V58  1  0.37705156  0.62101089  0.25053954  1
  V  V59  1  0.50432869  0.00185862  0.50180123  1
  V  V60  1  0.12881063  0.74922787  0.38012153  1
  V  V61  1  0.62600681  0.87549312  0.24938210  1
  V  V62  1  0.74753756  0.49858007  0.74846328  1
  V  V63  1  0.49937594  0.12438089  0.13076580  1
  V  V64  1  0.87474790  0.87468170  0.49788329  1
  V  V65  1  0.00339133  0.74503889  0.24462167  1
  V  V66  1  0.75974554  0.24431369  0.00739215  1
  V  V67  1  -0.00555650  0.25286507  0.24775170  1
  V  V68  1  0.37938708  0.49623048  0.87288485  1
  V  V69  1  -0.00030715  -0.00088713  0.50063411  1
  V  V70  1  0.75014780  -0.00808498  0.76178348  1
  V  V71  1  0.87623262  0.12014776  0.76663073  1
  V  V72  1  0.69502322  0.18149827  0.82159146  1
  V  V73  1  0.63665387  0.74189168  0.37028319  1
  V  V74  1  0.87893389  0.74433682  0.12111532  1
  V  V75  1  0.37945713  0.74666490  0.12034077  1
  V  V76  1  0.26199438  0.12157018  0.87635986  1
  V  V77  1  0.25775104  0.86402583  0.62372398  1
  V  V78  1  0.76155524  0.37280539  0.12857090  1
  V  V79  1  0.88275208  0.37413079  0.50268978  1
  V  V80  1  0.12348292  0.12898903  0.50489354  1
  V  V81  1  0.37939259  0.38073728  0.00048076  1
  V  V82  1  0.12292816  0.00036942  0.12500798  1
  V  V83  1  0.62887335  0.13223151  0.00415655  1
  V  V84  1  0.87315870  0.62814597  0.25450691  1
  Zn  Zn85  1  0.56190177  0.32988366  0.82615196  1
  Zn  Zn86  1  0.74687994  0.74972809  -0.00655844  1
  Zn  Zn87  1  0.12617276  0.87364194  0.74734439  1
  Zn  Zn88  1  0.12035929  0.50831401  0.12886680  1
  Zn  Zn89  1  0.00001344  0.87526249  0.37286149  1
  Zn  Zn90  1  0.75383982  0.74335778  0.49498832  1
  Zn  Zn91  1  0.41180055  0.17686727  0.68538127  1
  Zn  Zn92  1  0.00355882  0.74277226  0.74422751  1
  Zn  Zn93  1  0.37162276  0.88496739  -0.00287849  1
  Zn  Zn94  1  0.88090025  0.61973667  0.74572792  1
  Zn  Zn95  1  0.62358377  0.00087728  0.12627371  1
  Zn  Zn96  1  0.00363119  0.38052985  0.38252068  1
  Zn  Zn97  1  0.55339435  0.51335704  -0.05878481  1
  Zn  Zn98  1  0.63497110  0.76895457  0.86320948  1
  Zn  Zn99  1  0.36830306  0.25361432  0.13427531  1
  Zn  Zn100  1  0.74277932  0.62314666  0.88162728  1
  Zn  Zn101  1  0.29241163  0.22074515  0.53484447  1
  Zn  Zn102  1  0.49638399  0.63549186  0.61366965  1
  Zn  Zn103  1  0.86936508  0.13338304  0.25020781  1
  Zn  Zn104  1  0.88115657  0.37082775  0.00556526  1
  Zn  Zn105  1  0.61535704  0.64318054  0.00457080  1
  Zn  Zn106  1  0.50749571  0.77566442  0.72337188  1
  Zn  Zn107  1  0.18233513  0.18975705  0.18637857  1
  Zn  Zn108  1  0.23357478  0.22079848  0.72221490  1
  Zn  Zn109  1  0.19217452  0.68823396  0.18793543  1
  Zn  Zn110  1  0.18495456  0.68471549  0.68698116  1
  Zn  Zn111  1  0.68795686  0.18964878  0.18478721  1
  Zn  Zn112  1  0.57606504  0.17708094  0.67439394  1
  Zn  Zn113  1  0.69224751  0.68740638  0.18407369  1
  Zn  Zn114  1  0.68964453  0.68528970  0.68403534  1
  Zn  Zn115  1  0.33713583  0.28560119  0.36134692  1
  Zn  Zn116  1  0.40280619  0.30353335  0.80844912  1
  Zn  Zn117  1  0.31290060  0.80793525  0.31226041  1
  Zn  Zn118  1  0.31738969  0.81811640  0.81169983  1
  Zn  Zn119  1  0.81565948  0.31835431  0.31616147  1
  Zn  Zn120  1  0.82026103  0.31978419  0.80748517  1
  Zn  Zn121  1  0.81596273  0.81887242  0.31022012  1
  Zn  Zn122  1  0.81513223  0.80797223  0.80958137  1
  Zn  Zn123  1  0.18365074  0.44562578  0.43563207  1
  Zn  Zn124  1  0.18625422  0.44099873  0.93617194  1
  Zn  Zn125  1  0.18703186  0.93365973  0.44269019  1
  Zn  Zn126  1  0.18652353  0.93830698  0.93539673  1
  Zn  Zn127  1  0.69114133  0.43387681  0.43689481  1
  Zn  Zn128  1  0.70220258  0.43318903  0.93739548  1
  Zn  Zn129  1  0.69106368  0.93388464  0.43541822  1
  Zn  Zn130  1  0.67626108  0.93953968  0.94016557  1
  Zn  Zn131  1  0.31115819  0.06693332  0.06690234  1
  Zn  Zn132  1  0.31339313  0.04640769  0.56210978  1
  Zn  Zn133  1  0.31361254  0.56272164  0.06467577  1
  Zn  Zn134  1  0.30643486  0.55705556  0.56137692  1
  Zn  Zn135  1  0.81321893  0.05897972  0.06213712  1
  Zn  Zn136  1  0.81341157  0.06063035  0.56887145  1
  Zn  Zn137  1  0.80626388  0.56373959  0.06305351  1
  Zn  Zn138  1  0.81061584  0.55895609  0.55987678  1
  Zn  Zn139  1  0.43452395  0.43343430  0.19202841  1
  Zn  Zn140  1  0.43994186  0.43857861  0.68861920  1
  Zn  Zn141  1  0.43666418  0.93626676  0.18562880  1
  Zn  Zn142  1  0.47295873  0.99167804  0.71758304  1
  Zn  Zn143  1  0.93975830  0.44200432  0.19044384  1
  Zn  Zn144  1  0.93529458  0.43449404  0.68984885  1
  Zn  Zn145  1  0.93698263  0.93665705  0.18638060  1
  Zn  Zn146  1  0.93339588  0.93551491  0.68880883  1
  Zn  Zn147  1  0.05720048  0.06340927  0.31259537  1
  Zn  Zn148  1  0.06791673  0.06226916  0.81298809  1
  Zn  Zn149  1  0.06083855  0.56595177  0.31424002  1
  Zn  Zn150  1  0.06072760  0.56338765  0.81314615  1
  Zn  Zn151  1  0.56554963  0.06102519  0.31907991  1
  Zn  Zn152  1  0.51489076  0.12849863  0.83832692  1
  Zn  Zn153  1  0.56180724  0.56113170  0.31089630  1
  Zn  Zn154  1  0.57693825  0.60771208  0.78997896  1
  Zn  Zn155  1  0.44852323  0.19309185  0.51432939  1
  Zn  Zn156  1  0.43128448  0.19861632  0.95527071  1
  Zn  Zn157  1  0.44448559  0.68201888  0.43228201  1
  Zn  Zn158  1  0.44194983  0.67881828  0.94056590  1
  Zn  Zn159  1  0.93805250  0.19137298  0.43901713  1
  Zn  Zn160  1  0.94109469  0.18973092  0.93705745  1
  Zn  Zn161  1  0.93823547  0.69097425  0.43212818  1
  Zn  Zn162  1  0.93635629  0.68740243  0.93413971  1
  Zn  Zn163  1  0.06213755  0.31361734  0.06510251  1
  Zn  Zn164  1  0.06268783  0.31186183  0.56806026  1
  Zn  Zn165  1  0.06216881  0.81259692  0.06082258  1
  Zn  Zn166  1  0.06557635  0.81315323  0.55988917  1
  Zn  Zn167  1  0.58796836  0.34287747  0.02337026  1
  Zn  Zn168  1  0.56182267  0.31572730  0.56194403  1
  Zn  Zn169  1  0.56215738  0.81947673  0.05651032  1
  Zn  Zn170  1  0.56728506  0.80982843  0.55522005  1
  O  O171  1  0.11523923  0.11812031  0.11764104  1
  O  O172  1  0.11601437  0.11526914  0.61628499  1
  O  O173  1  0.13122354  0.62901706  0.10974179  1
  O  O174  1  0.12814720  0.62044982  0.61019311  1
  O  O175  1  0.61572759  0.12383268  0.12089977  1
  O  O176  1  0.63483492  0.10897041  0.60424595  1
  O  O177  1  0.62672905  0.61177738  0.12801526  1
  O  O178  1  0.62316337  0.61543249  0.61056896  1
  O  O179  1  0.39366512  0.38525414  0.35375420  1
  O  O180  1  0.36730672  0.38106333  0.89256213  1
  O  O181  1  0.38127967  0.87622623  0.37761502  1
  O  O182  1  0.38671140  0.87979663  0.88117090  1
  O  O183  1  0.87937718  0.38326669  0.38537307  1
  O  O184  1  0.88887265  0.38511849  0.87702487  1
  O  O185  1  0.87911196  0.88294127  0.38306185  1
  O  O186  1  0.88751686  0.86855012  0.88255013  1
  O  O187  1  0.25062875  0.00163755  0.36986296  1
  O  O188  1  0.24723664  0.00270837  0.86164969  1
  O  O189  1  0.24539648  0.50967265  0.36111198  1
  O  O190  1  0.25067346  0.50836233  0.86506531  1
  O  O191  1  0.76126220  -0.00744328  0.36409211  1
  O  O192  1  0.74421304  -0.01392953  0.86081014  1
  O  O193  1  0.76175319  0.49225544  0.36101790  1
  O  O194  1  0.76220543  0.49364606  0.86491045  1
  O  O195  1  0.24448731  0.49639625  0.13628510  1
  O  O196  1  0.23658634  0.49398644  0.62936875  1
  O  O197  1  0.24361456  0.99486615  0.13160201  1
  O  O198  1  0.24163379  0.99378085  0.63463489  1
  O  O199  1  0.74633505  0.49216135  0.13879050  1
  O  O200  1  0.74392828  0.49203999  0.62884800  1
  O  O201  1  0.75049908  0.98842175  0.13147773  1
  O  O202  1  0.74894896  0.98734907  0.62860824  1
  O  O203  1  0.01146101  0.37067864  0.24913539  1
  O  O204  1  0.00635992  0.36893084  0.75725428  1
  O  O205  1  0.00681606  0.86501361  0.24996770  1
  O  O206  1  0.00191643  0.87214387  0.75864026  1
  O  O207  1  0.50980892  0.36521950  0.25076313  1
  O  O208  1  0.48506196  0.35922463  0.75104230  1
  O  O209  1  0.50368088  0.86866442  0.25779494  1
  O  O210  1  0.49030175  0.88428209  0.76533381  1
  O  O211  1  0.49263760  0.12661334  0.25234974  1
  O  O212  1  0.49669387  0.10715137  0.72950712  1
  O  O213  1  0.49075098  0.63356999  0.25364040  1
  O  O214  1  0.47793243  0.61543935  0.73488812  1
  O  O215  1  1.00021232  0.13438430  0.24095458  1
  O  O216  1  0.99543833  0.12726666  0.74803313  1
  O  O217  1  0.99381576  0.63805707  0.25006364  1
  O  O218  1  0.99406177  0.63030925  0.75671615  1
  O  O219  1  0.35916108  0.26540788  0.01142765  1
  O  O220  1  0.37148320  0.25677843  0.46440368  1
  O  O221  1  0.37161954  0.74981744  0.00670785  1
  O  O222  1  0.37976123  0.75999495  0.48833408  1
  O  O223  1  0.86373715  0.24907106  -0.00415699  1
  O  O224  1  0.87880792  0.25705692  0.51166878  1
  O  O225  1  0.87648894  0.76104909  0.00703572  1
  O  O226  1  0.87504160  0.75672833  0.50434765  1
  O  O227  1  0.11659405  0.24022752  0.49278278  1
  O  O228  1  0.12991500  0.24004205  1.00780219  1
  O  O229  1  0.12291061  0.73870035  0.49153091  1
  O  O230  1  0.13018440  0.74585524  0.98998968  1
  O  O231  1  0.62592501  0.23210840  0.49212964  1
  O  O232  1  0.63813922  0.23917032  1.00469752  1
  O  O233  1  0.62919002  0.73850140  0.48518973  1
  O  O234  1  0.62691626  0.75745467  0.98938127  1
  O  O235  1  0.49360090  0.23521977  0.14390816  1
  O  O236  1  0.50053819  0.23661535  0.61191777  1
  O  O237  1  0.49389356  0.75952963  0.13484468  1
  O  O238  1  0.49803103  0.74934901  0.61601986  1
  O  O239  1  1.00438740  0.24125780  0.13415034  1
  O  O240  1  0.99352287  0.24306682  0.63540626  1
  O  O241  1  0.99115173  0.75595587  0.13193941  1
  O  O242  1  0.98646194  0.75651798  0.62273566  1
  O  O243  1  0.01098157  0.25236741  0.36768522  1
  O  O244  1  -0.00058600  0.26060786  0.86803472  1
  O  O245  1  0.01222576  0.75257291  0.36516898  1
  O  O246  1  0.00916160  0.75895306  0.87672747  1
  O  O247  1  0.51515172  0.25994561  0.36367494  1
  O  O248  1  0.48995695  0.23772890  0.86797678  1
  O  O249  1  0.50913422  0.75495022  0.36167006  1
  O  O250  1  0.49442597  0.76259057  0.87294088  1
  O  O251  1  0.23362893  0.11961192  0.49437582  1
  O  O252  1  0.24092992  0.13035581  1.00041394  1
  O  O253  1  0.24383870  0.61889309  0.48608887  1
  O  O254  1  0.24558004  0.63091613  0.99126304  1
  O  O255  1  0.74412151  0.11662423  0.49397463  1
  O  O256  1  0.74203021  0.12981341  1.00808012  1
  O  O257  1  0.73889662  0.62370742  0.49590093  1
  O  O258  1  0.74141135  0.63170381  1.00239384  1
  O  O259  1  0.24721941  0.37124063  0.00813164  1
  O  O260  1  0.24718619  0.38551868  0.50757620  1
  O  O261  1  0.25137671  0.86991009  0.00515494  1
  O  O262  1  0.25996427  0.87861223  0.51285013  1
  O  O263  1  0.75740547  0.36384087  0.01139695  1
  O  O264  1  0.76248029  0.37830082  0.51327205  1
  O  O265  1  0.75709195  0.87831376  0.00594816  1
  O  O266  1  0.76384487  0.87141958  0.50342356  1
  O  O267  1  0.12851585  0.49535884  0.24956842  1
  O  O268  1  0.12833873  0.49609393  0.74243353  1
  O  O269  1  0.12620334  0.99365475  0.24534133  1
  O  O270  1  0.12773655  0.99628106  0.73781887  1
  O  O271  1  0.63376745  0.49312215  0.24548719  1
  O  O272  1  0.63127113  0.50811953  0.73236406  1
  O  O273  1  0.63368997  0.99286393  0.25158085  1
  O  O274  1  0.63727303  1.00161744  0.72895562  1
  O  O275  1  0.36776307  0.00297797  0.25536427  1
  O  O276  1  0.35965957  0.00733831  0.74138615  1
  O  O277  1  0.36654445  0.51350073  0.24183714  1
  O  O278  1  0.36060041  0.50653536  0.75377966  1
  O  O279  1  0.87005005  -0.00015460  0.25876239  1
  O  O280  1  0.86238802  0.01048269  0.74237183  1
  O  O281  1  0.87055434  0.51090353  0.25374779  1
  O  O282  1  0.86935997  0.49882233  0.75819352  1
  O  O283  1  0.12338270  0.36922010  0.36954920  1
  O  O284  1  0.11345760  0.38465463  0.86522240  1
  O  O285  1  0.12503384  0.86573717  0.37133221  1
  O  O286  1  0.11624122  0.86677174  0.87454752  1
  O  O287  1  0.62370385  0.36988542  0.36241729  1
  O  O288  1  0.60271370  0.38750661  0.91216494  1
  O  O289  1  0.61812104  0.86637694  0.36852296  1
  O  O290  1  0.59981754  0.88186067  0.87705396  1
  O  O291  1  0.37832535  0.12800775  0.14154447  1
  O  O292  1  0.36561267  0.14109054  0.58771540  1
  O  O293  1  0.36803346  0.63952618  0.13334433  1
  O  O294  1  0.36436111  0.62407071  0.63451597  1
  O  O295  1  0.88935836  0.11895390  0.12704453  1
  O  O296  1  0.87983681  0.13123264  0.63219705  1
  O  O297  1  0.87018876  0.63956183  0.13422361  1
  O  O298  1  0.87257362  0.63858530  0.61726123  1
  O  O299  1  0.24752275  0.26070535  0.12210110  1
  O  O300  1  0.23639806  0.27330239  0.61820197  1
  O  O301  1  0.25780776  0.75645116  0.11892820  1
  O  O302  1  0.24420389  0.76637140  0.63159851  1
  O  O303  1  0.75189053  0.25840100  0.11897072  1
  O  O304  1  0.76402271  0.25860008  0.63231753  1
  O  O305  1  0.75898632  0.76343378  0.12567859  1
  O  O306  1  0.75984873  0.75479153  0.62000016  1
  O  O307  1  0.23132305  0.23814955  0.36727657  1
  O  O308  1  0.24338291  0.23857722  0.89179755  1
  O  O309  1  0.23615158  0.74019911  0.36623063  1
  O  O310  1  0.24501969  0.74562028  0.87816042  1
  O  O311  1  0.73850137  0.25370951  0.36878418  1
  O  O312  1  0.75043901  0.24936509  0.87603180  1
  O  O313  1  0.73929210  0.75624891  0.37043897  1
  O  O314  1  0.74798693  0.74437686  0.87298812  1
  O  O315  1  0.00480508  0.11862932  0.00488318  1
  O  O316  1  0.00649989  0.11844555  0.50512422  1
  O  O317  1  0.01011502  0.61800223  -0.00696601  1
  O  O318  1  0.01099624  0.62708955  0.49544128  1
  O  O319  1  0.50383196  0.12403601  0.01308683  1
  O  O320  1  0.51460625  0.10355217  0.48921456  1
  O  O321  1  0.50568537  0.60688458  -0.00539819  1
  O  O322  1  0.51086377  0.61109813  0.49482518  1
  O  O323  1  0.50468717  0.38768844  0.48878265  1
  O  O324  1  0.47620852  0.37295090  1.01921199  1
  O  O325  1  0.49738134  0.87804419  0.48532633  1
  O  O326  1  0.49631617  0.89476788  0.99081677  1
  O  O327  1  0.98799185  0.37280520  0.50230956  1
  O  O328  1  1.00096438  0.38125315  0.99377088  1
  O  O329  1  0.99048795  0.88131414  0.49920131  1
  O  O330  1  0.99443299  0.88239386  0.99396743  1
  O  O331  1  0.50894372  0.49137915  0.38613087  1
  O  O332  1  0.47778235  0.49792450  0.85750541  1
  O  O333  1  0.49581477  0.98748720  0.37797894  1
  O  O334  1  0.49529208  1.01876318  0.88924076  1
  O  O335  1  0.98486729  0.49797601  0.36699897  1
  O  O336  1  0.99551821  0.49383656  0.88622533  1
  O  O337  1  0.99298864  0.99679674  0.38216036  1
  O  O338  1  1.00746354  0.99177907  0.88702193  1
  O  O339  1  0.00448767  0.00436601  0.11524176  1
  O  O340  1  0.00517767  0.00319141  0.62104374  1
  O  O341  1  0.00160711  0.49822355  0.11120132  1
  O  O342  1  0.00826637  0.49843550  0.62928423  1
  O  O343  1  0.50102793  0.01303362  0.12706733  1
  O  O344  1  0.51799876  -0.01773223  0.61081734  1
  O  O345  1  0.51753674  0.49483831  0.13967653  1
  O  O346  1  0.50686259  0.49850254  0.61006344  1
  O  O347  1  0.23656826  0.38388059  0.24453911  1
  O  O348  1  0.23906850  0.38901531  0.74282549  1
  O  O349  1  0.24326969  0.87833747  0.24520489  1
  O  O350  1  0.25022389  0.88624832  0.74191895  1
  O  O351  1  0.74605864  0.38047930  0.24512355  1
  O  O352  1  0.75618265  0.38716799  0.73639741  1
  O  O353  1  0.74707700  0.88364269  0.24150086  1
  O  O354  1  0.75768658  0.87984508  0.73789296  1
  O  O355  1  0.25257953  0.11795780  0.25271780  1
  O  O356  1  0.23599891  0.10997418  0.76422652  1
  O  O357  1  0.25556314  0.61918115  0.25657561  1
  O  O358  1  0.25441396  0.61823022  0.75465266  1
  O  O359  1  0.75287582  0.11074635  0.23995965  1
  O  O360  1  0.75504134  0.11895779  0.76337846  1
  O  O361  1  0.76038151  0.61758152  0.24745179  1
  O  O362  1  0.75800591  0.60853416  0.74730595  1
  O  O363  1  0.36288374  0.11208019  0.36435749  1
  O  O364  1  0.36005129  0.12420536  0.89264820  1
  O  O365  1  0.36544097  0.63265037  0.36310489  1
  O  O366  1  0.36304376  0.61840258  0.86757483  1
  O  O367  1  0.88118950  0.11358615  0.37298927  1
  O  O368  1  0.88301806  0.12125273  0.86563684  1
  O  O369  1  0.87707022  0.62106902  0.36331916  1
  O  O370  1  0.87123486  0.61089766  0.87728042  1
  O  O371  1  0.13212462  0.37976719  0.13253104  1
  O  O372  1  0.12580880  0.38641878  0.63154383  1
  O  O373  1  0.13048141  0.87987751  0.12970941  1
  O  O374  1  0.13446845  0.88313052  0.62277249  1
  O  O375  1  0.63625871  0.37707952  0.13678092  1
  O  O376  1  0.63552088  0.38310072  0.61800303  1
  O  O377  1  0.63342649  0.87852958  0.13069456  1
  O  O378  1  0.64387625  0.87894515  0.61038890  1
  O  O379  1  0.11597613  0.25872440  0.25629240  1
  O  O380  1  0.12558182  0.26634251  0.74762426  1
  O  O381  1  0.11917886  0.75269672  0.25359278  1
  O  O382  1  0.12540130  0.75166099  0.76202448  1
  O  O383  1  0.62046460  0.25425574  0.25427325  1
  O  O384  1  0.63332073  0.23633625  0.76110093  1
  O  O385  1  0.61933281  0.75343506  0.25083799  1
  O  O386  1  0.60931394  0.72231249  0.75764578  1
  O  O387  1  0.38263731  0.23829164  0.25981039  1
  O  O388  1  0.34173154  0.23005511  0.75377741  1
  O  O389  1  0.38331838  0.74310817  0.24273432  1
  O  O390  1  0.37513360  0.73497140  0.75314109  1
  O  O391  1  0.89014175  0.25119964  0.25816215  1
  O  O392  1  0.88229788  0.24012209  0.74537492  1
  O  O393  1  0.88272705  0.74625005  0.24532759  1
  O  O394  1  0.87750661  0.74786315  0.73113511  1
  O  O395  1  0.39069796  0.50682500  0.49854097  1
  O  O396  1  0.36244160  0.48899869  0.99097165  1
  O  O397  1  0.38685726  0.98640419  0.49290782  1
  O  O398  1  0.39008305  1.00383625  1.01277491  1
  O  O399  1  0.87186176  0.49247662  0.49057730  1
  O  O400  1  0.88133678  0.49819384  0.99536349  1
  O  O401  1  0.87922665  0.99416010  0.49456499  1
  O  O402  1  0.88391933  0.98656401  1.00404117  1
  O  O403  1  0.11760090  0.00452723  0.00707327  1
  O  O404  1  0.11922282  0.00423900  0.50947856  1
  O  O405  1  0.11783323  0.51082148  0.00101540  1
  O  O406  1  0.12174404  0.51419954  0.50615380  1
  O  O407  1  0.61223011  0.01505397  0.00453644  1
  O  O408  1  0.62458268  0.00394902  0.49870649  1
  O  O409  1  0.63113092  0.48471826  0.02589777  1
  O  O410  1  0.62361536  0.50332574  0.50449030  1
  O  O411  1  0.35803574  0.37826937  0.12266903  1
  O  O412  1  0.35562074  0.38605453  0.62316793  1
  O  O413  1  0.36892001  0.86386652  0.12367496  1
  O  O414  1  0.36102488  0.87536213  0.61687435  1
  O  O415  1  0.86537928  0.37949950  0.12787645  1
  O  O416  1  0.87106574  0.36762946  0.61995794  1
  O  O417  1  0.86930764  0.86722701  0.11812797  1
  O  O418  1  0.86863790  0.86682266  0.61566955  1
  O  O419  1  0.12367787  0.12989806  0.38291192  1
  O  O420  1  0.13121671  0.11778924  0.89170760  1
  O  O421  1  0.12966264  0.63005962  0.38461290  1
  O  O422  1  0.13599207  0.63176073  0.88213376  1
  O  O423  1  0.62827817  0.13123372  0.38372585  1
  O  O424  1  0.63083184  0.12818857  0.88271560  1
  O  O425  1  0.62318704  0.63223478  0.37754506  1
  O  O426  1  0.62801174  0.59427872  0.88727777  1
