# generated using pymatgen
data_V85Zn86O256
_symmetry_space_group_name_H-M   'P 1'
_cell_length_a   16.93036378
_cell_length_b   16.94814380
_cell_length_c   16.95103038
_cell_angle_alpha   89.93446408
_cell_angle_beta   89.94288953
_cell_angle_gamma   89.93738341
_symmetry_Int_Tables_number   1
_chemical_formula_structural   V85Zn86O256
_chemical_formula_sum   'V85 Zn86 O256'
_cell_volume   4863.89032231
_cell_formula_units_Z   1
loop_
 _symmetry_equiv_pos_site_id
 _symmetry_equiv_pos_as_xyz
  1  'x, y, z'
loop_
 _atom_site_type_symbol
 _atom_site_label
 _atom_site_symmetry_multiplicity
 _atom_site_fract_x
 _atom_site_fract_y
 _atom_site_fract_z
 _atom_site_occupancy
  V  V0  1  0.62338970  0.75043277  0.87393725  1
  V  V1  1  -0.00570637  0.37900189  0.37584217  1
  V  V2  1  0.25534049  0.36847430  0.62307549  1
  V  V3  1  -0.00240096  0.50401594  0.49839225  1
  V  V4  1  0.62386594  0.87072978  0.74729916  1
  V  V5  1  0.50877571  0.75455131  0.24528755  1
  V  V6  1  0.12254236  0.23991613  0.88172013  1
  V  V7  1  0.49961385  0.25558504  0.25571657  1
  V  V8  1  0.30834556  0.81906636  0.67575415  1
  V  V9  1  0.74341012  0.37398873  0.62889544  1
  V  V10  1  0.12455118  0.37510988  0.75207588  1
  V  V11  1  0.87378839  0.49790234  0.87261516  1
  V  V12  1  0.37457764  0.37503554  0.00050301  1
  V  V13  1  0.63757077  0.49282370  0.12020657  1
  V  V14  1  0.62708621  -0.00854494  0.12541685  1
  V  V15  1  0.00076936  0.74523141  0.74636829  1
  V  V16  1  0.87482268  0.00055945  0.37537823  1
  V  V17  1  0.37718656  0.87251900  0.00622851  1
  V  V18  1  0.74653643  0.74230942  0.50019540  1
  V  V19  1  0.49720644  0.62922592  0.12202357  1
  V  V20  1  0.51019399  0.88111579  0.36942124  1
  V  V21  1  0.87328263  0.12538740  0.24797785  1
  V  V22  1  0.75054731  0.87544416  0.62315526  1
  V  V23  1  0.26206918  0.00658181  0.25351463  1
  V  V24  1  0.12250652  0.49962129  0.12709281  1
  V  V25  1  0.87945176  0.74677973  0.62234473  1
  V  V26  1  0.75745037  0.49473594  0.26118227  1
  V  V27  1  0.50305190  0.37512820  0.86933951  1
  V  V28  1  0.12644152  0.23803627  0.38500205  1
  V  V29  1  0.87635192  0.25113818  0.62454375  1
  V  V30  1  0.37678659  0.63248899  0.24843229  1
  V  V31  1  0.87304284  0.12341286  0.75548254  1
  V  V32  1  0.00433399  0.12642982  0.11635627  1
  V  V33  1  -0.00716084  0.62908216  0.12563212  1
  V  V34  1  0.12014663  0.62770814  0.50437833  1
  V  V35  1  0.47954667  0.24548919  0.74937823  1
  V  V36  1  0.13012616  0.62180021  -0.00255230  1
  V  V37  1  0.87684554  0.62485653  0.74783024  1
  V  V38  1  0.25451409  0.50093229  0.25115930  1
  V  V39  1  0.76434804  0.75567860  0.00127575  1
  V  V40  1  0.49690954  0.00375266  0.49478791  1
  V  V41  1  0.00072662  -0.00731562  0.00132376  1
  V  V42  1  -0.00093583  0.24732839  0.75144841  1
  V  V43  1  0.76668499  0.87141019  0.12421117  1
  V  V44  1  0.74623488  0.25691443  -0.00105295  1
  V  V45  1  0.75022182  0.00232613  0.75472843  1
  V  V46  1  0.12525509  0.37424903  0.25633643  1
  V  V47  1  0.25334653  0.62883103  0.37772506  1
  V  V48  1  0.24620859  0.24390187  0.00438718  1
  V  V49  1  -0.00814102  0.75403604  0.24745213  1
  V  V50  1  0.49271894  0.64231464  0.61940975  1
  V  V51  1  0.00329693  0.00245482  0.49868234  1
  V  V52  1  0.48726587  0.12461838  0.62887492  1
  V  V53  1  0.12705776  0.74541553  0.87681179  1
  V  V54  1  0.13321825  -0.00071542  0.62010587  1
  V  V55  1  0.63226909  0.12486864  -0.00397567  1
  V  V56  1  0.87502998  -0.00541401  0.87970812  1
  V  V57  1  0.25410514  0.74660350  0.00753658  1
  V  V58  1  0.12317762  0.75348027  0.37364539  1
  V  V59  1  0.62783913  0.74415195  0.37543231  1
  V  V60  1  0.25862841  0.12598659  0.87526354  1
  V  V61  1  0.50039492  0.12454938  0.13070718  1
  V  V62  1  0.12385523  0.87478321  0.74742737  1
  V  V63  1  0.13079954  0.00142376  0.12088484  1
  V  V64  1  0.62141197  0.26021157  0.37852397  1
  V  V65  1  0.11880953  0.50274597  0.62527158  1
  V  V66  1  0.62591715  0.62814162  -0.00037761  1
  V  V67  1  0.50237391  0.87609297  0.87142292  1
  V  V68  1  0.73729878  0.49656806  0.75023494  1
  V  V69  1  0.49912662  0.49999333  -0.00019904  1
  V  V70  1  0.37599447  0.24651969  0.13066665  1
  V  V71  1  0.74128175  -0.00416000  0.25075635  1
  V  V72  1  -0.00279076  0.37266779  0.87878414  1
  V  V73  1  0.75204629  0.25344216  0.50039508  1
  V  V74  1  0.62840579  0.24630915  0.86323417  1
  V  V75  1  0.74955578  0.62669582  0.87337540  1
  V  V76  1  0.61626759  0.50652458  0.61075939  1
  V  V77  1  0.00528508  0.12416697  0.62284465  1
  V  V78  1  0.37180396  0.87111592  0.48408962  1
  V  V79  1  0.25634334  0.00567754  0.74962641  1
  V  V80  1  0.25484993  0.50534561  0.75520518  1
  V  V81  1  0.50137120  0.00185909  -0.00132848  1
  V  V82  1  0.74338731  0.12611169  0.37680077  1
  V  V83  1  -0.00090991  0.24937771  0.24855894  1
  V  V84  1  0.86667609  0.25475054  0.12441702  1
  Zn  Zn85  1  0.38139957  0.63821187  0.74975999  1
  Zn  Zn86  1  0.37821473  0.00446364  0.87293570  1
  Zn  Zn87  1  0.86810997  0.37882502  0.00364823  1
  Zn  Zn88  1  0.26488303  0.12205417  0.38117353  1
  Zn  Zn89  1  0.40335654  0.49955358  0.38383145  1
  Zn  Zn90  1  0.87363216  0.38254369  0.49834193  1
  Zn  Zn91  1  0.62251519  0.12560532  0.50496159  1
  Zn  Zn92  1  0.39689471  0.37275661  0.49564411  1
  Zn  Zn93  1  0.87523218  0.87556573  0.49865296  1
  Zn  Zn94  1  0.37028449  0.51201850  0.87809426  1
  Zn  Zn95  1  0.00155073  0.87735699  0.37378764  1
  Zn  Zn96  1  0.87344457  0.62360164  0.25570335  1
  Zn  Zn97  1  0.25338413  0.87320909  0.12723229  1
  Zn  Zn98  1  0.12942975  0.87575496  0.24767161  1
  Zn  Zn99  1  0.25674048  0.23032526  0.51823447  1
  Zn  Zn100  1  0.24994243  0.37382117  0.12627518  1
  Zn  Zn101  1  0.62730917  0.37508558  0.24702661  1
  Zn  Zn102  1  -0.00270102  0.87157383  0.87938105  1
  Zn  Zn103  1  -0.00113779  0.50013335  0.00033542  1
  Zn  Zn104  1  0.25194258  0.75318438  0.50332377  1
  Zn  Zn105  1  0.62550707  0.00347678  0.62422547  1
  Zn  Zn106  1  0.75466288  0.61544847  0.38215381  1
  Zn  Zn107  1  0.18646938  0.18471765  0.18974694  1
  Zn  Zn108  1  0.18546558  0.18510942  0.69272018  1
  Zn  Zn109  1  0.18301289  0.68751768  0.18796101  1
  Zn  Zn110  1  0.18291554  0.68079721  0.68966941  1
  Zn  Zn111  1  0.68415854  0.18479638  0.18859192  1
  Zn  Zn112  1  0.68542766  0.18306988  0.68506045  1
  Zn  Zn113  1  0.68955916  0.68573851  0.18704436  1
  Zn  Zn114  1  0.68367177  0.68483662  0.68497305  1
  Zn  Zn115  1  0.31338967  0.30834821  0.31695410  1
  Zn  Zn116  1  0.30962367  0.31762972  0.81664132  1
  Zn  Zn117  1  0.31436554  0.81372134  0.30784290  1
  Zn  Zn118  1  0.31186299  0.81090685  0.83951606  1
  Zn  Zn119  1  0.80918950  0.31819178  0.31139131  1
  Zn  Zn120  1  0.80876784  0.31097487  0.81310896  1
  Zn  Zn121  1  0.81189695  0.81388735  0.31145926  1
  Zn  Zn122  1  0.81263844  0.81417215  0.81194640  1
  Zn  Zn123  1  0.25874331  0.43937673  0.43951706  1
  Zn  Zn124  1  0.18709943  0.43334803  0.93813893  1
  Zn  Zn125  1  0.18948881  0.94147039  0.43549098  1
  Zn  Zn126  1  0.18623694  0.93739167  0.93833214  1
  Zn  Zn127  1  0.56898674  0.44049693  0.43728796  1
  Zn  Zn128  1  0.68356535  0.43494658  0.93472680  1
  Zn  Zn129  1  0.68339669  0.93677845  0.43852750  1
  Zn  Zn130  1  0.69157294  0.93704408  0.93864660  1
  Zn  Zn131  1  0.31470293  0.06315163  0.06202937  1
  Zn  Zn132  1  0.31419503  0.05947526  0.55454645  1
  Zn  Zn133  1  0.31297064  0.56295784  0.06527053  1
  Zn  Zn134  1  0.31686440  0.56393106  0.56706801  1
  Zn  Zn135  1  0.81309883  0.06512226  0.06119679  1
  Zn  Zn136  1  0.81515950  0.06413804  0.56461302  1
  Zn  Zn137  1  0.81461435  0.56683384  0.05799403  1
  Zn  Zn138  1  0.81180652  0.56221383  0.56508002  1
  Zn  Zn139  1  0.44009820  0.44017109  0.18900056  1
  Zn  Zn140  1  0.43922091  0.43449017  0.68537646  1
  Zn  Zn141  1  0.43994814  0.93353006  0.18388749  1
  Zn  Zn142  1  0.44216293  0.94255694  0.68771614  1
  Zn  Zn143  1  0.93672657  0.43697841  0.18674057  1
  Zn  Zn144  1  0.93500786  0.43636260  0.68729674  1
  Zn  Zn145  1  0.93974448  0.93927239  0.18991474  1
  Zn  Zn146  1  0.93927730  0.93490093  0.68739102  1
  Zn  Zn147  1  0.06329616  0.06029385  0.30362153  1
  Zn  Zn148  1  0.06474768  0.06051295  0.81382348  1
  Zn  Zn149  1  0.06192633  0.56561194  0.31485122  1
  Zn  Zn150  1  0.06240152  0.56215063  0.81347791  1
  Zn  Zn151  1  0.44067643  0.06517111  0.31151752  1
  Zn  Zn152  1  0.56403068  0.06433047  0.80998065  1
  Zn  Zn153  1  0.57362725  0.56928786  0.30292987  1
  Zn  Zn154  1  0.55423120  0.56589645  0.80829871  1
  Zn  Zn155  1  0.43201549  0.19669338  0.44562884  1
  Zn  Zn156  1  0.44007310  0.18897895  0.94153512  1
  Zn  Zn157  1  0.44238030  0.68714684  0.43906981  1
  Zn  Zn158  1  0.43721832  0.68755243  0.93183722  1
  Zn  Zn159  1  0.93848736  0.18644226  0.43703816  1
  Zn  Zn160  1  0.93240564  0.18268060  0.93995610  1
  Zn  Zn161  1  0.93497145  0.68674800  0.43385113  1
  Zn  Zn162  1  0.94305406  0.68398096  0.93588015  1
  Zn  Zn163  1  0.06081505  0.31378263  0.06411727  1
  Zn  Zn164  1  0.06621015  0.31564449  0.56067319  1
  Zn  Zn165  1  0.06462533  0.81404778  0.06519792  1
  Zn  Zn166  1  0.06282083  0.81657994  0.56148704  1
  Zn  Zn167  1  0.56142447  0.31144054  0.06010097  1
  Zn  Zn168  1  0.56516414  0.30803062  0.57246834  1
  Zn  Zn169  1  0.56669856  0.81231113  0.05990562  1
  Zn  Zn170  1  0.56237427  0.81465488  0.55765741  1
  O  O171  1  0.11437825  0.11746342  0.12810417  1
  O  O172  1  0.11209005  0.11480422  0.63423839  1
  O  O173  1  0.11877799  0.61334958  0.12075392  1
  O  O174  1  0.12596112  0.61609867  0.61655140  1
  O  O175  1  0.61980528  0.11498536  0.11755235  1
  O  O176  1  0.61305954  0.12149406  0.62388734  1
  O  O177  1  0.61794710  0.61639174  0.11770983  1
  O  O178  1  0.61689199  0.61271117  0.62710989  1
  O  O179  1  0.35027761  0.39117834  0.38017745  1
  O  O180  1  0.38361703  0.37409494  0.88746963  1
  O  O181  1  0.38683087  0.87263980  0.38066504  1
  O  O182  1  0.38760532  0.88028373  0.88509506  1
  O  O183  1  0.89015339  0.36823475  0.37778096  1
  O  O184  1  0.88118969  0.38042464  0.87534478  1
  O  O185  1  0.87481414  0.89056704  0.37525896  1
  O  O186  1  0.87878625  0.88970786  0.86817196  1
  O  O187  1  0.24629711  0.00185060  0.35658631  1
  O  O188  1  0.24872052  0.00985806  0.86970792  1
  O  O189  1  0.23402039  0.51862957  0.35905550  1
  O  O190  1  0.24912073  0.49067205  0.85938144  1
  O  O191  1  0.75357434  0.00520090  0.36923568  1
  O  O192  1  0.75800426  -0.00434239  0.86332058  1
  O  O193  1  0.74655283  0.49782883  0.35930721  1
  O  O194  1  0.75458600  0.50289645  0.86888843  1
  O  O195  1  0.24250801  0.49992882  0.13641622  1
  O  O196  1  0.23664387  0.48994856  0.63759206  1
  O  O197  1  0.24531697  1.00065832  0.13000438  1
  O  O198  1  0.23925531  1.00518136  0.63358275  1
  O  O199  1  0.73865596  0.50116143  0.11460212  1
  O  O200  1  0.74339551  0.49467838  0.63251901  1
  O  O201  1  0.74746477  0.99188451  0.12864266  1
  O  O202  1  0.75190631  0.99229987  0.63457442  1
  O  O203  1  0.00496397  0.37111588  0.25564330  1
  O  O204  1  0.00354467  0.36826732  0.76125238  1
  O  O205  1  0.00545483  0.86886434  0.25205429  1
  O  O206  1  0.00835463  0.86488238  0.75322221  1
  O  O207  1  0.50430784  0.35958607  0.24167555  1
  O  O208  1  0.49355058  0.35917492  0.75740424  1
  O  O209  1  0.49545233  0.86556405  0.25637971  1
  O  O210  1  0.50906510  0.88096950  0.76196876  1
  O  O211  1  0.50144508  0.13456550  0.23547038  1
  O  O212  1  0.49780374  0.13441642  0.74441022  1
  O  O213  1  0.49649556  0.63381734  0.24024150  1
  O  O214  1  0.49825140  0.62170997  0.73006143  1
  O  O215  1  0.99172890  0.12893316  0.23833922  1
  O  O216  1  0.99477870  0.12833816  0.74496124  1
  O  O217  1  0.99951422  0.63251658  0.24201702  1
  O  O218  1  0.99526390  0.63753238  0.75438812  1
  O  O219  1  0.36939875  0.25673753  0.00935146  1
  O  O220  1  0.36302343  0.26371024  0.50040718  1
  O  O221  1  0.36513822  0.75771139  -0.00845581  1
  O  O222  1  0.37507726  0.76693229  0.49692991  1
  O  O223  1  0.86302735  0.24836178  0.00521201  1
  O  O224  1  0.87043887  0.24834320  0.50880600  1
  O  O225  1  0.86342862  0.74685514  -0.00990538  1
  O  O226  1  0.87016158  0.75545003  0.50835941  1
  O  O227  1  0.12429333  0.24861831  0.48654655  1
  O  O228  1  0.13371965  0.25732272  0.99329446  1
  O  O229  1  0.12665754  0.74577391  0.49452233  1
  O  O230  1  0.12789602  0.74225159  0.99396550  1
  O  O231  1  0.63528154  0.24642864  0.49490380  1
  O  O232  1  0.62902687  0.24313352  0.99323453  1
  O  O233  1  0.63526677  0.75700087  0.48950684  1
  O  O234  1  0.63532380  0.74606970  0.99149637  1
  O  O235  1  0.49495340  0.24280222  0.12830128  1
  O  O236  1  0.50194937  0.23985368  0.64252059  1
  O  O237  1  0.50937298  0.74149309  0.13094000  1
  O  O238  1  0.50641376  0.74160851  0.62425965  1
  O  O239  1  0.99402923  0.24227847  0.12789502  1
  O  O240  1  0.99891716  0.24266574  0.62961235  1
  O  O241  1  1.01003345  0.74051854  0.13449145  1
  O  O242  1  0.99182632  0.75604671  0.63374014  1
  O  O243  1  0.00714630  0.25417515  0.36871979  1
  O  O244  1  0.00423479  0.25311605  0.87468349  1
  O  O245  1  0.00750406  0.75396460  0.36711076  1
  O  O246  1  0.01031037  0.75241098  0.86915855  1
  O  O247  1  0.51071962  0.24254991  0.36589068  1
  O  O248  1  0.50378385  0.25251492  0.86494895  1
  O  O249  1  0.51004088  0.75491190  0.36720649  1
  O  O250  1  0.51579183  0.76041987  0.88051110  1
  O  O251  1  0.24431349  0.12021873  0.49475458  1
  O  O252  1  0.25133852  0.13763894  0.99492381  1
  O  O253  1  0.24043457  0.62926415  0.49265711  1
  O  O254  1  0.23861108  0.62942187  1.00611596  1
  O  O255  1  0.75241020  0.13424583  0.49522811  1
  O  O256  1  0.73758243  0.13262887  1.00269603  1
  O  O257  1  0.75199488  0.63910401  0.50306060  1
  O  O258  1  0.74503811  0.63397510  0.99223526  1
  O  O259  1  0.25719320  0.36428059  0.00229527  1
  O  O260  1  0.22531830  0.37177119  0.52438260  1
  O  O261  1  0.26012214  0.86718240  -0.00196245  1
  O  O262  1  0.26727501  0.87670709  0.49333879  1
  O  O263  1  0.74858360  0.36176624  -0.00312662  1
  O  O264  1  0.75659049  0.36010332  0.51068264  1
  O  O265  1  0.74890277  0.86968999  0.01308618  1
  O  O266  1  0.75111084  0.87325525  0.51294651  1
  O  O267  1  0.12844787  0.49480021  0.24348701  1
  O  O268  1  0.12988014  0.49304102  0.74819569  1
  O  O269  1  0.13307634  0.99748594  0.23681844  1
  O  O270  1  0.13434243  0.99076120  0.74693539  1
  O  O271  1  0.63825503  0.49915533  0.23213561  1
  O  O272  1  0.63585039  0.50204855  0.74961621  1
  O  O273  1  0.64042427  1.00512985  0.23946562  1
  O  O274  1  0.63466807  0.98982192  0.75113180  1
  O  O275  1  0.36723401  0.00108445  0.24275735  1
  O  O276  1  0.36002360  -0.00803829  0.75300982  1
  O  O277  1  0.36746150  0.51141637  0.24889636  1
  O  O278  1  0.35927640  0.49193212  0.75058895  1
  O  O279  1  0.86739505  0.00624033  0.25654348  1
  O  O280  1  0.87081959  0.00524605  0.75423590  1
  O  O281  1  0.86105600  0.50036265  0.24213281  1
  O  O282  1  0.86907114  0.50435998  0.75827546  1
  O  O283  1  0.11490845  0.36212296  0.36174546  1
  O  O284  1  0.11757341  0.36681754  0.86803386  1
  O  O285  1  0.12632603  0.86330343  0.37532590  1
  O  O286  1  0.12527232  0.86752052  0.86314251  1
  O  O287  1  0.63226218  0.36143596  0.37135365  1
  O  O288  1  0.60988854  0.36349293  0.88012791  1
  O  O289  1  0.61485164  0.86807305  0.37410760  1
  O  O290  1  0.62183536  0.87011568  0.86965123  1
  O  O291  1  0.38713366  0.13548335  0.11618982  1
  O  O292  1  0.38760287  0.11815939  0.62566029  1
  O  O293  1  0.38892304  0.62207569  0.13114120  1
  O  O294  1  0.38463247  0.62869194  0.63149040  1
  O  O295  1  0.88078494  0.13438209  0.12843304  1
  O  O296  1  0.88662765  0.12826821  0.63587113  1
  O  O297  1  0.89018643  0.62320196  0.12285875  1
  O  O298  1  0.87023107  0.63928630  0.63227011  1
  O  O299  1  0.25673872  0.24991679  0.12053927  1
  O  O300  1  0.24011778  0.26361891  0.63221968  1
  O  O301  1  0.24260074  0.75188066  0.11169193  1
  O  O302  1  0.24658914  0.75571872  0.62410150  1
  O  O303  1  0.75611117  0.24349052  0.11618817  1
  O  O304  1  0.75380736  0.25497889  0.62174948  1
  O  O305  1  0.74655118  0.76409043  0.11817755  1
  O  O306  1  0.75419456  0.75717803  0.61979663  1
  O  O307  1  0.23034339  0.24336005  0.36500725  1
  O  O308  1  0.24253606  0.24496650  0.88242060  1
  O  O309  1  0.24487713  0.74108339  0.37338804  1
  O  O310  1  0.23443611  0.74751194  0.88864315  1
  O  O311  1  0.74902518  0.24502298  0.38300121  1
  O  O312  1  0.73964745  0.25094634  0.88251528  1
  O  O313  1  0.74329480  0.75919841  0.38525716  1
  O  O314  1  0.74206653  0.74924651  0.88025798  1
  O  O315  1  -0.00389598  0.11607503  0.01096851  1
  O  O316  1  -0.00457069  0.11299137  0.50958318  1
  O  O317  1  0.01213963  0.62295600  0.00758297  1
  O  O318  1  0.01255227  0.62087195  0.49367422  1
  O  O319  1  0.51066562  0.12195454  0.00862007  1
  O  O320  1  0.49891600  0.11944066  0.51119533  1
  O  O321  1  0.50563817  0.62219087  0.00509303  1
  O  O322  1  0.49496727  0.62389791  0.51769918  1
  O  O323  1  0.50932891  0.37289866  0.50350691  1
  O  O324  1  0.49244609  0.37862233  0.99299413  1
  O  O325  1  0.49443215  0.88135942  0.48933802  1
  O  O326  1  0.49801291  0.87996711  0.99132507  1
  O  O327  1  1.00141312  0.38416216  0.49223901  1
  O  O328  1  0.99795599  0.37648906  0.98782134  1
  O  O329  1  0.99625263  0.88916831  0.49767288  1
  O  O330  1  1.00200267  0.88799230  0.99982987  1
  O  O331  1  0.51214357  0.49912858  0.36126888  1
  O  O332  1  0.49996318  0.48985149  0.88046380  1
  O  O333  1  0.50123127  0.99261570  0.38053214  1
  O  O334  1  0.50168225  0.99397525  0.88065522  1
  O  O335  1  1.00885567  0.49077942  0.38526028  1
  O  O336  1  0.99161740  0.49052086  0.87410452  1
  O  O337  1  0.99334287  1.00293804  0.38067297  1
  O  O338  1  0.99567030  0.99931289  0.88427443  1
  O  O339  1  0.00586208  0.00651383  0.11930298  1
  O  O340  1  0.00691995  0.00518773  0.61948490  1
  O  O341  1  0.00728410  0.50640862  0.12272239  1
  O  O342  1  0.01199539  0.49388270  0.62266708  1
  O  O343  1  0.50890605  0.00566921  0.12051721  1
  O  O344  1  0.50334403  0.01035187  0.62044938  1
  O  O345  1  0.50901082  0.50849623  0.11840493  1
  O  O346  1  0.51517565  0.49627410  0.62722344  1
  O  O347  1  0.24092757  0.38442590  0.24741277  1
  O  O348  1  0.24030998  0.37914081  0.74461062  1
  O  O349  1  0.25217683  0.88695923  0.24544692  1
  O  O350  1  0.24775907  0.87539673  0.74566460  1
  O  O351  1  0.74733444  0.38817517  0.24523377  1
  O  O352  1  0.75635941  0.38504199  0.74213045  1
  O  O353  1  0.75389231  0.88242611  0.23550852  1
  O  O354  1  0.74502049  0.88081984  0.74059282  1
  O  O355  1  0.24937693  0.10922192  0.24877422  1
  O  O356  1  0.24557274  0.11644182  0.76173234  1
  O  O357  1  0.25899873  0.62334626  0.25260970  1
  O  O358  1  0.25094871  0.60768045  0.74620507  1
  O  O359  1  0.75507408  0.11825003  0.25758273  1
  O  O360  1  0.76040365  0.11385877  0.74315050  1
  O  O361  1  0.75273944  0.60926528  0.24322514  1
  O  O362  1  0.75558764  0.61863450  0.75574580  1
  O  O363  1  0.37766495  0.13199563  0.37175138  1
  O  O364  1  0.36298870  0.12498245  0.88220909  1
  O  O365  1  0.36841884  0.62335822  0.36828660  1
  O  O366  1  0.38110498  0.62397750  0.86203938  1
  O  O367  1  0.86666092  0.11667767  0.37070122  1
  O  O368  1  0.87992760  0.11476195  0.86161609  1
  O  O369  1  0.86618282  0.62984525  0.36990795  1
  O  O370  1  0.87012017  0.61696164  0.86921309  1
  O  O371  1  0.12325755  0.38571237  0.13362082  1
  O  O372  1  0.12277777  0.37953472  0.64178238  1
  O  O373  1  0.13079222  0.88678299  0.12496322  1
  O  O374  1  0.12157852  0.88434361  0.63799806  1
  O  O375  1  0.61996414  0.39050263  0.12059222  1
  O  O376  1  0.63875423  0.38454117  0.62710362  1
  O  O377  1  0.63085273  0.88876373  0.11966644  1
  O  O378  1  0.63139777  0.87762214  0.63274432  1
  O  O379  1  0.11608012  0.25861227  0.24741329  1
  O  O380  1  0.11742571  0.25663692  0.76107260  1
  O  O381  1  0.11764745  0.75184663  0.25838760  1
  O  O382  1  0.12041163  0.75344946  0.75554923  1
  O  O383  1  0.61818277  0.25035200  0.25763081  1
  O  O384  1  0.62295248  0.24472709  0.76161021  1
  O  O385  1  0.61619163  0.74849148  0.25512316  1
  O  O386  1  0.63408281  0.76329558  0.75787320  1
  O  O387  1  0.38065774  0.25616478  0.23717277  1
  O  O388  1  0.38143463  0.24777816  0.75649505  1
  O  O389  1  0.38676137  0.73843507  0.25321091  1
  O  O390  1  0.36008548  0.76290278  0.74348660  1
  O  O391  1  0.87768855  0.24572137  0.24281067  1
  O  O392  1  0.87938949  0.24147636  0.74671572  1
  O  O393  1  0.88846008  0.75179335  0.25038017  1
  O  O394  1  0.88282246  0.74691957  0.74536772  1
  O  O395  1  0.35303672  0.49035607  0.49179639  1
  O  O396  1  0.37891706  0.49257926  0.99909110  1
  O  O397  1  0.38887967  0.98362645  0.50613641  1
  O  O398  1  0.38401926  0.99283113  0.99772799  1
  O  O399  1  0.89264605  0.50133588  0.51139123  1
  O  O400  1  0.87557966  0.49844953  0.98554715  1
  O  O401  1  0.88132050  1.00027934  0.49213236  1
  O  O402  1  0.88314429  1.00741728  0.98965121  1
  O  O403  1  0.11824053  -0.00039165  0.01060298  1
  O  O404  1  0.11786692  -0.00639464  0.51026142  1
  O  O405  1  0.12580137  0.50424031  0.00759433  1
  O  O406  1  0.11546902  0.51005817  0.51122327  1
  O  O407  1  0.62261352  0.00701276  0.00409088  1
  O  O408  1  0.61123377  0.00145427  0.50161929  1
  O  O409  1  0.62011722  0.50630187  0.00459193  1
  O  O410  1  0.63300375  0.50236060  0.51364537  1
  O  O411  1  0.37545700  0.36963355  0.11455112  1
  O  O412  1  0.35648065  0.37924375  0.62468723  1
  O  O413  1  0.37663903  0.87318716  0.11001071  1
  O  O414  1  0.37445505  0.87275246  0.61979393  1
  O  O415  1  0.88319419  0.35879665  0.11989549  1
  O  O416  1  0.86675066  0.36740385  0.62441338  1
  O  O417  1  0.86506512  0.87964261  0.12315557  1
  O  O418  1  0.86692116  0.86452886  0.62723933  1
  O  O419  1  0.11668343  0.13871417  0.36802510  1
  O  O420  1  0.13163004  0.13644016  0.87366360  1
  O  O421  1  0.13053568  0.63764562  0.38103523  1
  O  O422  1  0.12001013  0.63115709  0.88573629  1
  O  O423  1  0.64134762  0.13452825  0.37938421  1
  O  O424  1  0.61920456  0.13362823  0.88449932  1
  O  O425  1  0.63681044  0.64029412  0.36999074  1
  O  O426  1  0.62881425  0.63331039  0.87718535  1
