# generated using pymatgen
data_V85Zn86O256
_symmetry_space_group_name_H-M   'P 1'
_cell_length_a   16.93006976
_cell_length_b   16.93311683
_cell_length_c   16.93429477
_cell_angle_alpha   89.94714990
_cell_angle_beta   90.04077639
_cell_angle_gamma   90.00399706
_symmetry_Int_Tables_number   1
_chemical_formula_structural   V85Zn86O256
_chemical_formula_sum   'V85 Zn86 O256'
_cell_volume   4854.70082970
_cell_formula_units_Z   1
loop_
 _symmetry_equiv_pos_site_id
 _symmetry_equiv_pos_as_xyz
  1  'x, y, z'
loop_
 _atom_site_type_symbol
 _atom_site_label
 _atom_site_symmetry_multiplicity
 _atom_site_fract_x
 _atom_site_fract_y
 _atom_site_fract_z
 _atom_site_occupancy
  V  V0  1  0.50696581  0.37452790  0.87650512  1
  V  V1  1  0.12470195  0.50242105  0.12102969  1
  V  V2  1  0.87286295  0.00343189  0.37464960  1
  V  V3  1  0.88024368  0.25403103  0.61887607  1
  V  V4  1  0.12835793  0.12248163  0.50230338  1
  V  V5  1  0.75624625  -0.00491176  0.24234170  1
  V  V6  1  0.75571487  0.61954290  0.87536189  1
  V  V7  1  0.62260765  0.86689959  0.24950724  1
  V  V8  1  0.12275099  0.87629274  0.74340481  1
  V  V9  1  0.88161663  0.62291636  0.74835385  1
  V  V10  1  0.75446001  0.49817503  0.75198219  1
  V  V11  1  0.11943437  0.50605366  0.62387607  1
  V  V12  1  0.61901076  -0.00079514  0.62647535  1
  V  V13  1  -0.00213545  0.00451636  0.00453958  1
  V  V14  1  0.00410051  0.12276492  0.62302038  1
  V  V15  1  0.38249950  0.37819435  0.00412609  1
  V  V16  1  -0.00038053  0.87345829  0.87209959  1
  V  V17  1  0.25345938  0.37958491  0.62516387  1
  V  V18  1  0.25669017  0.50360557  0.25245088  1
  V  V19  1  0.00342502  0.25055240  0.74874331  1
  V  V20  1  0.74719694  0.63294571  0.38095901  1
  V  V21  1  0.37485542  0.49055562  0.38559226  1
  V  V22  1  -0.00666346  0.37991556  0.87537633  1
  V  V23  1  0.36946795  0.62833491  0.74726727  1
  V  V24  1  0.37549823  0.87023727  0.00272408  1
  V  V25  1  0.88813736  0.12191132  0.24163913  1
  V  V26  1  0.25785035  0.12405442  0.37383027  1
  V  V27  1  0.24462228  0.00299055  0.74029158  1
  V  V28  1  0.74210589  0.87409886  0.12091588  1
  V  V29  1  0.24949482  0.12769866  0.87292438  1
  V  V30  1  0.00331769  0.74812506  0.25830295  1
  V  V31  1  0.00223097  0.24955836  0.24582234  1
  V  V32  1  0.49705181  0.74901175  0.74504700  1
  V  V33  1  0.87904242  0.74615201  0.62206189  1
  V  V34  1  0.49814977  0.00293152  0.49472055  1
  V  V35  1  0.61783095  0.61185254  -0.00062933  1
  V  V36  1  0.11677482  0.63238077  0.49508403  1
  V  V37  1  0.25252135  0.25130976  0.00257063  1
  V  V38  1  0.62951716  0.49581035  0.14186269  1
  V  V39  1  0.00162593  0.87412506  0.37646207  1
  V  V40  1  0.24631489  0.63065558  0.89043303  1
  V  V41  1  0.87958305  0.24780359  0.11716531  1
  V  V42  1  0.74688150  0.74681457  -0.00152795  1
  V  V43  1  0.37927781  0.50126161  0.87806998  1
  V  V44  1  0.20390258  0.81553960  0.06379332  1
  V  V45  1  0.25806138  0.00254934  0.24329238  1
  V  V46  1  0.13164219  0.87351766  0.25835700  1
  V  V47  1  0.87055190  0.61829573  0.25340632  1
  V  V48  1  0.25543349  0.63422055  0.37570858  1
  V  V49  1  0.49819375  0.87236061  0.87444988  1
  V  V50  1  0.00406060  -0.00107106  0.50318709  1
  V  V51  1  0.38146795  0.25473835  0.62127959  1
  V  V52  1  0.75478193  0.37692029  0.61871197  1
  V  V53  1  0.86656410  0.49154819  0.38314442  1
  V  V54  1  0.38813856  0.23908497  0.13854697  1
  V  V55  1  0.50582418  0.25003416  0.75172055  1
  V  V56  1  0.00452630  0.62260539  0.12348334  1
  V  V57  1  0.25257554  0.86730330  0.62637429  1
  V  V58  1  0.12248903  0.12717940  0.00849791  1
  V  V59  1  0.12653142  0.25457442  0.87529473  1
  V  V60  1  0.87398006  0.12237803  0.74906187  1
  V  V61  1  -0.00143613  0.37401473  0.38201822  1
  V  V62  1  0.56946870  0.05110874  0.17887431  1
  V  V63  1  0.37668328  0.86675325  0.50339979  1
  V  V64  1  0.37406029  0.00119062  0.87365233  1
  V  V65  1  0.74737606  0.25081726  -0.01011981  1
  V  V66  1  -0.00566430  0.50314279  -0.00079309  1
  V  V67  1  0.50343127  0.00379858  0.00100172  1
  V  V68  1  0.62338278  0.49884614  0.62356550  1
  V  V69  1  0.25261529  0.25856279  0.49779268  1
  V  V70  1  0.87068085  0.87567095  -0.00291623  1
  V  V71  1  0.37964464  0.12672823  0.74382675  1
  V  V72  1  0.73556729  0.14216861  0.35306649  1
  V  V73  1  0.25186096  0.37448549  0.12804733  1
  V  V74  1  0.87162008  0.74576273  0.12667270  1
  V  V75  1  0.52775655  0.35733775  0.37137142  1
  V  V76  1  0.37632251  0.74945985  0.13054141  1
  V  V77  1  0.75000246  0.24826832  0.50035401  1
  V  V78  1  0.49341638  0.61523828  0.12971514  1
  V  V79  1  0.62282331  0.74632662  0.87473929  1
  V  V80  1  0.86580650  0.87241310  0.49803753  1
  V  V81  1  0.49528044  0.62490811  0.62207749  1
  V  V82  1  0.74658486  0.86953266  0.62513352  1
  V  V83  1  0.62366506  0.12668520  0.50417189  1
  V  V84  1  0.61936588  0.12952873  -0.00866280  1
  Zn  Zn85  1  0.24691473  0.75209271  0.50123722  1
  Zn  Zn86  1  0.86955664  0.37958781  -0.00504392  1
  Zn  Zn87  1  0.62390052  0.75518077  0.38802346  1
  Zn  Zn88  1  0.74444566  0.12542857  0.86997573  1
  Zn  Zn89  1  0.49503906  0.74580401  0.25483858  1
  Zn  Zn90  1  0.12925184  0.74911723  0.87907525  1
  Zn  Zn91  1  0.74792880  -0.00097013  0.75101870  1
  Zn  Zn92  1  0.87065592  -0.00027928  0.87271228  1
  Zn  Zn93  1  0.49649393  0.49320681  0.50045146  1
  Zn  Zn94  1  0.24812922  0.50245729  0.75218972  1
  Zn  Zn95  1  -0.00221341  0.49841718  0.50302766  1
  Zn  Zn96  1  0.62962531  0.63128731  0.50626187  1
  Zn  Zn97  1  0.74011727  0.37252126  0.12803506  1
  Zn  Zn98  1  0.62806542  0.36986751  0.75121802  1
  Zn  Zn99  1  0.12103812  0.37730259  0.25059825  1
  Zn  Zn100  1  0.12728826  0.37961450  0.74942563  1
  Zn  Zn101  1  0.12588953  0.25127325  0.37312518  1
  Zn  Zn102  1  0.49860349  0.87088638  0.37530976  1
  Zn  Zn103  1  0.37761092  0.00109653  0.37435413  1
  Zn  Zn104  1  0.62511090  0.87538798  0.75198677  1
  Zn  Zn105  1  0.12477727  0.00102922  0.12591996  1
  Zn  Zn106  1  0.00321913  0.74423842  0.74902085  1
  Zn  Zn107  1  0.19099819  0.18946385  0.18951750  1
  Zn  Zn108  1  0.18921270  0.19047707  0.68387900  1
  Zn  Zn109  1  0.18396231  0.68381295  0.19611579  1
  Zn  Zn110  1  0.18426076  0.68643773  0.68863323  1
  Zn  Zn111  1  0.70014095  0.18503192  0.17590165  1
  Zn  Zn112  1  0.68831757  0.18664823  0.68361365  1
  Zn  Zn113  1  0.68606808  0.68053075  0.18952954  1
  Zn  Zn114  1  0.68784217  0.68799939  0.68613259  1
  Zn  Zn115  1  0.31441906  0.31333235  0.31138324  1
  Zn  Zn116  1  0.31573875  0.31579527  0.81086766  1
  Zn  Zn117  1  0.31430148  0.81692873  0.31524007  1
  Zn  Zn118  1  0.31091082  0.81038545  0.81284613  1
  Zn  Zn119  1  0.79469933  0.31222381  0.30808453  1
  Zn  Zn120  1  0.81434816  0.31048855  0.80814076  1
  Zn  Zn121  1  0.81378648  0.80980720  0.31205678  1
  Zn  Zn122  1  0.81165370  0.80963606  0.80896070  1
  Zn  Zn123  1  0.18363147  0.44041515  0.43696414  1
  Zn  Zn124  1  0.18879050  0.44153702  0.94047454  1
  Zn  Zn125  1  0.18929130  0.93894300  0.43746168  1
  Zn  Zn126  1  0.18203615  0.94475498  0.92739375  1
  Zn  Zn127  1  0.68722065  0.44067391  0.43981743  1
  Zn  Zn128  1  0.68815198  0.43640344  0.93828365  1
  Zn  Zn129  1  0.68527180  0.94415911  0.43230228  1
  Zn  Zn130  1  0.68402112  0.94096759  0.93373978  1
  Zn  Zn131  1  0.31405749  0.06252938  0.06173382  1
  Zn  Zn132  1  0.31484989  0.06373135  0.56328891  1
  Zn  Zn133  1  0.31567702  0.55951600  0.06340117  1
  Zn  Zn134  1  0.30867162  0.56521523  0.56090434  1
  Zn  Zn135  1  0.81144816  0.06547640  0.05925029  1
  Zn  Zn136  1  0.80963797  0.06103856  0.56338635  1
  Zn  Zn137  1  0.81212180  0.56079021  0.06385230  1
  Zn  Zn138  1  0.81422360  0.56341799  0.56190308  1
  Zn  Zn139  1  0.43930493  0.43523868  0.19528916  1
  Zn  Zn140  1  0.43498245  0.43883504  0.69082264  1
  Zn  Zn141  1  0.43038913  0.92887751  0.18840663  1
  Zn  Zn142  1  0.43733434  0.93773913  0.68456388  1
  Zn  Zn143  1  0.90066114  0.41616681  0.20738021  1
  Zn  Zn144  1  0.93859297  0.43677301  0.68848434  1
  Zn  Zn145  1  0.93814766  0.93244662  0.18376857  1
  Zn  Zn146  1  0.93612991  0.93681342  0.68412437  1
  Zn  Zn147  1  0.06927160  0.05957810  0.31718139  1
  Zn  Zn148  1  0.06145128  0.06261869  0.81562947  1
  Zn  Zn149  1  0.06362773  0.55791159  0.31414436  1
  Zn  Zn150  1  0.06759995  0.56211223  0.81575545  1
  Zn  Zn151  1  0.57019325  0.18357508  0.31295566  1
  Zn  Zn152  1  0.56033687  0.06269906  0.81177369  1
  Zn  Zn153  1  0.55917965  0.56334020  0.31344019  1
  Zn  Zn154  1  0.56293647  0.55970587  0.80936074  1
  Zn  Zn155  1  0.43737597  0.18759472  0.44190647  1
  Zn  Zn156  1  0.43681354  0.19119630  0.93852604  1
  Zn  Zn157  1  0.43668956  0.68796319  0.43666092  1
  Zn  Zn158  1  0.43566485  0.68606160  0.94136289  1
  Zn  Zn159  1  0.93432789  0.18588783  0.43175441  1
  Zn  Zn160  1  0.93899379  0.18732841  0.93397382  1
  Zn  Zn161  1  0.93377346  0.68750077  0.43831222  1
  Zn  Zn162  1  0.93787040  0.68740065  0.93678718  1
  Zn  Zn163  1  0.06066611  0.31637028  0.06469785  1
  Zn  Zn164  1  0.06887040  0.31373576  0.56085597  1
  Zn  Zn165  1  0.04336731  0.81470093  0.06629754  1
  Zn  Zn166  1  0.06070252  0.81233434  0.56469388  1
  Zn  Zn167  1  0.56186604  0.31216116  0.06518723  1
  Zn  Zn168  1  0.56354143  0.31596898  0.55771557  1
  Zn  Zn169  1  0.55944405  0.80665334  0.06192210  1
  Zn  Zn170  1  0.56170478  0.81083207  0.56153940  1
  O  O171  1  0.12962349  0.12660843  0.11098132  1
  O  O172  1  0.12014921  0.12994399  0.61172105  1
  O  O173  1  0.11267157  0.62007353  0.13027646  1
  O  O174  1  0.13178260  0.61726312  0.61064984  1
  O  O175  1  0.62419857  0.11595605  0.11889984  1
  O  O176  1  0.63304979  0.11307843  0.61367983  1
  O  O177  1  0.61594966  0.61555679  0.11892258  1
  O  O178  1  0.61576147  0.61635993  0.62941687  1
  O  O179  1  0.36864162  0.39030899  0.37731035  1
  O  O180  1  0.38033928  0.38308855  0.88282630  1
  O  O181  1  0.37604151  0.88115222  0.38748491  1
  O  O182  1  0.37794534  0.88018580  0.88183831  1
  O  O183  1  0.87762067  0.38839420  0.37453324  1
  O  O184  1  0.88948749  0.37069177  0.87465569  1
  O  O185  1  0.87892828  0.88087722  0.38067359  1
  O  O186  1  0.88142969  0.87422091  0.87922315  1
  O  O187  1  0.25099666  0.00805186  0.36556696  1
  O  O188  1  0.25673666  0.00698713  0.86407139  1
  O  O189  1  0.25673676  0.50636433  0.37102956  1
  O  O190  1  0.26017623  0.50881887  0.87584197  1
  O  O191  1  0.75235357  0.00870507  0.35719915  1
  O  O192  1  0.75224188  0.00529527  0.87060954  1
  O  O193  1  0.76264148  0.50695975  0.37807920  1
  O  O194  1  0.74619518  0.50688398  0.86509613  1
  O  O195  1  0.24604185  0.49670893  0.13223932  1
  O  O196  1  0.24210289  0.49336501  0.62436986  1
  O  O197  1  0.24723214  1.00523569  0.13923459  1
  O  O198  1  0.25181290  0.99491036  0.63689953  1
  O  O199  1  0.73171449  0.50268002  0.12059068  1
  O  O200  1  0.74506124  0.49345503  0.62827647  1
  O  O201  1  0.76037036  0.98756939  0.13240818  1
  O  O202  1  0.74043750  0.98789530  0.62508864  1
  O  O203  1  -0.00462736  0.36443819  0.25976247  1
  O  O204  1  0.00520105  0.36941796  0.75797956  1
  O  O205  1  0.00671268  0.86765768  0.25414205  1
  O  O206  1  0.00634974  0.87744772  0.75625766  1
  O  O207  1  0.49694091  0.38118360  0.27751105  1
  O  O208  1  0.49942593  0.36762527  0.75788133  1
  O  O209  1  0.50997671  0.87399747  0.25003236  1
  O  O210  1  0.49747429  0.86529771  0.75579479  1
  O  O211  1  0.51924407  0.10577714  0.24442476  1
  O  O212  1  0.48865920  0.13402481  0.75521925  1
  O  O213  1  0.50329768  0.62818303  0.23364369  1
  O  O214  1  0.49281658  0.62934223  0.74276442  1
  O  O215  1  0.99330442  0.12667761  0.25702566  1
  O  O216  1  0.99748006  0.12990628  0.74318218  1
  O  O217  1  0.99708131  0.63230181  0.24674117  1
  O  O218  1  0.98499094  0.62246378  0.76047689  1
  O  O219  1  0.36851284  0.26151325  0.00557233  1
  O  O220  1  0.36576416  0.24554159  0.51034893  1
  O  O221  1  0.37754530  0.76249643  0.00806001  1
  O  O222  1  0.37145089  0.76309580  0.49999475  1
  O  O223  1  0.86799856  0.24488746  0.00236170  1
  O  O224  1  0.87234452  0.24011628  0.51474751  1
  O  O225  1  0.86688009  0.75417894  0.00544441  1
  O  O226  1  0.87770908  0.76073569  0.50716067  1
  O  O227  1  0.13567462  0.24171206  0.49700889  1
  O  O228  1  0.13017159  0.24615237  0.99462912  1
  O  O229  1  0.12511832  0.73694742  0.50424943  1
  O  O230  1  0.13556362  0.76655027  1.00662498  1
  O  O231  1  0.63787027  0.23970210  0.50913379  1
  O  O232  1  0.63304446  0.24017021  1.00776706  1
  O  O233  1  0.62605811  0.74443986  0.50162043  1
  O  O234  1  0.62914435  0.73913163  0.99370050  1
  O  O235  1  0.48793847  0.25219612  0.12792451  1
  O  O236  1  0.48681001  0.26111846  0.63008296  1
  O  O237  1  0.49154657  0.73997215  0.12791760  1
  O  O238  1  0.50181014  0.74221471  0.63893652  1
  O  O239  1  0.99906126  0.24807816  0.13722959  1
  O  O240  1  0.99703412  0.24624874  0.62805751  1
  O  O241  1  0.99158148  0.74214867  0.13584304  1
  O  O242  1  0.98394356  0.75633651  0.63033390  1
  O  O243  1  -0.00230746  0.25500591  0.36425249  1
  O  O244  1  0.00971683  0.25798459  0.87067960  1
  O  O245  1  -0.00585995  0.75504307  0.36404972  1
  O  O246  1  0.00425378  0.76179483  0.87574188  1
  O  O247  1  0.50620642  0.25234025  0.37478038  1
  O  O248  1  0.49152634  0.26174530  0.86367145  1
  O  O249  1  0.50367412  0.75114332  0.37059078  1
  O  O250  1  0.50337090  0.75107896  0.86749737  1
  O  O251  1  0.24416975  0.13061237  0.49625661  1
  O  O252  1  0.24348919  0.12938765  0.99178016  1
  O  O253  1  0.24185305  0.62984984  0.49028935  1
  O  O254  1  0.25444538  0.62286141  0.98903106  1
  O  O255  1  0.74545754  0.13218375  0.49448534  1
  O  O256  1  0.73868420  0.13108619  0.99782432  1
  O  O257  1  0.75143458  0.62257206  0.48481242  1
  O  O258  1  0.74383916  0.62686566  0.99196016  1
  O  O259  1  0.25678204  0.37315970  0.01202964  1
  O  O260  1  0.24384811  0.36399491  0.50532991  1
  O  O261  1  0.25444868  0.88061572  -0.00055746  1
  O  O262  1  0.25453134  0.87559689  0.50958314  1
  O  O263  1  0.75156705  0.36702966  0.00324816  1
  O  O264  1  0.74622165  0.36705399  0.51156162  1
  O  O265  1  0.75085937  0.86988825  0.00433326  1
  O  O266  1  0.76110453  0.88391863  0.50324968  1
  O  O267  1  0.13442525  0.49880607  0.23973706  1
  O  O268  1  0.12899762  0.50167614  0.73997970  1
  O  O269  1  0.12910312  0.98852186  0.24516922  1
  O  O270  1  0.13480705  0.99320189  0.75735441  1
  O  O271  1  0.62655623  0.50332280  0.24033844  1
  O  O272  1  0.63701826  0.49864337  0.74012526  1
  O  O273  1  0.63570528  0.98868121  0.23405316  1
  O  O274  1  0.62381781  0.99856360  0.74084469  1
  O  O275  1  0.36151117  -0.00211568  0.25134218  1
  O  O276  1  0.37026371  0.00950951  0.75259034  1
  O  O277  1  0.36147051  0.49905620  0.25834996  1
  O  O278  1  0.37190191  0.51111729  0.75972934  1
  O  O279  1  0.87398708  0.00051713  0.25287247  1
  O  O280  1  0.87432730  0.00911657  0.74898102  1
  O  O281  1  0.88612968  0.51468636  0.26708708  1
  O  O282  1  0.86261149  0.50638767  0.74268627  1
  O  O283  1  0.11479914  0.37399890  0.37035194  1
  O  O284  1  0.12273815  0.36551849  0.87617917  1
  O  O285  1  0.11683440  0.87856096  0.36807578  1
  O  O286  1  0.11790331  0.87235876  0.86438556  1
  O  O287  1  0.62769724  0.37081309  0.36978942  1
  O  O288  1  0.61090052  0.38133267  0.87144019  1
  O  O289  1  0.62617620  0.87504070  0.36255389  1
  O  O290  1  0.61559734  0.86571064  0.87492906  1
  O  O291  1  0.37184801  0.14127506  0.11915830  1
  O  O292  1  0.36873695  0.13696332  0.63684790  1
  O  O293  1  0.38719337  0.63045519  0.11868878  1
  O  O294  1  0.38059481  0.61875172  0.63620043  1
  O  O295  1  0.87780524  0.13245720  0.12913265  1
  O  O296  1  0.88221171  0.12999384  0.63281865  1
  O  O297  1  0.88211775  0.62549337  0.13514165  1
  O  O298  1  0.86849204  0.63418693  0.63408877  1
  O  O299  1  0.25527405  0.25956249  0.12076923  1
  O  O300  1  0.25780152  0.25913547  0.61861463  1
  O  O301  1  0.25398471  0.74490020  0.12164337  1
  O  O302  1  0.24725978  0.76410675  0.62710228  1
  O  O303  1  0.76218162  0.25229906  0.11025996  1
  O  O304  1  0.75951758  0.25646124  0.61888755  1
  O  O305  1  0.75333320  0.75196387  0.11903736  1
  O  O306  1  0.75884043  0.76232020  0.62933673  1
  O  O307  1  0.25061261  0.24449441  0.38206337  1
  O  O308  1  0.24516436  0.24926332  0.88088676  1
  O  O309  1  0.25227425  0.73742930  0.37460988  1
  O  O310  1  0.25117602  0.73608318  0.87735798  1
  O  O311  1  0.77114763  0.24452119  0.39362345  1
  O  O312  1  0.75344407  0.24856901  0.88494883  1
  O  O313  1  0.74987756  0.73621811  0.37288900  1
  O  O314  1  0.74196575  0.74124755  0.87822528  1
  O  O315  1  0.00949655  0.11563989  -0.00839451  1
  O  O316  1  0.00687747  0.11840642  0.50071165  1
  O  O317  1  -0.00458319  0.61953841  0.01123831  1
  O  O318  1  0.01341609  0.62360696  0.49352958  1
  O  O319  1  0.50411652  0.11706874  -0.00331266  1
  O  O320  1  0.51105505  0.11765959  0.49898343  1
  O  O321  1  0.50795939  0.62922287  0.01344074  1
  O  O322  1  0.49553764  0.62339174  0.51576311  1
  O  O323  1  0.50830986  0.37754815  0.47688616  1
  O  O324  1  0.49205595  0.36893607  0.99079269  1
  O  O325  1  0.49035995  0.88237579  0.50398925  1
  O  O326  1  0.49284724  0.88057111  0.99593164  1
  O  O327  1  1.00208968  0.37093552  0.48612548  1
  O  O328  1  1.00180726  0.38399050  0.99074422  1
  O  O329  1  0.99271745  0.88185023  0.49625091  1
  O  O330  1  0.99072213  0.88132739  0.99145047  1
  O  O331  1  0.48199411  0.50805447  0.37805572  1
  O  O332  1  0.48693564  0.49351003  0.86910194  1
  O  O333  1  0.49924973  0.99470147  0.39207168  1
  O  O334  1  0.49248468  0.99377565  0.88203757  1
  O  O335  1  0.99136527  0.49074579  0.37771193  1
  O  O336  1  1.00934302  0.49154855  0.88609139  1
  O  O337  1  0.99381969  0.99565262  0.38446395  1
  O  O338  1  0.99907024  0.98850510  0.88417726  1
  O  O339  1  0.00544743  -0.01003346  0.10923410  1
  O  O340  1  -0.00517167  0.00582324  0.61051970  1
  O  O341  1  0.00830339  0.50762043  0.11995905  1
  O  O342  1  0.01466113  0.49159625  0.62202624  1
  O  O343  1  0.49949178  -0.00117175  0.12113365  1
  O  O344  1  0.51302337  -0.00451289  0.61767769  1
  O  O345  1  0.50583769  0.50946125  0.12995830  1
  O  O346  1  0.50661987  0.50496836  0.62589518  1
  O  O347  1  0.24887324  0.38220780  0.23982993  1
  O  O348  1  0.24849913  0.37869073  0.74066965  1
  O  O349  1  0.24219100  0.88957285  0.25663933  1
  O  O350  1  0.24485237  0.88266304  0.74550753  1
  O  O351  1  0.78956068  0.38503337  0.22881782  1
  O  O352  1  0.74963931  0.38018341  0.74051687  1
  O  O353  1  0.74660906  0.87759572  0.24183194  1
  O  O354  1  0.74719290  0.87675288  0.73985022  1
  O  O355  1  0.24058223  0.11120149  0.25939314  1
  O  O356  1  0.25459859  0.12048904  0.75329764  1
  O  O357  1  0.24372305  0.61790692  0.26636217  1
  O  O358  1  0.25819597  0.62525212  0.75744635  1
  O  O359  1  0.76845829  0.10944396  0.24248530  1
  O  O360  1  0.76008246  0.12527689  0.74891603  1
  O  O361  1  0.76121768  0.62724196  0.26039960  1
  O  O362  1  0.75633966  0.61767660  0.75664242  1
  O  O363  1  0.36195020  0.12222973  0.38131363  1
  O  O364  1  0.36796874  0.12201746  0.86666461  1
  O  O365  1  0.35948427  0.61660864  0.38102422  1
  O  O366  1  0.36874471  0.61860324  0.87254009  1
  O  O367  1  0.86418959  0.11989482  0.36177365  1
  O  O368  1  0.87808393  0.12510300  0.85809383  1
  O  O369  1  0.86594015  0.61941203  0.37146445  1
  O  O370  1  0.86125837  0.63044098  0.86838680  1
  O  O371  1  0.13465054  0.38293078  0.12748022  1
  O  O372  1  0.13728302  0.38184350  0.62541218  1
  O  O373  1  0.13679915  0.86977183  0.12527780  1
  O  O374  1  0.12983638  0.87561771  0.63690715  1
  O  O375  1  0.62127578  0.39140176  0.12442164  1
  O  O376  1  0.63288275  0.38276905  0.62763060  1
  O  O377  1  0.63704734  0.86813095  0.12637434  1
  O  O378  1  0.63149278  0.88052287  0.62753614  1
  O  O379  1  0.11661625  0.25197155  0.25234374  1
  O  O380  1  0.12134378  0.25116589  0.75850569  1
  O  O381  1  0.11675827  0.76335735  0.24594087  1
  O  O382  1  0.12101336  0.75920592  0.75306666  1
  O  O383  1  0.67603923  0.21476299  0.28238837  1
  O  O384  1  0.60995406  0.24871714  0.74136799  1
  O  O385  1  0.62640378  0.76095917  0.24903825  1
  O  O386  1  0.61597510  0.74838635  0.75856502  1
  O  O387  1  0.37133388  0.24898779  0.23777064  1
  O  O388  1  0.38133005  0.24482513  0.74279012  1
  O  O389  1  0.37324022  0.75844937  0.23480281  1
  O  O390  1  0.38314880  0.73765425  0.75710285  1
  O  O391  1  0.88209669  0.23726114  0.23940491  1
  O  O392  1  0.88306817  0.24356441  0.73874263  1
  O  O393  1  0.88273887  0.74084037  0.24580656  1
  O  O394  1  0.87683499  0.74003613  0.74266096  1
  O  O395  1  0.37317223  0.49943601  0.48954816  1
  O  O396  1  0.37391070  0.48679647  0.99453324  1
  O  O397  1  0.38368153  0.99494104  0.50320100  1
  O  O398  1  0.38346277  0.99202134  0.99702894  1
  O  O399  1  0.87989857  0.50421717  0.48732258  1
  O  O400  1  0.88899195  0.49836243  1.00458310  1
  O  O401  1  0.88014895  0.99523144  0.49317424  1
  O  O402  1  0.88153798  0.99550097  0.99671330  1
  O  O403  1  0.11860615  0.00977077  -0.00036295  1
  O  O404  1  0.11561109  0.00790193  0.49655721  1
  O  O405  1  0.11818665  0.49747456  0.01449306  1
  O  O406  1  0.12270699  0.51077492  0.50647483  1
  O  O407  1  0.60962541  0.00487164  -0.00127802  1
  O  O408  1  0.61876821  0.00435356  0.50722753  1
  O  O409  1  0.62320047  0.51027591  0.00101223  1
  O  O410  1  0.62272482  0.50675442  0.51277050  1
  O  O411  1  0.37113800  0.37144658  0.12070947  1
  O  O412  1  0.36294513  0.37036371  0.62804576  1
  O  O413  1  0.37074746  0.86547405  0.11414456  1
  O  O414  1  0.36364454  0.88020417  0.61806087  1
  O  O415  1  0.89068283  0.35432730  0.11007557  1
  O  O416  1  0.86808486  0.36627911  0.62772617  1
  O  O417  1  0.86481480  0.86570924  0.11813799  1
  O  O418  1  0.86654692  0.87041820  0.61677780  1
  O  O419  1  0.13490373  0.12702921  0.38692204  1
  O  O420  1  0.12933465  0.13782918  0.88112421  1
  O  O421  1  0.13594249  0.61827118  0.38826875  1
  O  O422  1  0.14127985  0.62784583  0.87582470  1
  O  O423  1  0.63714300  0.11721023  0.39031136  1
  O  O424  1  0.62330889  0.12431307  0.88717033  1
  O  O425  1  0.63999618  0.62173013  0.37379815  1
  O  O426  1  0.63038358  0.62680782  0.88065875  1
