# generated using pymatgen
data_V85Zn86O256
_symmetry_space_group_name_H-M   'P 1'
_cell_length_a   16.93452768
_cell_length_b   16.93211211
_cell_length_c   16.92390576
_cell_angle_alpha   89.99912992
_cell_angle_beta   89.96759140
_cell_angle_gamma   89.91369740
_symmetry_Int_Tables_number   1
_chemical_formula_structural   V85Zn86O256
_chemical_formula_sum   'V85 Zn86 O256'
_cell_volume   4852.70912149
_cell_formula_units_Z   1
loop_
 _symmetry_equiv_pos_site_id
 _symmetry_equiv_pos_as_xyz
  1  'x, y, z'
loop_
 _atom_site_type_symbol
 _atom_site_label
 _atom_site_symmetry_multiplicity
 _atom_site_fract_x
 _atom_site_fract_y
 _atom_site_fract_z
 _atom_site_occupancy
  V  V0  1  0.76812137  0.25094333  0.50163363  1
  V  V1  1  0.50271312  0.49686963  0.49788331  1
  V  V2  1  -0.00296695  0.75255514  0.75201196  1
  V  V3  1  0.37490435  0.87924146  0.49722264  1
  V  V4  1  0.37013699  0.62512260  0.75048574  1
  V  V5  1  0.61226061  0.13500865  0.50005895  1
  V  V6  1  0.50011951  0.24761328  0.74246259  1
  V  V7  1  0.35881766  0.25496469  0.62409468  1
  V  V8  1  0.87757461  0.62371404  0.75061949  1
  V  V9  1  0.87998751  0.49138572  0.87272328  1
  V  V10  1  -0.01100449  0.49770081  0.49736675  1
  V  V11  1  0.00045486  0.00076949  0.50064698  1
  V  V12  1  0.50682058  0.50400021  -0.00182663  1
  V  V13  1  0.74230446  0.00824754  0.75222733  1
  V  V14  1  0.13198872  0.49636090  0.12500402  1
  V  V15  1  0.12919251  0.37235255  0.24733340  1
  V  V16  1  0.13401815  0.12871107  0.50262497  1
  V  V17  1  0.37671071  0.12584927  0.74781416  1
  V  V18  1  0.00043273  0.62090125  0.12785653  1
  V  V19  1  0.74856955  0.62699481  0.37491717  1
  V  V20  1  0.49830664  0.87941466  0.37819831  1
  V  V21  1  0.25245757  0.62648581  0.37562537  1
  V  V22  1  0.50520667  0.74796328  0.25578537  1
  V  V23  1  0.37792124  0.49747246  0.37360978  1
  V  V24  1  0.13444647  0.24932481  0.37774618  1
  V  V25  1  0.87566234  0.74851173  0.12900077  1
  V  V26  1  0.51516736  0.62817867  0.12153039  1
  V  V27  1  0.86777397  0.75890777  0.62105477  1
  V  V28  1  0.37332206  0.37827967  0.00424041  1
  V  V29  1  0.26113590  0.00564140  0.25446746  1
  V  V30  1  0.74707465  0.12990486  0.37584642  1
  V  V31  1  0.75003108  0.49981990  0.75680991  1
  V  V32  1  0.37852896  0.62416894  0.24845169  1
  V  V33  1  0.49914434  0.62304588  0.62246818  1
  V  V34  1  -0.00344106  0.87911170  0.87380065  1
  V  V35  1  0.86368005  0.00789031  0.87795127  1
  V  V36  1  0.87705477  0.87402619  0.00266409  1
  V  V37  1  0.12242313  0.62477600  0.00006434  1
  V  V38  1  0.12150041  0.87625200  0.74858594  1
  V  V39  1  0.62476719  0.00099804  0.12459500  1
  V  V40  1  0.37265357  0.75454244  0.12506636  1
  V  V41  1  0.36311124  0.37607724  0.50307861  1
  V  V42  1  0.00142410  0.24180905  0.24648999  1
  V  V43  1  0.87277353  -0.00458014  0.38039222  1
  V  V44  1  0.62751617  0.63455912  0.49933574  1
  V  V45  1  0.24551008  0.00227754  0.75211796  1
  V  V46  1  0.87598221  0.61850954  0.25850939  1
  V  V47  1  0.12813666  -0.00096755  0.12713967  1
  V  V48  1  0.36759090  0.74805425  0.61666700  1
  V  V49  1  0.62750935  0.12116314  -0.00761047  1
  V  V50  1  0.75134944  0.00092381  0.25270748  1
  V  V51  1  0.13278671  0.87352571  0.24649031  1
  V  V52  1  -0.00988321  0.37551358  0.37787598  1
  V  V53  1  0.76690536  0.36974541  0.62269075  1
  V  V54  1  0.00266456  0.48961103  -0.00318537  1
  V  V55  1  0.11835273  0.37299284  0.75984615  1
  V  V56  1  0.12563715  0.12744243  0.00410446  1
  V  V57  1  0.75084993  0.48676424  0.25343610  1
  V  V58  1  0.74633428  0.25007073  -0.00138042  1
  V  V59  1  0.51665303  0.37568808  0.37174689  1
  V  V60  1  -0.00047807  0.00895881  0.00621223  1
  V  V61  1  0.24742252  0.75599552  0.00329115  1
  V  V62  1  0.37219286  0.25313842  0.13646755  1
  V  V63  1  0.12138267  0.74885662  0.87574760  1
  V  V64  1  0.49664745  0.75348693  0.74932070  1
  V  V65  1  0.60874560  0.00556914  0.61550887  1
  V  V66  1  0.13196804  0.75104337  0.38040467  1
  V  V67  1  0.63277168  0.48526305  0.12403579  1
  V  V68  1  0.52168247  0.25396583  0.25224350  1
  V  V69  1  0.25185022  0.25473940  0.00406986  1
  V  V70  1  0.87434655  0.24132838  0.12411576  1
  V  V71  1  0.24565646  0.87199467  0.61927889  1
  V  V72  1  0.86946145  0.37358091  0.00757583  1
  V  V73  1  0.49570751  -0.00026265  -0.00023091  1
  V  V74  1  -0.00134451  0.87205573  0.37782191  1
  V  V75  1  0.12964933  0.48832515  0.62049626  1
  V  V76  1  0.25393807  0.49577265  0.24603699  1
  V  V77  1  0.75139730  0.87469808  0.12824727  1
  V  V78  1  0.62596472  0.37188301  0.74969824  1
  V  V79  1  0.62952012  0.49718131  0.62143163  1
  V  V80  1  0.49540045  0.12711181  0.12990979  1
  V  V81  1  0.25284881  0.49009722  0.74793095  1
  V  V82  1  0.12977367  0.62548813  0.50155460  1
  V  V83  1  0.62655667  0.87140938  0.25769418  1
  V  V84  1  0.61937303  0.87905296  0.74804166  1
  Zn  Zn85  1  0.25025678  0.62537807  0.87619738  1
  Zn  Zn86  1  -0.01491783  0.14286566  0.62142528  1
  Zn  Zn87  1  0.87015435  0.13053273  0.74468807  1
  Zn  Zn88  1  0.26457951  0.12523841  0.37504515  1
  Zn  Zn89  1  0.00309218  0.62545942  0.62289937  1
  Zn  Zn90  1  0.49212945  0.87461954  0.87682450  1
  Zn  Zn91  1  0.37125581  0.00032038  0.87648166  1
  Zn  Zn92  1  0.11734657  0.25447693  0.88105746  1
  Zn  Zn93  1  0.74725172  0.88007301  0.61929516  1
  Zn  Zn94  1  0.12204428  0.00476016  0.62742308  1
  Zn  Zn95  1  0.62567541  0.24477483  0.87115428  1
  Zn  Zn96  1  0.37705274  0.50102841  0.87625017  1
  Zn  Zn97  1  0.00399392  0.74696970  0.25250055  1
  Zn  Zn98  1  0.75285635  0.75814523  0.49162506  1
  Zn  Zn99  1  0.87971934  0.12102461  0.24763137  1
  Zn  Zn100  1  -0.01619123  0.25070401  0.75241687  1
  Zn  Zn101  1  0.43190188  0.04479190  0.43375435  1
  Zn  Zn102  1  0.24749233  0.12875581  0.87497335  1
  Zn  Zn103  1  0.62375802  0.73192332  0.88413740  1
  Zn  Zn104  1  0.73161680  0.72532543  -0.00104050  1
  Zn  Zn105  1  0.36630820  0.88036124  0.00176656  1
  Zn  Zn106  1  0.50020970  0.37399988  0.87453778  1
  Zn  Zn107  1  0.18852825  0.18370433  0.18519899  1
  Zn  Zn108  1  0.18177067  0.18919448  0.68600875  1
  Zn  Zn109  1  0.18907712  0.68621022  0.18878326  1
  Zn  Zn110  1  0.18592686  0.68610487  0.68596837  1
  Zn  Zn111  1  0.69180948  0.18630522  0.18004257  1
  Zn  Zn112  1  0.68955080  0.18683441  0.68148713  1
  Zn  Zn113  1  0.69114476  0.68695495  0.18975334  1
  Zn  Zn114  1  0.67848287  0.67723827  0.71281945  1
  Zn  Zn115  1  0.31529138  0.31532451  0.31514397  1
  Zn  Zn116  1  0.31236551  0.31248482  0.81926952  1
  Zn  Zn117  1  0.31255268  0.81489322  0.31204827  1
  Zn  Zn118  1  0.31023224  0.81445845  0.81444729  1
  Zn  Zn119  1  0.81260701  0.30608354  0.31378460  1
  Zn  Zn120  1  0.81283763  0.30992843  0.81780928  1
  Zn  Zn121  1  0.81500365  0.80974776  0.31463853  1
  Zn  Zn122  1  0.80665806  0.81383241  0.81086436  1
  Zn  Zn123  1  0.18408314  0.43919906  0.43188674  1
  Zn  Zn124  1  0.19520892  0.43888763  0.93634525  1
  Zn  Zn125  1  0.18892189  0.94004285  0.43645572  1
  Zn  Zn126  1  0.18503577  0.93762424  0.93643779  1
  Zn  Zn127  1  0.69924005  0.43828955  0.43853905  1
  Zn  Zn128  1  0.68946413  0.43600949  0.93785878  1
  Zn  Zn129  1  0.68547884  0.93689021  0.44132056  1
  Zn  Zn130  1  0.70042771  0.89827985  0.92186669  1
  Zn  Zn131  1  0.31034905  0.06606944  0.06917581  1
  Zn  Zn132  1  0.31039855  0.06419402  0.57107271  1
  Zn  Zn133  1  0.31535276  0.56909596  0.06184690  1
  Zn  Zn134  1  0.31049798  0.55920489  0.56144474  1
  Zn  Zn135  1  0.81059692  0.06359487  0.06284535  1
  Zn  Zn136  1  0.80403497  0.06024307  0.56186250  1
  Zn  Zn137  1  0.81125121  0.55927966  0.06655919  1
  Zn  Zn138  1  0.81277274  0.56871758  0.56902629  1
  Zn  Zn139  1  0.44467639  0.43521372  0.18514517  1
  Zn  Zn140  1  0.43886282  0.43459700  0.68593382  1
  Zn  Zn141  1  0.43922571  0.93460970  0.18612181  1
  Zn  Zn142  1  0.43192485  0.93988907  0.68295805  1
  Zn  Zn143  1  0.93849597  0.43264567  0.18861512  1
  Zn  Zn144  1  0.94345593  0.43635848  0.68293880  1
  Zn  Zn145  1  0.94382517  0.93828530  0.19254836  1
  Zn  Zn146  1  0.91974005  0.96658706  0.67358450  1
  Zn  Zn147  1  0.06771010  0.06124056  0.31648891  1
  Zn  Zn148  1  0.05637445  0.06980020  0.81569987  1
  Zn  Zn149  1  0.06357632  0.55926932  0.31508334  1
  Zn  Zn150  1  0.06219716  0.56103054  0.81201918  1
  Zn  Zn151  1  0.56586708  0.06656755  0.31084771  1
  Zn  Zn152  1  0.55660759  0.06197070  0.81284839  1
  Zn  Zn153  1  0.56982467  0.56000030  0.31141025  1
  Zn  Zn154  1  0.56217251  0.56405604  0.81257979  1
  Zn  Zn155  1  0.43497530  0.20731853  0.43328203  1
  Zn  Zn156  1  0.43735751  0.18868115  0.93362336  1
  Zn  Zn157  1  0.43916121  0.69012179  0.43715055  1
  Zn  Zn158  1  0.43777178  0.68772745  0.93742996  1
  Zn  Zn159  1  0.94239999  0.18301543  0.43154346  1
  Zn  Zn160  1  0.93812769  0.19109444  0.93061993  1
  Zn  Zn161  1  0.94099196  0.68622880  0.43925691  1
  Zn  Zn162  1  0.90677946  0.66845157  0.95270808  1
  Zn  Zn163  1  0.06096603  0.31133576  0.06589947  1
  Zn  Zn164  1  0.05987895  0.31110069  0.56375859  1
  Zn  Zn165  1  0.05946146  0.81448152  0.06499646  1
  Zn  Zn166  1  0.05874684  0.81197039  0.56264377  1
  Zn  Zn167  1  0.56036398  0.31238474  0.06090124  1
  Zn  Zn168  1  0.56081081  0.31231616  0.56353960  1
  Zn  Zn169  1  0.56423362  0.81391518  0.06354860  1
  Zn  Zn170  1  0.55963995  0.81457002  0.56588282  1
  O  O171  1  0.12441992  0.11654257  0.11360138  1
  O  O172  1  0.12267226  0.12396795  0.61187274  1
  O  O173  1  0.11813061  0.61722471  0.12193598  1
  O  O174  1  0.12386363  0.61803482  0.61594552  1
  O  O175  1  0.61421954  0.12004403  0.11896459  1
  O  O176  1  0.62404515  0.11824030  0.61023400  1
  O  O177  1  0.61752391  0.61940699  0.12855173  1
  O  O178  1  0.62041999  0.61455043  0.62107280  1
  O  O179  1  0.38526727  0.38012280  0.38292043  1
  O  O180  1  0.37867101  0.37883569  0.88921821  1
  O  O181  1  0.38182269  0.87068639  0.38581782  1
  O  O182  1  0.37538448  0.87861708  0.88204047  1
  O  O183  1  0.89171896  0.36972699  0.37257244  1
  O  O184  1  0.87176640  0.38567599  0.88664498  1
  O  O185  1  0.88626181  0.88165146  0.36883213  1
  O  O186  1  0.87969091  0.88086193  0.88684814  1
  O  O187  1  0.24773765  0.00152236  0.35930477  1
  O  O188  1  0.24953994  -0.00021092  0.86269791  1
  O  O189  1  0.25795016  0.50631760  0.36631729  1
  O  O190  1  0.25460375  0.50667431  0.86388802  1
  O  O191  1  0.75643476  0.00425692  0.37158701  1
  O  O192  1  0.75288043  -0.01014466  0.86886580  1
  O  O193  1  0.74935194  0.50882851  0.36110180  1
  O  O194  1  0.75802245  0.49542806  0.86238631  1
  O  O195  1  0.23848021  0.50725854  0.12836277  1
  O  O196  1  0.24114819  0.50500704  0.63482988  1
  O  O197  1  0.23666723  1.00251976  0.13516592  1
  O  O198  1  0.24461579  0.99126806  0.63640198  1
  O  O199  1  0.73985369  0.50139247  0.13340307  1
  O  O200  1  0.74462488  0.49008264  0.62752876  1
  O  O201  1  0.74630872  0.99587225  0.13536499  1
  O  O202  1  0.73369604  0.99936357  0.63485003  1
  O  O203  1  0.00788787  0.36827642  0.26016887  1
  O  O204  1  0.01709370  0.38170898  0.75135407  1
  O  O205  1  0.01361907  0.87388594  0.26230589  1
  O  O206  1  0.00365906  0.87025995  0.75579318  1
  O  O207  1  0.50178160  0.36390411  0.25646780  1
  O  O208  1  0.50979208  0.37003091  0.75107912  1
  O  O209  1  0.50700844  0.86685485  0.25403174  1
  O  O210  1  0.49695911  0.86742305  0.74657334  1
  O  O211  1  0.50761382  0.14136195  0.24385122  1
  O  O212  1  0.48786996  0.13334238  0.75195954  1
  O  O213  1  0.50014597  0.63116658  0.24476739  1
  O  O214  1  0.48518487  0.62929046  0.73958606  1
  O  O215  1  1.00090104  0.13838372  0.25985087  1
  O  O216  1  0.99283996  0.12331673  0.74271208  1
  O  O217  1  0.99435753  0.62105558  0.24586470  1
  O  O218  1  0.99643962  0.63435353  0.74701165  1
  O  O219  1  0.37085854  0.25735168  0.00725808  1
  O  O220  1  0.37831664  0.26130643  0.51652720  1
  O  O221  1  0.36551099  0.74800465  0.00740312  1
  O  O222  1  0.37637727  0.75769056  0.50993791  1
  O  O223  1  0.86939498  0.25424063  0.00504429  1
  O  O224  1  0.86653269  0.24190154  0.49935196  1
  O  O225  1  0.89162594  0.76822456  0.01268800  1
  O  O226  1  0.87586273  0.74340805  0.51737639  1
  O  O227  1  0.12212408  0.23817900  0.49203764  1
  O  O228  1  0.13250842  0.24473201  1.00539869  1
  O  O229  1  0.12083862  0.73945023  0.49204633  1
  O  O230  1  0.12726116  0.74489480  0.99821040  1
  O  O231  1  0.62732491  0.23677639  0.50387344  1
  O  O232  1  0.62932418  0.24123731  1.00206740  1
  O  O233  1  0.62523741  0.73649769  0.50967198  1
  O  O234  1  0.62009369  0.74344186  0.99869308  1
  O  O235  1  0.49671989  0.24658930  0.13512239  1
  O  O236  1  0.49086948  0.25617228  0.63837051  1
  O  O237  1  0.49523764  0.74282035  0.13418005  1
  O  O238  1  0.48729273  0.74372765  0.63100540  1
  O  O239  1  0.99179789  0.25323202  0.13656149  1
  O  O240  1  1.00429878  0.25338369  0.63767000  1
  O  O241  1  0.99239325  0.74220374  0.13023277  1
  O  O242  1  0.99079518  0.75202036  0.63755455  1
  O  O243  1  0.01016583  0.25930275  0.36962786  1
  O  O244  1  0.00509874  0.24984208  0.86655481  1
  O  O245  1  0.01066040  0.75496528  0.37353609  1
  O  O246  1  0.00105738  0.75658559  0.86415623  1
  O  O247  1  0.50581889  0.26029114  0.35989060  1
  O  O248  1  0.50310883  0.25361008  0.86150988  1
  O  O249  1  0.49702856  0.75791864  0.36171100  1
  O  O250  1  0.50053818  0.74862079  0.85939704  1
  O  O251  1  0.23674447  0.11842970  0.49804624  1
  O  O252  1  0.24261954  0.13332369  1.00072738  1
  O  O253  1  0.23865628  0.61841552  0.49092928  1
  O  O254  1  0.24040329  0.63443846  0.99892379  1
  O  O255  1  0.74358821  0.13557534  0.49580521  1
  O  O256  1  0.73655999  0.13198130  1.00772413  1
  O  O257  1  0.74380135  0.62545841  0.49305802  1
  O  O258  1  0.80018504  0.63902989  0.99182434  1
  O  O259  1  0.25988096  0.36935170  0.00228321  1
  O  O260  1  0.26396429  0.38383234  0.49292441  1
  O  O261  1  0.24478197  0.86051655  0.00005932  1
  O  O262  1  0.25476431  0.87913756  0.51195162  1
  O  O263  1  0.75892703  0.36821402  0.00173776  1
  O  O264  1  0.74902627  0.35914027  0.50549355  1
  O  O265  1  0.76462247  0.88362346  0.01734870  1
  O  O266  1  0.74434922  0.86906703  0.50571890  1
  O  O267  1  0.13177243  0.49300880  0.24371896  1
  O  O268  1  0.13274360  0.49389088  0.74316691  1
  O  O269  1  0.12845814  0.99283350  0.24410694  1
  O  O270  1  0.12890878  0.99380236  0.75011679  1
  O  O271  1  0.63985160  0.50266818  0.23772263  1
  O  O272  1  0.63272026  0.49170504  0.73887449  1
  O  O273  1  0.63159605  0.99287789  0.24469766  1
  O  O274  1  0.62333934  0.99917255  0.74061214  1
  O  O275  1  0.35926662  -0.00609266  0.24165721  1
  O  O276  1  0.36505260  0.01022557  0.74705349  1
  O  O277  1  0.37343731  0.50340641  0.25121843  1
  O  O278  1  0.36922328  0.50692173  0.74743531  1
  O  O279  1  0.87092391  0.00120285  0.25979688  1
  O  O280  1  0.85745836  -0.00698987  0.76541365  1
  O  O281  1  0.86167342  0.50580376  0.23986450  1
  O  O282  1  0.87378930  0.50046479  0.75527496  1
  O  O283  1  0.12054326  0.36832882  0.36410586  1
  O  O284  1  0.12835085  0.38000371  0.86277761  1
  O  O285  1  0.12300675  0.86639010  0.37057545  1
  O  O286  1  0.11601979  0.86908189  0.86963054  1
  O  O287  1  0.61538215  0.38589762  0.37952610  1
  O  O288  1  0.62627040  0.37530638  0.85926128  1
  O  O289  1  0.61834732  0.87700441  0.36368234  1
  O  O290  1  0.60773472  0.88141601  0.85451348  1
  O  O291  1  0.38857725  0.13674530  0.12231189  1
  O  O292  1  0.36924857  0.14106201  0.63491171  1
  O  O293  1  0.38774770  0.63192005  0.13185204  1
  O  O294  1  0.37708479  0.63152683  0.62658479  1
  O  O295  1  0.87508121  0.13582134  0.12716568  1
  O  O296  1  0.88600588  0.08172137  0.63478016  1
  O  O297  1  0.88233184  0.63073714  0.13789526  1
  O  O298  1  0.88401511  0.63446763  0.63495179  1
  O  O299  1  0.26014516  0.24543416  0.11654972  1
  O  O300  1  0.26040870  0.25455570  0.62796643  1
  O  O301  1  0.26051052  0.74135207  0.11752246  1
  O  O302  1  0.25779428  0.75783240  0.62955846  1
  O  O303  1  0.76089236  0.24988048  0.11469432  1
  O  O304  1  0.74918785  0.25577696  0.61078004  1
  O  O305  1  0.76314976  0.75414256  0.12389766  1
  O  O306  1  0.76488303  0.74701790  0.63203685  1
  O  O307  1  0.23770661  0.24839940  0.36815762  1
  O  O308  1  0.24493382  0.25031708  0.89135379  1
  O  O309  1  0.24009736  0.74316298  0.37096575  1
  O  O310  1  0.23960915  0.74730905  0.88244177  1
  O  O311  1  0.75224408  0.24222540  0.38771054  1
  O  O312  1  0.74387962  0.25337905  0.89299328  1
  O  O313  1  0.75460355  0.73338604  0.37459575  1
  O  O314  1  0.73353345  0.78467660  0.89160657  1
  O  O315  1  0.00468545  0.11374336  -0.00158145  1
  O  O316  1  0.00813869  0.11647534  0.50110399  1
  O  O317  1  0.00148943  0.61217547  0.00923899  1
  O  O318  1  0.01395730  0.61488367  0.49643693  1
  O  O319  1  0.50412105  0.11853879  0.00835207  1
  O  O320  1  0.51139215  0.12779701  0.48772174  1
  O  O321  1  0.49531495  0.61331865  0.00859373  1
  O  O322  1  0.50773568  0.61814765  0.50288216  1
  O  O323  1  0.49570672  0.38068840  0.49238442  1
  O  O324  1  0.49635373  0.38804528  0.99861789  1
  O  O325  1  0.49132598  0.86870314  0.48918086  1
  O  O326  1  0.49872515  0.89092723  1.00455265  1
  O  O327  1  1.00869636  0.38185300  0.48546454  1
  O  O328  1  0.99522501  0.38522372  1.00405494  1
  O  O329  1  1.00827527  0.88041542  0.48394726  1
  O  O330  1  0.99618979  0.88727567  0.99577189  1
  O  O331  1  0.49576149  0.49561844  0.37665571  1
  O  O332  1  0.50106053  0.50041730  0.88391515  1
  O  O333  1  0.50287692  0.98500225  0.36630211  1
  O  O334  1  0.49215144  1.00195199  0.88749083  1
  O  O335  1  1.00552235  0.48457501  0.38074403  1
  O  O336  1  0.99315302  0.50154061  0.88520052  1
  O  O337  1  0.99428480  0.99346135  0.38097592  1
  O  O338  1  0.99028792  0.99437240  0.88466260  1
  O  O339  1  0.01181690  -0.00378546  0.11808002  1
  O  O340  1  0.00872941  -0.01960855  0.60394036  1
  O  O341  1  0.01155397  0.50178409  0.12121339  1
  O  O342  1  0.01162169  0.50121287  0.61439276  1
  O  O343  1  0.50351332  0.00975233  0.12402995  1
  O  O344  1  0.50971537  0.00486337  0.62667422  1
  O  O345  1  0.51464953  0.50704926  0.12111515  1
  O  O346  1  0.50889917  0.50352909  0.61918182  1
  O  O347  1  0.24257477  0.38447569  0.25385906  1
  O  O348  1  0.24652363  0.38718946  0.75422346  1
  O  O349  1  0.23909643  0.88376666  0.25380472  1
  O  O350  1  0.24268637  0.88061922  0.74168454  1
  O  O351  1  0.75495111  0.38811562  0.25709140  1
  O  O352  1  0.74455988  0.38096339  0.74120087  1
  O  O353  1  0.74397836  0.87773072  0.24825454  1
  O  O354  1  0.73387636  0.88414391  0.74331751  1
  O  O355  1  0.24625445  0.11021765  0.25228610  1
  O  O356  1  0.25132754  0.11746020  0.75016613  1
  O  O357  1  0.25744188  0.61656262  0.25561057  1
  O  O358  1  0.25984196  0.61975470  0.74860157  1
  O  O359  1  0.74885260  0.11991693  0.25912037  1
  O  O360  1  0.74511682  0.11207094  0.75004229  1
  O  O361  1  0.75751074  0.61789262  0.25608630  1
  O  O362  1  0.76734353  0.60618006  0.73172558  1
  O  O363  1  0.37688131  0.12724291  0.38360354  1
  O  O364  1  0.36802086  0.12613047  0.86180783  1
  O  O365  1  0.37318293  0.61948026  0.36902161  1
  O  O366  1  0.37386366  0.62394234  0.86318527  1
  O  O367  1  0.86398192  0.11651175  0.37224734  1
  O  O368  1  0.87075412  0.10925476  0.88079056  1
  O  O369  1  0.87321586  0.62630221  0.36387336  1
  O  O370  1  0.88217427  0.60953882  0.85684684  1
  O  O371  1  0.12138686  0.38209290  0.13856065  1
  O  O372  1  0.12760758  0.38577060  0.63320429  1
  O  O373  1  0.12132966  0.88143019  0.13643083  1
  O  O374  1  0.13221130  0.87199582  0.63069922  1
  O  O375  1  0.62287659  0.38733011  0.12546299  1
  O  O376  1  0.63063446  0.38072246  0.63207591  1
  O  O377  1  0.63074790  0.88138261  0.13614006  1
  O  O378  1  0.61797119  0.89155821  0.62905872  1
  O  O379  1  0.12035634  0.25556096  0.25243191  1
  O  O380  1  0.13550001  0.26923735  0.75380300  1
  O  O381  1  0.12601787  0.75625832  0.25716551  1
  O  O382  1  0.11625774  0.75464778  0.75379370  1
  O  O383  1  0.61973725  0.25356063  0.24357791  1
  O  O384  1  0.61950226  0.25483636  0.74709720  1
  O  O385  1  0.61724531  0.75861992  0.24398517  1
  O  O386  1  0.60795643  0.76774393  0.72887896  1
  O  O387  1  0.38010814  0.25808192  0.23827668  1
  O  O388  1  0.37765081  0.24872778  0.74245804  1
  O  O389  1  0.38175322  0.74452900  0.24413146  1
  O  O390  1  0.37700658  0.74376240  0.74132889  1
  O  O391  1  0.88287125  0.24812630  0.24199913  1
  O  O392  1  0.86614282  0.24445943  0.74895545  1
  O  O393  1  0.87937944  0.74128642  0.24327130  1
  O  O394  1  0.87888420  0.74291021  0.74905017  1
  O  O395  1  0.38349223  0.49524151  0.49537036  1
  O  O396  1  0.38395492  0.49477194  1.00308379  1
  O  O397  1  0.37521157  0.98546147  0.51321192  1
  O  O398  1  0.38033677  1.00087208  1.00391969  1
  O  O399  1  0.89017772  0.50922651  0.50510980  1
  O  O400  1  0.88293911  0.49039101  0.99599141  1
  O  O401  1  0.88199928  1.00234348  0.48625321  1
  O  O402  1  0.88134336  0.99303302  1.00040401  1
  O  O403  1  0.11980007  0.00454966  0.00768097  1
  O  O404  1  0.11849530  0.01263922  0.49602210  1
  O  O405  1  0.12101427  0.50152716  0.00648112  1
  O  O406  1  0.12170255  0.50445285  0.50560494  1
  O  O407  1  0.61619659  0.00662065  0.00960333  1
  O  O408  1  0.62435847  0.01115598  0.51035126  1
  O  O409  1  0.62249316  0.49884171  0.01195304  1
  O  O410  1  0.62468335  0.50450767  0.50938133  1
  O  O411  1  0.38336568  0.36724458  0.11360776  1
  O  O412  1  0.37544946  0.36652246  0.61793304  1
  O  O413  1  0.37950466  0.85826827  0.12252666  1
  O  O414  1  0.36663900  0.86597013  0.61917737  1
  O  O415  1  0.88075426  0.36511054  0.11363884  1
  O  O416  1  0.86542612  0.38015378  0.62336373  1
  O  O417  1  0.87432206  0.86760229  0.12644661  1
  O  O418  1  0.87180292  0.86158961  0.63370305  1
  O  O419  1  0.12691159  0.13343081  0.38563938  1
  O  O420  1  0.12730865  0.12392986  0.89177699  1
  O  O421  1  0.13123911  0.63111038  0.37953789  1
  O  O422  1  0.12319244  0.63147223  0.88265032  1
  O  O423  1  0.63825361  0.11672008  0.38858091  1
  O  O424  1  0.61898617  0.12428447  0.88911139  1
  O  O425  1  0.63465314  0.61939391  0.38700475  1
  O  O426  1  0.64012054  0.64071394  0.82013114  1
