# generated using pymatgen
data_V85Zn86O256
_symmetry_space_group_name_H-M   'P 1'
_cell_length_a   16.94697222
_cell_length_b   16.93762608
_cell_length_c   16.94158189
_cell_angle_alpha   89.98627843
_cell_angle_beta   89.97726552
_cell_angle_gamma   90.00091453
_symmetry_Int_Tables_number   1
_chemical_formula_structural   V85Zn86O256
_chemical_formula_sum   'V85 Zn86 O256'
_cell_volume   4862.93619553
_cell_formula_units_Z   1
loop_
 _symmetry_equiv_pos_site_id
 _symmetry_equiv_pos_as_xyz
  1  'x, y, z'
loop_
 _atom_site_type_symbol
 _atom_site_label
 _atom_site_symmetry_multiplicity
 _atom_site_fract_x
 _atom_site_fract_y
 _atom_site_fract_z
 _atom_site_occupancy
  V  V0  1  0.50233752  0.87496176  0.37439686  1
  V  V1  1  0.87127278  0.74819290  0.12786669  1
  V  V2  1  -0.00122602  0.50068956  -0.00130484  1
  V  V3  1  0.62525124  0.12543765  0.50100438  1
  V  V4  1  0.37510425  0.87473721  0.50054303  1
  V  V5  1  0.62950550  0.50540949  0.11865094  1
  V  V6  1  0.25409752  0.26121818  0.01516288  1
  V  V7  1  0.25074694  0.12744825  0.87835264  1
  V  V8  1  0.12490399  0.00152219  0.63166280  1
  V  V9  1  0.49994671  0.37328491  0.37194985  1
  V  V10  1  0.25752445  0.49858564  0.74708825  1
  V  V11  1  0.37457215  0.13247532  0.24731056  1
  V  V12  1  0.87972743  0.61815459  0.74110493  1
  V  V13  1  0.74835042  0.25766031  0.50629735  1
  V  V14  1  0.50269417  0.87829797  0.87144091  1
  V  V15  1  0.62857429  0.63103215  0.50299557  1
  V  V16  1  0.37146898  0.25029162  0.62418960  1
  V  V17  1  0.38095164  0.00196343  0.88483429  1
  V  V18  1  0.86794463  0.87215614  0.49854518  1
  V  V19  1  0.74990798  0.73692179  -0.00342032  1
  V  V20  1  0.12127359  -0.00124443  0.12708059  1
  V  V21  1  0.63102716  0.75184426  0.37337338  1
  V  V22  1  0.75244637  0.00102922  0.74481058  1
  V  V23  1  0.75118506  0.13213357  0.86924742  1
  V  V24  1  0.75526592  0.50157105  0.24465590  1
  V  V25  1  -0.00352564  0.24105431  0.75033742  1
  V  V26  1  0.87948433  -0.00465315  0.86683560  1
  V  V27  1  0.82389729  0.18259047  0.19059241  1
  V  V28  1  -0.00012764  -0.00860019  -0.00278504  1
  V  V29  1  0.25062033  0.87449291  0.63361566  1
  V  V30  1  0.00462859  0.51295074  0.50283644  1
  V  V31  1  0.12583830  0.24985498  0.87442815  1
  V  V32  1  0.49999316  0.00701760  0.50207162  1
  V  V33  1  0.86690425  0.87260392  -0.00114256  1
  V  V34  1  0.12563967  0.62384083  -0.00150072  1
  V  V35  1  0.24742362  0.00501895  0.25676700  1
  V  V36  1  0.12085558  0.76292897  0.87095995  1
  V  V37  1  0.62191485  0.13349807  -0.00317004  1
  V  V38  1  0.12386502  0.12518349  0.00095577  1
  V  V39  1  0.87263509  0.36642275  0.01344869  1
  V  V40  1  0.74696984  0.86089931  0.62292389  1
  V  V41  1  0.37569630  0.50236690  0.37423085  1
  V  V42  1  0.75243614  0.62774730  0.37281404  1
  V  V43  1  0.49855378  0.62027191  0.62862286  1
  V  V44  1  0.37113037  0.00716151  0.37723725  1
  V  V45  1  -0.00417296  0.74254382  0.25116583  1
  V  V46  1  0.74768226  -0.00916935  0.23852238  1
  V  V47  1  0.12372867  0.87301928  0.25325901  1
  V  V48  1  0.56048679  -0.04792510  0.05851000  1
  V  V49  1  0.37898269  0.12722317  0.75348449  1
  V  V50  1  0.88396689  0.74553666  0.62064320  1
  V  V51  1  0.00026669  0.00344732  0.50114277  1
  V  V52  1  0.49584689  0.13125069  0.11730619  1
  V  V53  1  0.24576642  0.62394162  0.37949144  1
  V  V54  1  0.25037600  -0.00217648  0.75522903  1
  V  V55  1  0.25742035  0.62343615  0.86970213  1
  V  V56  1  -0.00076315  0.13117795  0.13015079  1
  V  V57  1  0.87459314  0.00630455  0.36865294  1
  V  V58  1  0.36683092  0.36979022  0.49841919  1
  V  V59  1  0.63775043  0.48642012  0.62479632  1
  V  V60  1  0.38926073  0.38029141  0.00588976  1
  V  V61  1  0.00350164  0.37147827  0.37643529  1
  V  V62  1  0.87248548  0.24566577  0.62858355  1
  V  V63  1  0.13673366  0.13147979  0.49530299  1
  V  V64  1  0.12747785  0.49141465  0.12367660  1
  V  V65  1  0.62372299  0.25393289  0.37522707  1
  V  V66  1  0.75240451  0.12697629  0.37437280  1
  V  V67  1  0.49998212  0.74662981  0.75053055  1
  V  V68  1  0.50012322  0.49919044  0.50004041  1
  V  V69  1  0.37484900  0.74266668  0.62697712  1
  V  V70  1  0.49939355  0.62167826  0.12055284  1
  V  V71  1  0.12382591  0.74813467  0.38101859  1
  V  V72  1  -0.00070436  0.37403445  0.87215875  1
  V  V73  1  0.87405292  0.37952006  0.50710275  1
  V  V74  1  0.87766866  0.50567150  0.37180975  1
  V  V75  1  0.25007864  0.87331482  0.12716345  1
  V  V76  1  0.62900306  0.37764648  0.24319281  1
  V  V77  1  -0.00062352  0.87532326  0.37702417  1
  V  V78  1  0.63474530  0.37338050  0.76353807  1
  V  V79  1  0.86917345  0.49937798  0.87081102  1
  V  V80  1  0.12192192  0.51264247  0.62425740  1
  V  V81  1  0.25314668  0.74884748  0.00067505  1
  V  V82  1  0.24969515  0.49734232  0.24543053  1
  V  V83  1  0.50187439  0.25958853  0.76286049  1
  V  V84  1  0.23813600  0.74777993  0.50379842  1
  Zn  Zn85  1  0.50181533  0.12628392  0.62966669  1
  Zn  Zn86  1  0.00168436  0.75583665  0.75559230  1
  Zn  Zn87  1  0.51352428  0.50318571  -0.01452492  1
  Zn  Zn88  1  0.37567908  0.62753248  0.25083578  1
  Zn  Zn89  1  0.49398509  0.25552364  0.24527617  1
  Zn  Zn90  1  0.74751240  0.61916771  0.86718398  1
  Zn  Zn91  1  0.12610079  0.36851946  0.24762454  1
  Zn  Zn92  1  -0.00108000  0.24650841  0.25375178  1
  Zn  Zn93  1  0.38290047  0.49303571  0.86962412  1
  Zn  Zn94  1  0.75373558  0.24908403  0.00658219  1
  Zn  Zn95  1  0.62470274  0.87764448  0.24030202  1
  Zn  Zn96  1  -0.00164882  0.12505794  0.62688670  1
  Zn  Zn97  1  0.13901455  0.24974149  0.37477507  1
  Zn  Zn98  1  -0.00170270  0.62360808  0.13050804  1
  Zn  Zn99  1  0.12392480  0.37551312  0.74432011  1
  Zn  Zn100  1  0.37411312  0.74765843  0.13009082  1
  Zn  Zn101  1  0.24406238  0.37036383  0.62327598  1
  Zn  Zn102  1  0.62359389  0.74298796  0.87598171  1
  Zn  Zn103  1  0.62520839  0.87586055  0.74722417  1
  Zn  Zn104  1  0.49932028  0.74603643  0.25186270  1
  Zn  Zn105  1  0.62518041  -0.00092224  0.62555876  1
  Zn  Zn106  1  0.37909824  0.87642939  0.00506072  1
  Zn  Zn107  1  0.18316811  0.18680180  0.19247855  1
  Zn  Zn108  1  0.18760854  0.18604217  0.68905283  1
  Zn  Zn109  1  0.18510406  0.68273642  0.18910746  1
  Zn  Zn110  1  0.18731442  0.68513710  0.69166891  1
  Zn  Zn111  1  0.65995576  0.18069247  0.18462239  1
  Zn  Zn112  1  0.68568060  0.19097632  0.68898107  1
  Zn  Zn113  1  0.68799422  0.68801237  0.18789775  1
  Zn  Zn114  1  0.68602268  0.68080919  0.69659728  1
  Zn  Zn115  1  0.31038021  0.31761230  0.30806618  1
  Zn  Zn116  1  0.31269083  0.31637787  0.81654099  1
  Zn  Zn117  1  0.31389664  0.81241636  0.31412974  1
  Zn  Zn118  1  0.31710123  0.81088904  0.81483719  1
  Zn  Zn119  1  0.81006288  0.32214434  0.32096130  1
  Zn  Zn120  1  0.81454301  0.31483553  0.81175634  1
  Zn  Zn121  1  0.81190117  0.81509010  0.31102472  1
  Zn  Zn122  1  0.81665900  0.81161228  0.80896350  1
  Zn  Zn123  1  0.18503430  0.43910751  0.43921737  1
  Zn  Zn124  1  0.18967546  0.43672281  0.93311444  1
  Zn  Zn125  1  0.18673547  0.93652423  0.44364984  1
  Zn  Zn126  1  0.19020970  0.93795262  0.94070666  1
  Zn  Zn127  1  0.68799657  0.44155905  0.43688152  1
  Zn  Zn128  1  0.69386670  0.43248697  0.93989652  1
  Zn  Zn129  1  0.68869586  0.94038542  0.43510453  1
  Zn  Zn130  1  0.69359723  0.93272434  0.92786157  1
  Zn  Zn131  1  0.30971142  0.06437487  0.06555518  1
  Zn  Zn132  1  0.31497368  0.06151014  0.56975923  1
  Zn  Zn133  1  0.31523822  0.55881974  0.06151033  1
  Zn  Zn134  1  0.31017812  0.56080432  0.56220590  1
  Zn  Zn135  1  0.80873816  0.05740155  0.05229804  1
  Zn  Zn136  1  0.81267631  0.06322379  0.56128541  1
  Zn  Zn137  1  0.81880669  0.56362637  0.06359443  1
  Zn  Zn138  1  0.81108231  0.56451741  0.55957666  1
  Zn  Zn139  1  0.43576127  0.43920177  0.18205655  1
  Zn  Zn140  1  0.43984653  0.43446055  0.68689976  1
  Zn  Zn141  1  0.43146762  0.93616834  0.19460190  1
  Zn  Zn142  1  0.43555516  0.93846782  0.68997375  1
  Zn  Zn143  1  0.94230383  0.43830302  0.19037533  1
  Zn  Zn144  1  0.94142336  0.43524667  0.68568500  1
  Zn  Zn145  1  0.93415446  0.93366123  0.18539412  1
  Zn  Zn146  1  0.93814713  0.93212019  0.68947427  1
  Zn  Zn147  1  0.06123642  0.06663539  0.31391631  1
  Zn  Zn148  1  0.06228620  0.06105595  0.81375222  1
  Zn  Zn149  1  0.06562620  0.56137145  0.31578013  1
  Zn  Zn150  1  0.06243742  0.56682778  0.80909881  1
  Zn  Zn151  1  0.56152497  0.06356580  0.31151346  1
  Zn  Zn152  1  0.56663291  0.06441151  0.81233194  1
  Zn  Zn153  1  0.56411448  0.56298692  0.30867221  1
  Zn  Zn154  1  0.56680102  0.55823096  0.81018240  1
  Zn  Zn155  1  0.31562411  0.18837363  0.43829373  1
  Zn  Zn156  1  0.43452982  0.19430381  0.94125484  1
  Zn  Zn157  1  0.43707977  0.68787204  0.44009771  1
  Zn  Zn158  1  0.43826490  0.68413925  0.93870866  1
  Zn  Zn159  1  0.93773962  0.18821182  0.44122693  1
  Zn  Zn160  1  0.93515008  0.18187417  0.93770047  1
  Zn  Zn161  1  0.93409248  0.69070737  0.43965116  1
  Zn  Zn162  1  0.93746195  0.68595167  0.93284658  1
  Zn  Zn163  1  0.06093182  0.31132637  0.05982379  1
  Zn  Zn164  1  0.06103753  0.31642024  0.56419879  1
  Zn  Zn165  1  0.06182773  0.81048491  0.06244191  1
  Zn  Zn166  1  0.05079527  0.82756621  0.59156162  1
  Zn  Zn167  1  0.56517895  0.31254138  0.06321457  1
  Zn  Zn168  1  0.55280241  0.30949633  0.56316859  1
  Zn  Zn169  1  0.56665737  0.78963412  0.06171604  1
  Zn  Zn170  1  0.56293351  0.81232736  0.56104191  1
  O  O171  1  0.11715983  0.11640780  0.12055038  1
  O  O172  1  0.12556311  0.11697079  0.61542687  1
  O  O173  1  0.12075422  0.62074904  0.11108106  1
  O  O174  1  0.12823447  0.61238730  0.62505966  1
  O  O175  1  0.60981500  0.11235762  0.11138319  1
  O  O176  1  0.62435059  0.12496600  0.61176072  1
  O  O177  1  0.61447520  0.61721671  0.13015161  1
  O  O178  1  0.62038038  0.61602871  0.61959290  1
  O  O179  1  0.38321251  0.38242487  0.37887345  1
  O  O180  1  0.36300724  0.37749867  0.89768652  1
  O  O181  1  0.38321831  0.88342686  0.38095343  1
  O  O182  1  0.38720849  0.88079913  0.88123073  1
  O  O183  1  0.88161886  0.38789709  0.38557085  1
  O  O184  1  0.88574338  0.37966588  0.87994122  1
  O  O185  1  0.87753234  0.88469566  0.38165299  1
  O  O186  1  0.87567201  0.88570376  0.88119316  1
  O  O187  1  0.25829081  -0.00930690  0.36778872  1
  O  O188  1  0.25603902  0.00557164  0.87216498  1
  O  O189  1  0.25296526  0.50876960  0.37136577  1
  O  O190  1  0.24876041  0.50769078  0.86482997  1
  O  O191  1  0.75738688  0.00849434  0.36647765  1
  O  O192  1  0.75827146  0.00279417  0.86128099  1
  O  O193  1  0.75841325  0.50709417  0.36793456  1
  O  O194  1  0.76636401  0.49647182  0.87623201  1
  O  O195  1  0.23894542  0.51036927  0.13333186  1
  O  O196  1  0.24032883  0.49941324  0.63083514  1
  O  O197  1  0.24196660  0.99173290  0.13278237  1
  O  O198  1  0.24761550  0.99333821  0.63471574  1
  O  O199  1  0.74709220  0.51053912  0.13679870  1
  O  O200  1  0.73584177  0.49897439  0.61871710  1
  O  O201  1  0.75660707  1.00444605  0.14034190  1
  O  O202  1  0.75383416  0.99639233  0.63543283  1
  O  O203  1  0.00177133  0.37241920  0.26231512  1
  O  O204  1  0.00148938  0.36429603  0.75826001  1
  O  O205  1  0.00540487  0.86804712  0.25748149  1
  O  O206  1  0.01543913  0.85464858  0.70200666  1
  O  O207  1  0.50635626  0.37853284  0.25550984  1
  O  O208  1  0.50827201  0.36433961  0.74742727  1
  O  O209  1  0.50395704  0.87881443  0.26455606  1
  O  O210  1  0.49958492  0.86801316  0.75711027  1
  O  O211  1  0.49129915  0.12418852  0.24164586  1
  O  O212  1  0.49691889  0.13593065  0.75091339  1
  O  O213  1  0.49749137  0.62381795  0.23881166  1
  O  O214  1  0.50135117  0.63161162  0.73439123  1
  O  O215  1  0.99766816  0.12453387  0.23932617  1
  O  O216  1  1.00189530  0.13691803  0.74932079  1
  O  O217  1  1.00483079  0.63913654  0.25372945  1
  O  O218  1  0.98579875  0.63411720  0.75397699  1
  O  O219  1  0.36092812  0.26074145  0.00029120  1
  O  O220  1  0.37751730  0.25759644  0.51002898  1
  O  O221  1  0.36267633  0.75294127  0.00300701  1
  O  O222  1  0.36915931  0.75579132  0.51090176  1
  O  O223  1  0.87826242  0.26236704  -0.00009249  1
  O  O224  1  0.86678384  0.25940218  0.50438911  1
  O  O225  1  0.87050280  0.75511545  0.00284952  1
  O  O226  1  0.86908299  0.76491881  0.49892275  1
  O  O227  1  0.11891366  0.23293795  0.50247878  1
  O  O228  1  0.13041077  0.24396360  0.99382269  1
  O  O229  1  0.13573991  0.75864524  0.50139408  1
  O  O230  1  0.13369710  0.74374427  0.99383708  1
  O  O231  1  0.62946853  0.24637706  0.49606494  1
  O  O232  1  0.63323981  0.23804352  1.00614691  1
  O  O233  1  0.62161093  0.73702223  0.49405299  1
  O  O234  1  0.64524777  0.74915111  0.99483938  1
  O  O235  1  0.50472390  0.23639838  0.12862073  1
  O  O236  1  0.48739281  0.24698604  0.63417681  1
  O  O237  1  0.49669484  0.73669514  0.12902284  1
  O  O238  1  0.49206955  0.74373440  0.62695832  1
  O  O239  1  1.00323963  0.23470191  0.12447142  1
  O  O240  1  0.99246166  0.24919808  0.63313700  1
  O  O241  1  0.99622364  0.74869246  0.13540921  1
  O  O242  1  0.98203033  0.73589365  0.60092145  1
  O  O243  1  -0.00286745  0.26203950  0.37750441  1
  O  O244  1  0.00275588  0.25373199  0.87028552  1
  O  O245  1  0.00300102  0.75644066  0.37145987  1
  O  O246  1  0.01636578  0.75183811  0.87869378  1
  O  O247  1  0.50689708  0.26760618  0.37078587  1
  O  O248  1  0.49734110  0.25012647  0.86154827  1
  O  O249  1  0.50950587  0.75847266  0.37774093  1
  O  O250  1  0.49734455  0.75566724  0.86635304  1
  O  O251  1  0.24117493  0.12035920  0.50236355  1
  O  O252  1  0.24482147  0.13292377  0.99579309  1
  O  O253  1  0.25469200  0.63608887  0.49248679  1
  O  O254  1  0.24356787  0.63139108  0.99607422  1
  O  O255  1  0.74231330  0.13185235  0.49412754  1
  O  O256  1  0.74247878  0.12600884  0.98968221  1
  O  O257  1  0.73999587  0.61917332  0.48556076  1
  O  O258  1  0.75892837  0.63461454  0.99229090  1
  O  O259  1  0.24228741  0.36215667  0.00336451  1
  O  O260  1  0.26433435  0.38276900  0.50111306  1
  O  O261  1  0.24963018  0.86653418  0.01082387  1
  O  O262  1  0.25900753  0.86737432  0.50723566  1
  O  O263  1  0.76766476  0.36855661  0.00069548  1
  O  O264  1  0.75921312  0.36794849  0.49217155  1
  O  O265  1  0.76266160  0.86917624  -0.00214143  1
  O  O266  1  0.75871031  0.88663078  0.50958038  1
  O  O267  1  0.12998632  0.50188208  0.23952452  1
  O  O268  1  0.12867442  0.50001615  0.73864526  1
  O  O269  1  0.13095298  0.99460929  0.24948801  1
  O  O270  1  0.13109670  1.00568686  0.73896600  1
  O  O271  1  0.63459012  0.49516019  0.24239846  1
  O  O272  1  0.62103769  0.48237452  0.73377454  1
  O  O273  1  0.64279887  1.00059416  0.25621862  1
  O  O274  1  0.63581246  0.99687508  0.74584480  1
  O  O275  1  0.36641710  0.00638634  0.25958690  1
  O  O276  1  0.37033958  0.00637090  0.76187887  1
  O  O277  1  0.36692386  0.50159318  0.25688749  1
  O  O278  1  0.36160174  0.49457429  0.74687628  1
  O  O279  1  0.86416353  -0.00690520  0.25946734  1
  O  O280  1  0.87128023  -0.00460730  0.75609793  1
  O  O281  1  0.86852260  0.49654951  0.25953055  1
  O  O282  1  0.88403765  0.50880497  0.75444414  1
  O  O283  1  0.11366232  0.37463678  0.37733024  1
  O  O284  1  0.11200150  0.36884647  0.87555645  1
  O  O285  1  0.11880415  0.86897794  0.37408961  1
  O  O286  1  0.13133940  0.86142949  0.87869303  1
  O  O287  1  0.61885845  0.37613477  0.36628985  1
  O  O288  1  0.62869487  0.37828759  0.86271506  1
  O  O289  1  0.61905815  0.86704312  0.37884289  1
  O  O290  1  0.61305787  0.86962855  0.87240103  1
  O  O291  1  0.38380247  0.11729521  0.13448700  1
  O  O292  1  0.37735264  0.13114182  0.63616760  1
  O  O293  1  0.38690214  0.62312321  0.12730148  1
  O  O294  1  0.38338390  0.63353070  0.61812772  1
  O  O295  1  0.87945110  0.12351189  0.12512437  1
  O  O296  1  0.87843804  0.14097199  0.61560781  1
  O  O297  1  0.88267770  0.64132341  0.11996338  1
  O  O298  1  0.87096239  0.62944541  0.63193161  1
  O  O299  1  0.24386598  0.24457812  0.11239740  1
  O  O300  1  0.26522287  0.25180400  0.63516087  1
  O  O301  1  0.24775481  0.75581372  0.11930330  1
  O  O302  1  0.25477452  0.75495776  0.62315870  1
  O  O303  1  0.75687344  0.23277100  0.13303368  1
  O  O304  1  0.75506905  0.24685756  0.61311875  1
  O  O305  1  0.75763202  0.74480386  0.11134508  1
  O  O306  1  0.75480401  0.75846845  0.62805500  1
  O  O307  1  0.25178954  0.25663613  0.37953274  1
  O  O308  1  0.24229534  0.24377571  0.88112452  1
  O  O309  1  0.24546837  0.74552421  0.38504756  1
  O  O310  1  0.24477701  0.74407860  0.88206645  1
  O  O311  1  0.74528958  0.24559126  0.38498551  1
  O  O312  1  0.75932827  0.23362975  0.87509556  1
  O  O313  1  0.73970817  0.74458023  0.37071086  1
  O  O314  1  0.75602309  0.75196095  0.88786394  1
  O  O315  1  0.00323820  0.11379968  0.00787030  1
  O  O316  1  0.00697836  0.11323754  0.50083902  1
  O  O317  1  0.00664632  0.61259060  -0.00478954  1
  O  O318  1  -0.00141207  0.61123368  0.48994308  1
  O  O319  1  0.50590301  0.12886269  0.00376617  1
  O  O320  1  0.50763801  0.11248757  0.50025863  1
  O  O321  1  0.50105991  0.62468842  0.01435347  1
  O  O322  1  0.50742110  0.62006364  0.50861328  1
  O  O323  1  0.49141769  0.38043365  0.49115160  1
  O  O324  1  0.49266977  0.37588427  1.00143284  1
  O  O325  1  0.49665611  0.88469957  0.49183855  1
  O  O326  1  0.50550785  0.88055331  0.99963925  1
  O  O327  1  0.99189385  0.38348251  0.49328234  1
  O  O328  1  0.99362031  0.38268460  0.99303488  1
  O  O329  1  0.99271177  0.88777150  0.49783448  1
  O  O330  1  0.99520014  0.88701910  1.00464758  1
  O  O331  1  0.49782630  0.49363927  0.37981007  1
  O  O332  1  0.49477511  0.50749513  0.87493752  1
  O  O333  1  0.49314279  0.99506401  0.38211575  1
  O  O334  1  0.49268400  0.99175022  0.86938696  1
  O  O335  1  0.99444559  0.49390669  0.37983567  1
  O  O336  1  0.99638861  0.49178781  0.88029614  1
  O  O337  1  0.99307573  0.99559932  0.38031309  1
  O  O338  1  0.99172299  1.00483116  0.88365571  1
  O  O339  1  0.00350432  0.00522496  0.11969845  1
  O  O340  1  0.00858750  0.00367243  0.61791271  1
  O  O341  1  0.00609809  0.50433852  0.11593160  1
  O  O342  1  0.01217247  0.49911292  0.61789497  1
  O  O343  1  0.49441315  0.00273257  0.11888695  1
  O  O344  1  0.50063645  0.00166648  0.61647838  1
  O  O345  1  0.51003730  0.50914741  0.12169122  1
  O  O346  1  0.50520243  0.50606663  0.61891472  1
  O  O347  1  0.24450787  0.39265685  0.25196605  1
  O  O348  1  0.24415777  0.38451854  0.74968974  1
  O  O349  1  0.24473200  0.88249231  0.24533957  1
  O  O350  1  0.25736217  0.88035800  0.74288105  1
  O  O351  1  0.74124874  0.38837512  0.25663029  1
  O  O352  1  0.73373236  0.36559181  0.74803542  1
  O  O353  1  0.74498712  0.88639921  0.24868085  1
  O  O354  1  0.74989000  0.88137469  0.73968315  1
  O  O355  1  0.25646587  0.11101549  0.24340913  1
  O  O356  1  0.25771350  0.11982622  0.75993898  1
  O  O357  1  0.25084664  0.61710184  0.26023928  1
  O  O358  1  0.24732355  0.61461635  0.75918750  1
  O  O359  1  0.75545512  0.12556938  0.25018832  1
  O  O360  1  0.74531458  0.11904565  0.76059441  1
  O  O361  1  0.74387648  0.61699273  0.26420395  1
  O  O362  1  0.77370344  0.63078429  0.75041297  1
  O  O363  1  0.37426372  0.11209450  0.36915230  1
  O  O364  1  0.37154053  0.11949781  0.87332908  1
  O  O365  1  0.36611246  0.61960490  0.37645529  1
  O  O366  1  0.35956403  0.62391780  0.88054476  1
  O  O367  1  0.87009859  0.11383534  0.38155801  1
  O  O368  1  0.86077972  0.10980522  0.88219555  1
  O  O369  1  0.86696871  0.61496806  0.37985516  1
  O  O370  1  0.87529874  0.61464959  0.86485321  1
  O  O371  1  0.11700137  0.38834942  0.12515762  1
  O  O372  1  0.12741664  0.38498298  0.62533650  1
  O  O373  1  0.13306061  0.87830550  0.13111070  1
  O  O374  1  0.14517604  0.88973026  0.61222343  1
  O  O375  1  0.62243975  0.38243689  0.13774416  1
  O  O376  1  0.62199804  0.38535607  0.61757254  1
  O  O377  1  0.61128109  0.88603443  0.11819393  1
  O  O378  1  0.63434457  0.87825031  0.62176071  1
  O  O379  1  0.11903337  0.25105491  0.25727171  1
  O  O380  1  0.11730105  0.25046470  0.75806968  1
  O  O381  1  0.11905341  0.75541936  0.25861306  1
  O  O382  1  0.12737553  0.74525728  0.76838982  1
  O  O383  1  0.62263612  0.25986686  0.25725867  1
  O  O384  1  0.61212631  0.26179282  0.74355750  1
  O  O385  1  0.62178548  0.75676770  0.25844289  1
  O  O386  1  0.60878319  0.75596129  0.74253480  1
  O  O387  1  0.37427669  0.23589372  0.25331145  1
  O  O388  1  0.38505850  0.24902964  0.74838463  1
  O  O389  1  0.37925096  0.74771914  0.24917848  1
  O  O390  1  0.38531275  0.75379705  0.73719583  1
  O  O391  1  0.87297198  0.24977483  0.25035183  1
  O  O392  1  0.88225028  0.25531890  0.73963714  1
  O  O393  1  0.88318915  0.75757957  0.24155524  1
  O  O394  1  0.88164885  0.74463004  0.73735111  1
  O  O395  1  0.38176666  0.49416967  0.49389368  1
  O  O396  1  0.37831080  0.48887304  0.99768472  1
  O  O397  1  0.38118122  0.99729203  0.49540135  1
  O  O398  1  0.36763401  0.99773566  0.98788938  1
  O  O399  1  0.88146534  0.49538684  0.49563269  1
  O  O400  1  0.88311747  0.49228380  0.99278031  1
  O  O401  1  0.88235996  0.99450891  0.49355435  1
  O  O402  1  0.88096420  0.99015160  0.99310049  1
  O  O403  1  0.11812310  0.00423825  0.00510990  1
  O  O404  1  0.11951508  0.00844328  0.50759190  1
  O  O405  1  0.12003370  0.50526695  0.00359809  1
  O  O406  1  0.11805946  0.49933246  0.51256636  1
  O  O407  1  0.62555589  0.00292850  -0.00248224  1
  O  O408  1  0.61875078  0.00925606  0.49918266  1
  O  O409  1  0.63114228  0.49210362  0.01500165  1
  O  O410  1  0.61927124  0.50753619  0.50720725  1
  O  O411  1  0.37316943  0.37788861  0.10739144  1
  O  O412  1  0.37472000  0.36807215  0.61467975  1
  O  O413  1  0.36181221  0.87467517  0.12506897  1
  O  O414  1  0.36702673  0.86938186  0.62036079  1
  O  O415  1  0.88308231  0.37795960  0.11116938  1
  O  O416  1  0.87952457  0.36718252  0.61293855  1
  O  O417  1  0.88081288  0.86078211  0.11252246  1
  O  O418  1  0.86629907  0.86631554  0.61536510  1
  O  O419  1  0.12437287  0.12393933  0.39177498  1
  O  O420  1  0.12999381  0.12920581  0.88246456  1
  O  O421  1  0.13740122  0.63210488  0.37522318  1
  O  O422  1  0.13328392  0.62922604  0.88606677  1
  O  O423  1  0.62888649  0.13217555  0.38393116  1
  O  O424  1  0.64025478  0.11865046  0.88318738  1
  O  O425  1  0.62912973  0.63224625  0.38175732  1
  O  O426  1  0.63711088  0.63349715  0.85041265  1
