# generated using pymatgen
data_V85Zn86O256
_symmetry_space_group_name_H-M   'P 1'
_cell_length_a   16.94111579
_cell_length_b   16.95218270
_cell_length_c   16.94361939
_cell_angle_alpha   89.95446176
_cell_angle_beta   89.91350689
_cell_angle_gamma   90.04152562
_symmetry_Int_Tables_number   1
_chemical_formula_structural   V85Zn86O256
_chemical_formula_sum   'V85 Zn86 O256'
_cell_volume   4866.01088050
_cell_formula_units_Z   1
loop_
 _symmetry_equiv_pos_site_id
 _symmetry_equiv_pos_as_xyz
  1  'x, y, z'
loop_
 _atom_site_type_symbol
 _atom_site_label
 _atom_site_symmetry_multiplicity
 _atom_site_fract_x
 _atom_site_fract_y
 _atom_site_fract_z
 _atom_site_occupancy
  V  V0  1  0.50577538  0.37716228  0.87154912  1
  V  V1  1  0.25211074  0.87780418  0.62806769  1
  V  V2  1  0.74760341  0.37458217  0.12427363  1
  V  V3  1  0.37703312  0.00466126  0.37431165  1
  V  V4  1  0.62337188  0.87394465  0.74975670  1
  V  V5  1  0.24673727  0.37072319  0.13153539  1
  V  V6  1  0.49862903  0.75087758  0.25073063  1
  V  V7  1  0.50187126  0.87603696  0.37809859  1
  V  V8  1  0.25145571  0.75061864  0.50087667  1
  V  V9  1  0.37241566  0.13797533  0.74922557  1
  V  V10  1  0.49378146  0.00112767  -0.00161002  1
  V  V11  1  0.12055013  0.73745628  0.87221108  1
  V  V12  1  0.74758616  0.37232358  0.63927976  1
  V  V13  1  0.75644244  0.86916789  0.11029550  1
  V  V14  1  0.87455287  0.74942540  0.10900612  1
  V  V15  1  0.11915969  0.37512954  0.74597914  1
  V  V16  1  0.87032878  -0.00982631  0.38339444  1
  V  V17  1  0.25791794  0.00054980  0.75914047  1
  V  V18  1  0.50706661  0.25268613  0.74809052  1
  V  V19  1  0.12233485  0.74922062  0.37745502  1
  V  V20  1  0.48890141  0.87503235  0.87469799  1
  V  V21  1  0.36883363  0.76022897  0.12418028  1
  V  V22  1  0.87747474  0.62694970  0.24934861  1
  V  V23  1  0.87690386  0.24852963  0.12607728  1
  V  V24  1  0.88137236  0.37333644  -0.00814961  1
  V  V25  1  0.49604246  0.74293693  0.75200671  1
  V  V26  1  0.25213166  -0.00329279  0.24873762  1
  V  V27  1  0.12652622  0.12504119  0.49745227  1
  V  V28  1  0.75397423  0.87345089  0.62236702  1
  V  V29  1  0.12334281  0.49851986  0.12018748  1
  V  V30  1  0.49894333  0.62914903  0.12399192  1
  V  V31  1  0.87706676  0.49106883  0.37759046  1
  V  V32  1  0.74297444  0.24217417  0.49709371  1
  V  V33  1  0.75245683  0.62267673  0.37716120  1
  V  V34  1  0.49646859  0.12663614  0.62041137  1
  V  V35  1  0.62824223  0.49473908  0.63874432  1
  V  V36  1  0.62793457  -0.00098128  0.11674459  1
  V  V37  1  0.74761233  0.24410688  0.00049963  1
  V  V38  1  0.62389344  0.50015219  0.12849569  1
  V  V39  1  0.37822612  0.13944732  0.22772487  1
  V  V40  1  0.89041179  0.61889929  0.74657174  1
  V  V41  1  0.74894176  0.50082373  0.24948409  1
  V  V42  1  0.51315283  0.37744113  0.35597883  1
  V  V43  1  0.37701008  0.74431441  0.62827296  1
  V  V44  1  0.12452563  0.87310972  0.24848927  1
  V  V45  1  0.61972773  0.00330183  0.62124562  1
  V  V46  1  0.38061115  0.36216354  0.50207501  1
  V  V47  1  0.87726917  0.12347827  0.75280768  1
  V  V48  1  0.26074036  0.12532932  0.87963661  1
  V  V49  1  0.38024454  0.88314299  0.50226628  1
  V  V50  1  0.00036764  0.12272910  0.12842246  1
  V  V51  1  0.76025270  0.74832603  0.50376679  1
  V  V52  1  0.37254526  0.62739314  0.24968901  1
  V  V53  1  0.12870430  0.25708013  0.37514341  1
  V  V54  1  0.63242137  0.75179615  0.87818074  1
  V  V55  1  0.00357432  0.62295401  0.11912684  1
  V  V56  1  0.37544348  0.50009492  0.37478445  1
  V  V57  1  -0.00208732  0.87148573  0.88299269  1
  V  V58  1  0.49671544  0.50768226  -0.00195559  1
  V  V59  1  0.24902171  0.50407471  0.73726764  1
  V  V60  1  0.12597406  0.00054995  0.62670479  1
  V  V61  1  0.37288005  0.50989377  0.86680603  1
  V  V62  1  0.62963041  0.87333698  0.24849352  1
  V  V63  1  0.00283326  0.49740439  -0.01345817  1
  V  V64  1  0.62712613  0.74947170  0.37806078  1
  V  V65  1  0.24695437  0.25366986  0.00211433  1
  V  V66  1  0.36998238  0.38043224  0.00163732  1
  V  V67  1  0.24047291  0.49770427  0.25164911  1
  V  V68  1  0.11847607  0.87521913  0.75409871  1
  V  V69  1  0.12913617  -0.00564963  0.12497606  1
  V  V70  1  0.87251991  0.12302373  0.26279192  1
  V  V71  1  0.74102000  0.12138726  0.87801804  1
  V  V72  1  0.75013527  0.61869983  0.86264619  1
  V  V73  1  0.24881503  0.62570590  0.37591778  1
  V  V74  1  0.24004693  0.74876113  0.00402186  1
  V  V75  1  0.75013883  -0.00184784  0.74986467  1
  V  V76  1  0.88873327  0.74966292  0.63304499  1
  V  V77  1  0.00735259  0.50175126  0.51134496  1
  V  V78  1  0.62564314  0.62352405  0.50278086  1
  V  V79  1  0.87442456  -0.00626273  0.88498269  1
  V  V80  1  0.50257416  0.49792447  0.50034734  1
  V  V81  1  0.12163444  0.12422832  -0.00312609  1
  V  V82  1  0.63740740  0.63096757  0.00231579  1
  V  V83  1  0.00295974  0.25834779  0.25365580  1
  V  V84  1  0.00183491  0.12809252  0.62701571  1
  Zn  Zn85  1  -0.00282236  0.25512217  0.75940127  1
  Zn  Zn86  1  0.62436888  0.23411031  0.36897028  1
  Zn  Zn87  1  0.56781332  0.16158472  0.06183352  1
  Zn  Zn88  1  0.49836534  0.62074905  0.62925706  1
  Zn  Zn89  1  0.25663447  0.36281354  0.62803622  1
  Zn  Zn90  1  0.24855677  0.62253243  0.87509458  1
  Zn  Zn91  1  -0.00374606  0.87148577  0.38340761  1
  Zn  Zn92  1  0.87180516  0.49209183  0.86666256  1
  Zn  Zn93  1  -0.00321644  -0.00589767  0.50276689  1
  Zn  Zn94  1  0.11705946  0.25955734  0.87733438  1
  Zn  Zn95  1  0.55641011  0.05356042  0.45841050  1
  Zn  Zn96  1  0.62446353  0.25261291  0.87828067  1
  Zn  Zn97  1  0.75021399  -0.00030044  0.25153178  1
  Zn  Zn98  1  0.87260599  0.24847688  0.62628513  1
  Zn  Zn99  1  0.25263442  0.12673478  0.37302033  1
  Zn  Zn100  1  -0.00061707  0.75093680  0.24922364  1
  Zn  Zn101  1  0.00448154  0.37673545  0.37796695  1
  Zn  Zn102  1  -0.00439639  -0.00586754  0.00600441  1
  Zn  Zn103  1  0.25634302  0.24474143  0.50399177  1
  Zn  Zn104  1  0.12384468  0.62346008  0.51389809  1
  Zn  Zn105  1  0.87376503  0.37135961  0.50400590  1
  Zn  Zn106  1  0.36600331  0.87801422  -0.00103031  1
  Zn  Zn107  1  0.18861357  0.18445419  0.19050327  1
  Zn  Zn108  1  0.18845769  0.19579156  0.68506847  1
  Zn  Zn109  1  0.18500727  0.68540671  0.18635565  1
  Zn  Zn110  1  0.19299826  0.69031051  0.69246967  1
  Zn  Zn111  1  0.68874634  0.18653365  0.19377240  1
  Zn  Zn112  1  0.68406906  0.18603655  0.68796543  1
  Zn  Zn113  1  0.69053145  0.68940750  0.18727675  1
  Zn  Zn114  1  0.68516130  0.68688768  0.68697354  1
  Zn  Zn115  1  0.31577289  0.31319799  0.31754341  1
  Zn  Zn116  1  0.30816917  0.31728244  0.81747963  1
  Zn  Zn117  1  0.30979895  0.81679414  0.31331934  1
  Zn  Zn118  1  0.30710219  0.80848772  0.81348992  1
  Zn  Zn119  1  0.77982232  0.29660444  0.29900109  1
  Zn  Zn120  1  0.81106367  0.30726925  0.81244075  1
  Zn  Zn121  1  0.81242487  0.81021443  0.30912061  1
  Zn  Zn122  1  0.81417303  0.80887168  0.81049575  1
  Zn  Zn123  1  0.19021083  0.43455254  0.44193763  1
  Zn  Zn124  1  0.18313824  0.44165856  0.93107773  1
  Zn  Zn125  1  0.18785560  0.93747515  0.43795177  1
  Zn  Zn126  1  0.18688449  0.93526589  0.93897218  1
  Zn  Zn127  1  0.69059793  0.43178830  0.44542574  1
  Zn  Zn128  1  0.68858398  0.44072093  0.94200510  1
  Zn  Zn129  1  0.69730053  0.93366129  0.43780276  1
  Zn  Zn130  1  0.68474268  0.93521073  0.93636862  1
  Zn  Zn131  1  0.30928194  0.05894630  0.06025697  1
  Zn  Zn132  1  0.31215093  0.06666514  0.56531877  1
  Zn  Zn133  1  0.30804533  0.56794697  0.06187111  1
  Zn  Zn134  1  0.31414336  0.56274447  0.55976372  1
  Zn  Zn135  1  0.81082368  0.06156297  0.06592569  1
  Zn  Zn136  1  0.81099773  0.06441649  0.56393284  1
  Zn  Zn137  1  0.81552942  0.56176573  0.05814179  1
  Zn  Zn138  1  0.81492346  0.55929854  0.56712288  1
  Zn  Zn139  1  0.42970562  0.44182150  0.18421054  1
  Zn  Zn140  1  0.43693064  0.43585989  0.68716786  1
  Zn  Zn141  1  0.44098212  0.94152567  0.18587448  1
  Zn  Zn142  1  0.43665175  0.94005208  0.69137313  1
  Zn  Zn143  1  0.93407531  0.43744591  0.18439272  1
  Zn  Zn144  1  0.93241429  0.43551304  0.68891182  1
  Zn  Zn145  1  0.93902136  0.93568980  0.19234674  1
  Zn  Zn146  1  0.93818921  0.93793076  0.68890541  1
  Zn  Zn147  1  0.05835984  0.06188611  0.31604774  1
  Zn  Zn148  1  0.06232703  0.06100608  0.81543797  1
  Zn  Zn149  1  0.06041355  0.56337884  0.31431171  1
  Zn  Zn150  1  0.06822698  0.56190389  0.68794926  1
  Zn  Zn151  1  0.55428384  0.06320922  0.29005223  1
  Zn  Zn152  1  0.55715650  0.06092417  0.81161213  1
  Zn  Zn153  1  0.56283918  0.56270926  0.31288722  1
  Zn  Zn154  1  0.56207662  0.56508407  0.81513879  1
  Zn  Zn155  1  0.45700560  0.18593999  0.41790213  1
  Zn  Zn156  1  0.44315756  0.20288200  0.95841142  1
  Zn  Zn157  1  0.43739767  0.68787578  0.44094523  1
  Zn  Zn158  1  0.43628930  0.69147471  0.93988347  1
  Zn  Zn159  1  0.93676859  0.19027341  0.44284118  1
  Zn  Zn160  1  0.93567541  0.18469085  0.93731836  1
  Zn  Zn161  1  0.93983127  0.68330205  0.44021512  1
  Zn  Zn162  1  0.94173648  0.68054048  0.93181674  1
  Zn  Zn163  1  0.06358379  0.31482171  0.06560908  1
  Zn  Zn164  1  0.06420002  0.31474062  0.56543905  1
  Zn  Zn165  1  0.06179760  0.81080138  0.06187553  1
  Zn  Zn166  1  0.06482612  0.81510977  0.56091742  1
  Zn  Zn167  1  0.55827969  0.32570618  0.06221261  1
  Zn  Zn168  1  0.56453394  0.31044501  0.56071988  1
  Zn  Zn169  1  0.56112198  0.81476779  0.06047339  1
  Zn  Zn170  1  0.56429629  0.81353042  0.56334732  1
  O  O171  1  0.11907498  0.11778076  0.11800704  1
  O  O172  1  0.11938753  0.12025429  0.62074635  1
  O  O173  1  0.11582300  0.61227540  0.12870954  1
  O  O174  1  0.12793467  0.63157275  0.62597104  1
  O  O175  1  0.63873271  0.10934807  0.12760995  1
  O  O176  1  0.61265469  0.11343755  0.63239957  1
  O  O177  1  0.62109983  0.62458949  0.11820898  1
  O  O178  1  0.62471352  0.61285125  0.61949205  1
  O  O179  1  0.38604821  0.38529608  0.38078281  1
  O  O180  1  0.37942141  0.38672218  0.88551680  1
  O  O181  1  0.38027130  0.88366780  0.38114641  1
  O  O182  1  0.38612237  0.86823938  0.87460011  1
  O  O183  1  0.87172370  0.38860203  0.37305274  1
  O  O184  1  0.86753136  0.37386779  0.88746560  1
  O  O185  1  0.87454306  0.88655737  0.36918797  1
  O  O186  1  0.88484959  0.88124449  0.86553259  1
  O  O187  1  0.25912045  0.00041796  0.36657995  1
  O  O188  1  0.24474062  0.01029721  0.87009865  1
  O  O189  1  0.25379980  0.50417181  0.36895845  1
  O  O190  1  0.25845145  0.50250490  0.86664813  1
  O  O191  1  0.76366627  -0.00136718  0.37072088  1
  O  O192  1  0.75508975  0.00154989  0.87077400  1
  O  O193  1  0.75598386  0.50542720  0.37184500  1
  O  O194  1  0.75404080  0.51293799  0.88283909  1
  O  O195  1  0.24223227  0.49628865  0.13102327  1
  O  O196  1  0.26125272  0.49515309  0.63532889  1
  O  O197  1  0.23713591  1.00087453  0.13164356  1
  O  O198  1  0.24523210  0.99549230  0.63501184  1
  O  O199  1  0.74267620  0.49559956  0.12524355  1
  O  O200  1  0.73656707  0.48871240  0.62117375  1
  O  O201  1  0.74687961  0.98444677  0.12636870  1
  O  O202  1  0.74597298  0.99067814  0.63032390  1
  O  O203  1  -0.00720459  0.36074001  0.25006067  1
  O  O204  1  0.01339545  0.37637828  0.74363915  1
  O  O205  1  0.01274884  0.87214906  0.25677054  1
  O  O206  1  0.01380704  0.88120759  0.75839964  1
  O  O207  1  0.49883167  0.39071056  0.25733021  1
  O  O208  1  0.49191324  0.36542340  0.76006790  1
  O  O209  1  0.51165964  0.86977599  0.25407974  1
  O  O210  1  0.50452907  0.86816654  0.75721602  1
  O  O211  1  0.47735976  0.11817516  0.22835331  1
  O  O212  1  0.48960655  0.13160503  0.74813073  1
  O  O213  1  0.49396414  0.63243031  0.24524270  1
  O  O214  1  0.50231554  0.63907537  0.74940980  1
  O  O215  1  0.99226375  0.13017914  0.24243769  1
  O  O216  1  0.99224423  0.12075638  0.74469135  1
  O  O217  1  0.99263079  0.62464645  0.23873396  1
  O  O218  1  0.98855969  0.62175363  0.75100751  1
  O  O219  1  0.35266933  0.26624889  -0.00810339  1
  O  O220  1  0.38363207  0.26226396  0.48485120  1
  O  O221  1  0.36561249  0.75324001  0.00877833  1
  O  O222  1  0.37090629  0.76134439  0.50596089  1
  O  O223  1  0.86795162  0.25414128  0.00647979  1
  O  O224  1  0.86718932  0.25097227  0.50957738  1
  O  O225  1  0.87879158  0.74212287  0.01013558  1
  O  O226  1  0.86592405  0.73900446  0.51386118  1
  O  O227  1  0.12407719  0.24114518  0.49245016  1
  O  O228  1  0.13091675  0.24264195  1.00231855  1
  O  O229  1  0.13394462  0.74845851  0.49223962  1
  O  O230  1  0.13257970  0.75187328  0.99029412  1
  O  O231  1  0.63703798  0.25790390  0.48927378  1
  O  O232  1  0.64112391  0.25029887  1.00062946  1
  O  O233  1  0.63540201  0.74423895  0.49706428  1
  O  O234  1  0.61864211  0.74209713  0.99037303  1
  O  O235  1  0.49063372  0.23950737  0.06263864  1
  O  O236  1  0.50616766  0.24141659  0.63527458  1
  O  O237  1  0.49222186  0.74716143  0.13094431  1
  O  O238  1  0.49460573  0.75113395  0.63437627  1
  O  O239  1  0.99743002  0.24209954  0.13313072  1
  O  O240  1  0.99933594  0.23651522  0.63024898  1
  O  O241  1  0.99401911  0.74077130  0.12601693  1
  O  O242  1  0.98656889  0.75277418  0.62312466  1
  O  O243  1  0.00595805  0.25208324  0.36930877  1
  O  O244  1  0.00486889  0.24046084  0.87247629  1
  O  O245  1  0.00869832  0.74843153  0.37259935  1
  O  O246  1  0.01232847  0.75567679  0.87879589  1
  O  O247  1  0.50743788  0.27482760  0.36610769  1
  O  O248  1  0.50163192  0.26113489  0.87244006  1
  O  O249  1  0.50515316  0.75542098  0.36975305  1
  O  O250  1  0.50724232  0.75544547  0.86908443  1
  O  O251  1  0.23855914  0.12271008  0.49630836  1
  O  O252  1  0.24213343  0.13262868  0.99696226  1
  O  O253  1  0.24937504  0.63095965  0.49160083  1
  O  O254  1  0.25191172  0.64235143  0.99481185  1
  O  O255  1  0.74389761  0.14349113  0.51990381  1
  O  O256  1  0.75747310  0.13254527  0.99178131  1
  O  O257  1  0.74533846  0.62940212  0.49797286  1
  O  O258  1  0.74041399  0.62552134  0.99454145  1
  O  O259  1  0.24970228  0.37224688  0.00611959  1
  O  O260  1  0.27111931  0.37573602  0.49822771  1
  O  O261  1  0.25097764  0.85738807  -0.00538973  1
  O  O262  1  0.25798983  0.86972331  0.50679995  1
  O  O263  1  0.75707026  0.36925471  0.00862413  1
  O  O264  1  0.75369195  0.36479767  0.51229718  1
  O  O265  1  0.74900510  0.87268571  0.01181878  1
  O  O266  1  0.74998306  0.86347446  0.51376993  1
  O  O267  1  0.13615812  0.50362472  0.24590352  1
  O  O268  1  0.14026620  0.49013298  0.74553240  1
  O  O269  1  0.13052695  0.99494689  0.24613287  1
  O  O270  1  0.13464902  0.99486653  0.74651690  1
  O  O271  1  0.63175065  0.51154651  0.23500073  1
  O  O272  1  0.61991096  0.50301661  0.73691537  1
  O  O273  1  0.62550390  0.98938465  0.23686716  1
  O  O274  1  0.63057176  0.99288224  0.74227638  1
  O  O275  1  0.36702320  -0.00124147  0.25467548  1
  O  O276  1  0.36243330  0.00741364  0.75268204  1
  O  O277  1  0.36383839  0.50986879  0.25444058  1
  O  O278  1  0.36519122  0.49483171  0.75701994  1
  O  O279  1  0.87695537  0.00921174  0.25885763  1
  O  O280  1  0.86873221  0.00648012  0.75798366  1
  O  O281  1  0.87151830  0.51094204  0.25499902  1
  O  O282  1  0.87365761  0.51400486  0.74945848  1
  O  O283  1  0.12543827  0.36123190  0.37849606  1
  O  O284  1  0.13248228  0.37558055  0.85399170  1
  O  O285  1  0.12831478  0.86286588  0.36845941  1
  O  O286  1  0.11624409  0.87108563  0.87038400  1
  O  O287  1  0.61252255  0.39238249  0.37121881  1
  O  O288  1  0.60922903  0.37884501  0.88532915  1
  O  O289  1  0.62381046  0.86956246  0.36849352  1
  O  O290  1  0.61866351  0.86613206  0.86949443  1
  O  O291  1  0.35795441  0.13337172  0.12959070  1
  O  O292  1  0.38236676  0.11805469  0.64070848  1
  O  O293  1  0.37925025  0.63525098  0.13066924  1
  O  O294  1  0.37897981  0.64090217  0.61755193  1
  O  O295  1  0.88483147  0.12719924  0.13152031  1
  O  O296  1  0.88409483  0.12056007  0.63610729  1
  O  O297  1  0.87913599  0.63010399  0.13134507  1
  O  O298  1  0.86856000  0.63498699  0.63852303  1
  O  O299  1  0.23894874  0.26432139  0.12077708  1
  O  O300  1  0.25913500  0.24765888  0.61762159  1
  O  O301  1  0.25353384  0.74575714  0.11405101  1
  O  O302  1  0.26073499  0.75957385  0.62336452  1
  O  O303  1  0.75670330  0.25660534  0.11806990  1
  O  O304  1  0.74362193  0.26217534  0.62377987  1
  O  O305  1  0.75825035  0.76074812  0.12682337  1
  O  O306  1  0.75377427  0.75576403  0.62013172  1
  O  O307  1  0.24310120  0.24626091  0.38027384  1
  O  O308  1  0.24087114  0.24221454  0.88445547  1
  O  O309  1  0.24510280  0.74559957  0.38011354  1
  O  O310  1  0.23910898  0.74570578  0.88293542  1
  O  O311  1  0.76034627  0.24171037  0.39662709  1
  O  O312  1  0.74769936  0.23938185  0.88263950  1
  O  O313  1  0.74942900  0.74419533  0.38509117  1
  O  O314  1  0.73728014  0.74403065  0.87106060  1
  O  O315  1  0.00511264  0.12141843  0.01344911  1
  O  O316  1  0.00997333  0.12047537  0.50916050  1
  O  O317  1  -0.00668170  0.61342144  0.01273966  1
  O  O318  1  0.00369038  0.60636580  0.49565743  1
  O  O319  1  0.50346589  0.10209960  -0.01896323  1
  O  O320  1  0.48527826  0.12613341  0.51746214  1
  O  O321  1  0.50789715  0.62409044  0.00525116  1
  O  O322  1  0.50816688  0.61779321  0.50212048  1
  O  O323  1  0.49574661  0.38272623  0.49200492  1
  O  O324  1  0.48724856  0.39143869  0.99315335  1
  O  O325  1  0.49094960  0.86979849  0.49313625  1
  O  O326  1  0.49597667  0.88040939  0.99058713  1
  O  O327  1  0.99511144  0.38587641  0.49994509  1
  O  O328  1  0.99144994  0.38282125  1.00656317  1
  O  O329  1  1.00352178  0.88070020  0.49664816  1
  O  O330  1  1.00192357  0.87655188  0.98797766  1
  O  O331  1  0.49477329  0.49883415  0.38189950  1
  O  O332  1  0.49258286  0.49707332  0.87746573  1
  O  O333  1  0.49380086  0.99015818  0.37326810  1
  O  O334  1  0.50776941  0.98505876  0.88494372  1
  O  O335  1  0.99259415  0.49622023  0.37922967  1
  O  O336  1  0.99379192  0.50394007  0.88855181  1
  O  O337  1  0.98519138  0.99762531  0.37714443  1
  O  O338  1  0.99106647  0.99165429  0.87856001  1
  O  O339  1  0.00818827  0.00618079  0.12741574  1
  O  O340  1  0.00770296  0.00930277  0.62699326  1
  O  O341  1  0.00680017  0.50436306  0.12157849  1
  O  O342  1  -0.00279195  0.49966022  0.61514962  1
  O  O343  1  0.51045141  -0.00792611  0.10842849  1
  O  O344  1  0.50929686  0.00772502  0.63194355  1
  O  O345  1  0.50527070  0.50918105  0.11982845  1
  O  O346  1  0.50994795  0.49971208  0.61879740  1
  O  O347  1  0.25921904  0.38530372  0.24196577  1
  O  O348  1  0.24816378  0.38533340  0.74690746  1
  O  O349  1  0.23912296  0.88706382  0.25292761  1
  O  O350  1  0.24348856  0.88428961  0.75002534  1
  O  O351  1  0.76428251  0.38880841  0.23020735  1
  O  O352  1  0.74697985  0.37066862  0.73940902  1
  O  O353  1  0.73857065  0.87380419  0.24464717  1
  O  O354  1  0.74360402  0.87707928  0.74204813  1
  O  O355  1  0.25781780  0.11206165  0.25214820  1
  O  O356  1  0.25527135  0.12097915  0.75986156  1
  O  O357  1  0.25362794  0.61907259  0.25623815  1
  O  O358  1  0.25049181  0.60840156  0.75389851  1
  O  O359  1  0.77073537  0.11776044  0.24349404  1
  O  O360  1  0.75696809  0.11824534  0.75605134  1
  O  O361  1  0.75773520  0.62023180  0.25489080  1
  O  O362  1  0.75070900  0.62779600  0.76014783  1
  O  O363  1  0.37883422  0.11164819  0.36889314  1
  O  O364  1  0.36307676  0.13111442  0.87530545  1
  O  O365  1  0.36933976  0.62061775  0.37077748  1
  O  O366  1  0.37731867  0.61293972  0.87845869  1
  O  O367  1  0.88208674  0.11784782  0.36531161  1
  O  O368  1  0.86635279  0.11359841  0.86894148  1
  O  O369  1  0.87094821  0.61835563  0.36718351  1
  O  O370  1  0.86767406  0.62793074  0.85997890  1
  O  O371  1  0.13234672  0.38856845  0.12677702  1
  O  O372  1  0.13459861  0.36952617  0.63854794  1
  O  O373  1  0.11876671  0.88291990  0.13399985  1
  O  O374  1  0.13278090  0.87799815  0.63590373  1
  O  O375  1  0.63325044  0.38813771  0.11848910  1
  O  O376  1  0.63170867  0.38705552  0.62297485  1
  O  O377  1  0.63619687  0.87499254  0.12991295  1
  O  O378  1  0.63256518  0.87891758  0.63191286  1
  O  O379  1  0.11415293  0.24012989  0.26126669  1
  O  O380  1  0.12328282  0.26188027  0.75328099  1
  O  O381  1  0.12633684  0.75777131  0.25603708  1
  O  O382  1  0.13424085  0.76190603  0.76561461  1
  O  O383  1  0.67039141  0.26252588  0.26922066  1
  O  O384  1  0.61074171  0.24464590  0.75865585  1
  O  O385  1  0.62121252  0.75487245  0.25712959  1
  O  O386  1  0.61643491  0.75502882  0.75631179  1
  O  O387  1  0.37016747  0.23689682  0.25232439  1
  O  O388  1  0.38118398  0.24110883  0.75952653  1
  O  O389  1  0.37619292  0.74692152  0.24474348  1
  O  O390  1  0.38270332  0.75740829  0.74029755  1
  O  O391  1  0.87902410  0.23769048  0.24699032  1
  O  O392  1  0.87509118  0.23510273  0.74782527  1
  O  O393  1  0.87587842  0.73719951  0.24451130  1
  O  O394  1  0.87401628  0.73871570  0.73918037  1
  O  O395  1  0.38848721  0.49791937  0.49443691  1
  O  O396  1  0.37611756  0.49901042  0.99368769  1
  O  O397  1  0.36859355  0.98996291  0.49220138  1
  O  O398  1  0.38782553  0.99438221  1.00589498  1
  O  O399  1  0.88367018  0.49974588  0.49308341  1
  O  O400  1  0.88355148  0.48873003  1.00105309  1
  O  O401  1  0.87226255  1.00538159  0.48613364  1
  O  O402  1  0.87470784  1.00113054  0.98844780  1
  O  O403  1  0.12314184  0.00584832  0.00968963  1
  O  O404  1  0.12715018  0.00696848  0.50937311  1
  O  O405  1  0.11565137  0.49628930  0.00741331  1
  O  O406  1  0.11150275  0.49925820  0.49594289  1
  O  O407  1  0.61708730  -0.00844935  0.00981373  1
  O  O408  1  0.63003309  -0.00925270  0.51453076  1
  O  O409  1  0.61885988  0.51176507  0.01033554  1
  O  O410  1  0.61547817  0.50410559  0.50511286  1
  O  O411  1  0.36247067  0.38501686  0.11024851  1
  O  O412  1  0.38272457  0.37509797  0.60491053  1
  O  O413  1  0.37748062  0.86234476  0.12742144  1
  O  O414  1  0.37288399  0.87233638  0.61795231  1
  O  O415  1  0.86916735  0.36757580  0.11475803  1
  O  O416  1  0.85861257  0.37304540  0.62785168  1
  O  O417  1  0.86421724  0.86595027  0.13163171  1
  O  O418  1  0.86694096  0.86060827  0.63569028  1
  O  O419  1  0.12476024  0.13061976  0.38388073  1
  O  O420  1  0.13017411  0.12046804  0.89066752  1
  O  O421  1  0.13126954  0.63696533  0.37341158  1
  O  O422  1  0.12208929  0.64009764  0.86996637  1
  O  O423  1  0.57384967  0.13056013  0.37817315  1
  O  O424  1  0.63882987  0.12054978  0.87064062  1
  O  O425  1  0.63227979  0.63063926  0.38134637  1
  O  O426  1  0.63203161  0.63054732  0.88182225  1
