# generated using pymatgen
data_V85Zn86O256
_symmetry_space_group_name_H-M   'P 1'
_cell_length_a   16.93737905
_cell_length_b   16.94749891
_cell_length_c   16.94865898
_cell_angle_alpha   90.03391936
_cell_angle_beta   90.01270579
_cell_angle_gamma   89.87327016
_symmetry_Int_Tables_number   1
_chemical_formula_structural   V85Zn86O256
_chemical_formula_sum   'V85 Zn86 O256'
_cell_volume   4865.03550142
_cell_formula_units_Z   1
loop_
 _symmetry_equiv_pos_site_id
 _symmetry_equiv_pos_as_xyz
  1  'x, y, z'
loop_
 _atom_site_type_symbol
 _atom_site_label
 _atom_site_symmetry_multiplicity
 _atom_site_fract_x
 _atom_site_fract_y
 _atom_site_fract_z
 _atom_site_occupancy
  V  V0  1  0.37443333  0.24571288  0.11782820  1
  V  V1  1  0.49883689  -0.00979939  -0.00997197  1
  V  V2  1  0.74674436  0.87593778  0.62494502  1
  V  V3  1  0.13308738  0.25313637  0.88308990  1
  V  V4  1  0.37642317  0.37032537  0.49944918  1
  V  V5  1  0.12248584  0.49892491  0.62423302  1
  V  V6  1  0.61620810  0.37932662  0.73734025  1
  V  V7  1  0.49832506  0.37429926  0.36900382  1
  V  V8  1  0.87625044  0.24560768  0.12434769  1
  V  V9  1  0.62700910  0.12376748  0.50028647  1
  V  V10  1  0.12570789  0.49963101  0.12287987  1
  V  V11  1  0.37907827  0.12840196  0.75770189  1
  V  V12  1  0.87438453  0.00645257  0.35895275  1
  V  V13  1  0.37442725  0.49850471  0.37235172  1
  V  V14  1  0.87360590  0.74709565  0.12553752  1
  V  V15  1  0.75040550  0.25686123  0.50674063  1
  V  V16  1  0.38518953  0.49632170  0.87946504  1
  V  V17  1  0.74378141  0.74490122  0.49514515  1
  V  V18  1  0.25149679  0.49996416  0.75034499  1
  V  V19  1  -0.00044025  0.87696864  0.37627364  1
  V  V20  1  -0.00371814  0.24956946  0.25131967  1
  V  V21  1  0.62407557  0.37951127  0.24316527  1
  V  V22  1  0.12140174  0.37584214  0.75592170  1
  V  V23  1  0.12342269  0.63136121  -0.00480828  1
  V  V24  1  0.50041858  0.75615282  0.76570114  1
  V  V25  1  0.25106275  0.11671516  0.37378225  1
  V  V26  1  0.25578061  0.00035786  0.75285824  1
  V  V27  1  0.12633565  0.87621016  0.24803203  1
  V  V28  1  0.87977614  0.37337937  -0.00541733  1
  V  V29  1  0.25029735  0.37552915  0.62398403  1
  V  V30  1  0.25838596  0.85870886  0.61897987  1
  V  V31  1  0.12643741  0.75028839  0.38170436  1
  V  V32  1  0.75183895  0.13252383  0.87402680  1
  V  V33  1  0.12517809  0.62497289  0.50009026  1
  V  V34  1  0.00681983  0.87340195  0.87477615  1
  V  V35  1  0.87345168  0.61934568  0.25900825  1
  V  V36  1  0.37941368  0.87011075  0.48644688  1
  V  V37  1  0.60490183  0.25904455  0.87146259  1
  V  V38  1  0.37510403  0.62968254  0.74273858  1
  V  V39  1  0.74953442  0.00145488  0.75031085  1
  V  V40  1  0.25140043  0.36659705  0.11502457  1
  V  V41  1  0.62645772  0.25108674  0.37164611  1
  V  V42  1  0.13564269  0.12045722  -0.00019446  1
  V  V43  1  0.62527994  0.12361975  0.00003166  1
  V  V44  1  0.37436175  0.63591414  0.24364105  1
  V  V45  1  0.87149420  0.50139949  0.87243512  1
  V  V46  1  -0.00142669  0.74871377  0.25178503  1
  V  V47  1  0.24722787  0.62948173  0.87369209  1
  V  V48  1  0.00103371  0.25326493  0.75915385  1
  V  V49  1  0.87648588  0.87410303  0.00046530  1
  V  V50  1  0.12021443  0.25444580  0.37670503  1
  V  V51  1  0.50162368  0.13707050  0.63043069  1
  V  V52  1  -0.00297943  0.49719717  0.48642610  1
  V  V53  1  0.50524745  0.50392535  0.50088248  1
  V  V54  1  0.63250723  -0.00385869  0.13132912  1
  V  V55  1  0.87670968  0.00210200  0.87548167  1
  V  V56  1  0.75526625  0.12483106  0.36248154  1
  V  V57  1  0.25906793  0.74738748  0.00623798  1
  V  V58  1  0.12537126  0.87031887  0.74904747  1
  V  V59  1  -0.00436077  0.74873893  0.75421110  1
  V  V60  1  0.75340691  0.49766049  0.25670349  1
  V  V61  1  -0.00075600  0.62264342  0.12387350  1
  V  V62  1  0.50414032  0.63632338  0.61807016  1
  V  V63  1  0.87785168  0.37951245  0.48696291  1
  V  V64  1  0.25152403  0.25056757  0.49837986  1
  V  V65  1  0.62745052  0.87190654  0.26545437  1
  V  V66  1  0.12678152  -0.00093718  0.62490832  1
  V  V67  1  0.26619862  0.86884453  0.12686985  1
  V  V68  1  0.50083476  0.62381297  0.12370270  1
  V  V69  1  0.00258334  0.12211457  0.12587686  1
  V  V70  1  0.00188407  0.49597395  -0.00858763  1
  V  V71  1  0.12649759  0.12687503  0.50086416  1
  V  V72  1  0.73713943  0.74878245  0.00091352  1
  V  V73  1  0.25047757  0.62579003  0.37972931  1
  V  V74  1  0.87385144  0.26029804  0.62918234  1
  V  V75  1  0.62125255  0.60278244  0.00292418  1
  V  V76  1  0.74931386  0.37949462  0.12265921  1
  V  V77  1  0.37680327  0.11798442  0.24992457  1
  V  V78  1  0.00006557  0.12780903  0.62869510  1
  V  V79  1  0.62041847  -0.00024090  0.62697989  1
  V  V80  1  -0.00514922  0.00271945  0.50046044  1
  V  V81  1  0.12091682  0.37583848  0.25303812  1
  V  V82  1  -0.00191461  0.62419314  0.62456060  1
  V  V83  1  0.25552728  0.49724935  0.24755389  1
  V  V84  1  0.87307901  0.75264520  0.62678821  1
  Zn  Zn85  1  0.38813872  0.86859550  -0.02216690  1
  Zn  Zn86  1  0.60964068  0.87807907  0.76969124  1
  Zn  Zn87  1  0.00542133  -0.00098480  -0.00032377  1
  Zn  Zn88  1  0.74465923  0.61633902  0.38090794  1
  Zn  Zn89  1  0.37854872  0.25294666  0.62965867  1
  Zn  Zn90  1  0.12886259  -0.00565794  0.11902478  1
  Zn  Zn91  1  0.86583546  0.62427461  0.74992794  1
  Zn  Zn92  1  0.49310690  0.76027706  0.25231983  1
  Zn  Zn93  1  0.74868350  0.25213253  -0.00091468  1
  Zn  Zn94  1  0.60306371  0.73427029  0.38511833  1
  Zn  Zn95  1  0.73620913  0.62519114  0.87009094  1
  Zn  Zn96  1  0.87612809  0.12871542  0.75099645  1
  Zn  Zn97  1  0.75543965  0.87973710  0.13307433  1
  Zn  Zn98  1  0.49932223  0.24876641  0.24464864  1
  Zn  Zn99  1  0.63207788  0.50360468  0.61731188  1
  Zn  Zn100  1  0.50088174  0.12173058  0.12499574  1
  Zn  Zn101  1  0.38813171  0.36553423  -0.01521392  1
  Zn  Zn102  1  0.25543607  -0.00513878  0.25092606  1
  Zn  Zn103  1  0.74788077  0.49663474  0.74147154  1
  Zn  Zn104  1  0.87367539  0.87701463  0.49773762  1
  Zn  Zn105  1  0.25655692  0.12658460  0.88118104  1
  Zn  Zn106  1  0.49430620  -0.00911145  0.48933958  1
  Zn  Zn107  1  0.18690639  0.18558931  0.18837778  1
  Zn  Zn108  1  0.19139006  0.18926905  0.68919610  1
  Zn  Zn109  1  0.18733471  0.68809814  0.18895281  1
  Zn  Zn110  1  0.18337927  0.68719261  0.69002750  1
  Zn  Zn111  1  0.68851810  0.18969968  0.18421298  1
  Zn  Zn112  1  0.68651999  0.19342524  0.69215726  1
  Zn  Zn113  1  0.68337816  0.68688299  0.18946500  1
  Zn  Zn114  1  0.68250571  0.68729857  0.68978525  1
  Zn  Zn115  1  0.31122483  0.30600791  0.30718509  1
  Zn  Zn116  1  0.31251775  0.31156807  0.81117020  1
  Zn  Zn117  1  0.31024182  0.81151061  0.31978421  1
  Zn  Zn118  1  0.31389695  0.81041115  0.81252535  1
  Zn  Zn119  1  0.81211905  0.31030645  0.31161586  1
  Zn  Zn120  1  0.80703710  0.31929718  0.81113282  1
  Zn  Zn121  1  0.81013144  0.81891012  0.31191828  1
  Zn  Zn122  1  0.78237111  0.82591179  0.82968174  1
  Zn  Zn123  1  0.18528278  0.43806002  0.43611787  1
  Zn  Zn124  1  0.19142692  0.44052404  0.93545252  1
  Zn  Zn125  1  0.18921858  0.93625243  0.44091206  1
  Zn  Zn126  1  0.21350166  0.92665959  0.92802741  1
  Zn  Zn127  1  0.68887756  0.43580423  0.43610409  1
  Zn  Zn128  1  0.69030251  0.43432963  0.93313975  1
  Zn  Zn129  1  0.69284566  0.94139064  0.43983900  1
  Zn  Zn130  1  0.68738762  0.93943079  0.94084904  1
  Zn  Zn131  1  0.31406476  0.05380431  0.06506385  1
  Zn  Zn132  1  0.31679141  0.05998095  0.56450626  1
  Zn  Zn133  1  0.31588959  0.56110514  0.06297750  1
  Zn  Zn134  1  0.31620371  0.56112321  0.56155778  1
  Zn  Zn135  1  0.81363320  0.06389114  0.06150672  1
  Zn  Zn136  1  0.81180985  0.06936906  0.56367767  1
  Zn  Zn137  1  0.80937675  0.56145326  0.06377771  1
  Zn  Zn138  1  0.81162244  0.56214441  0.56618483  1
  Zn  Zn139  1  0.46051937  0.42143391  0.14577454  1
  Zn  Zn140  1  0.44328113  0.43928532  0.68944367  1
  Zn  Zn141  1  0.44544216  0.94027037  0.18357638  1
  Zn  Zn142  1  0.43594462  0.93920607  0.68357001  1
  Zn  Zn143  1  0.93677245  0.43636810  0.18430372  1
  Zn  Zn144  1  0.93708350  0.43752769  0.68512453  1
  Zn  Zn145  1  0.94190133  0.93682330  0.18589825  1
  Zn  Zn146  1  0.93412059  0.93743305  0.68861161  1
  Zn  Zn147  1  0.06373894  0.06436951  0.31151811  1
  Zn  Zn148  1  0.06641368  0.06241106  0.81502567  1
  Zn  Zn149  1  0.06368963  0.56274780  0.31037178  1
  Zn  Zn150  1  0.06000715  0.56296668  0.81315269  1
  Zn  Zn151  1  0.56411189  0.05900540  0.31012055  1
  Zn  Zn152  1  0.56386179  0.06502704  0.81418981  1
  Zn  Zn153  1  0.56135211  0.56407534  0.30871056  1
  Zn  Zn154  1  0.56249958  0.56562189  0.81103018  1
  Zn  Zn155  1  0.45716080  0.15447011  0.41714968  1
  Zn  Zn156  1  0.43661276  0.18072620  0.94271354  1
  Zn  Zn157  1  0.42991162  0.69508142  0.43823764  1
  Zn  Zn158  1  0.43829370  0.67816310  0.93734827  1
  Zn  Zn159  1  0.93665591  0.18925460  0.43850468  1
  Zn  Zn160  1  0.94376431  0.18719101  0.93974300  1
  Zn  Zn161  1  0.93420818  0.68820816  0.44025660  1
  Zn  Zn162  1  0.93367780  0.68682675  0.93601240  1
  Zn  Zn163  1  0.06378040  0.31166356  0.06242228  1
  Zn  Zn164  1  0.05883158  0.31507917  0.56497790  1
  Zn  Zn165  1  0.06473734  0.81005209  0.06265478  1
  Zn  Zn166  1  0.06145765  0.81358287  0.56362726  1
  Zn  Zn167  1  0.56142981  0.30924019  0.05672890  1
  Zn  Zn168  1  0.55999929  0.31250121  0.55957644  1
  Zn  Zn169  1  0.55773337  0.81132109  0.07354922  1
  Zn  Zn170  1  0.56043329  0.81420716  0.56288801  1
  O  O171  1  0.12068737  0.12265605  0.11715012  1
  O  O172  1  0.12097101  0.11901652  0.62095053  1
  O  O173  1  0.11972863  0.61754250  0.11932382  1
  O  O174  1  0.11936902  0.61965286  0.61898828  1
  O  O175  1  0.62758103  0.11791353  0.11649872  1
  O  O176  1  0.62218295  0.12064691  0.62322581  1
  O  O177  1  0.61676360  0.62963394  0.11257477  1
  O  O178  1  0.60698886  0.62440980  0.62381722  1
  O  O179  1  0.37888833  0.37667830  0.37740903  1
  O  O180  1  0.36848199  0.38918267  0.87245142  1
  O  O181  1  0.36429280  0.88266293  0.38738973  1
  O  O182  1  0.32115825  0.88824974  0.89006851  1
  O  O183  1  0.87852670  0.36633857  0.38864643  1
  O  O184  1  0.87211403  0.38290039  0.88791183  1
  O  O185  1  0.88221136  0.88673038  0.37710172  1
  O  O186  1  0.88099603  0.88079078  0.88303269  1
  O  O187  1  0.24348552  0.01316927  0.37461501  1
  O  O188  1  0.22938276  0.01317182  0.85257661  1
  O  O189  1  0.25229491  0.50459467  0.36638729  1
  O  O190  1  0.25342307  0.51010283  0.86606134  1
  O  O191  1  0.76358497  0.01287623  0.38322136  1
  O  O192  1  0.75934245  0.01486689  0.87314680  1
  O  O193  1  0.75337622  0.49607969  0.36161016  1
  O  O194  1  0.75984793  0.50487470  0.87581937  1
  O  O195  1  0.24636469  0.49085031  0.13119911  1
  O  O196  1  0.24321513  0.49563147  0.63037005  1
  O  O197  1  0.24663063  0.98412650  0.12864214  1
  O  O198  1  0.23648189  0.99808320  0.63243324  1
  O  O199  1  0.75805605  0.48475494  0.13448527  1
  O  O200  1  0.74486967  0.49988411  0.62594519  1
  O  O201  1  0.73740750  1.00055720  0.11932395  1
  O  O202  1  0.74102568  0.99723053  0.62641257  1
  O  O203  1  0.01361294  0.36821475  0.24120548  1
  O  O204  1  0.01393927  0.36911515  0.74497646  1
  O  O205  1  0.00681217  0.86815333  0.25728512  1
  O  O206  1  0.00423426  0.86915442  0.75509314  1
  O  O207  1  0.50865142  0.37174223  0.24832528  1
  O  O208  1  0.51486442  0.37472050  0.75217252  1
  O  O209  1  0.52083884  0.87763365  0.24267908  1
  O  O210  1  0.49446721  0.86192137  0.74821764  1
  O  O211  1  0.49097600  0.12899121  0.24652175  1
  O  O212  1  0.48755305  0.11779137  0.74500619  1
  O  O213  1  0.48664708  0.62863090  0.24539212  1
  O  O214  1  0.49283619  0.63444726  0.74068459  1
  O  O215  1  1.00922817  0.13563281  0.23632138  1
  O  O216  1  1.00067468  0.13467607  0.74558997  1
  O  O217  1  0.99288476  0.62848334  0.24518290  1
  O  O218  1  0.99946487  0.63451232  0.74418372  1
  O  O219  1  0.37280773  0.24876656  0.01094528  1
  O  O220  1  0.37133670  0.26354082  0.49966906  1
  O  O221  1  0.36286977  0.74948535  -0.00656670  1
  O  O222  1  0.36654145  0.76904281  0.49956024  1
  O  O223  1  0.87813697  0.25787590  0.00627035  1
  O  O224  1  0.87126372  0.25902076  0.50733037  1
  O  O225  1  0.87775599  0.75388992  0.01386659  1
  O  O226  1  0.86968613  0.75402627  0.51250790  1
  O  O227  1  0.12700178  0.24806480  0.49356317  1
  O  O228  1  0.11968390  0.24259940  0.99035538  1
  O  O229  1  0.11642118  0.74291829  0.48888479  1
  O  O230  1  0.12909417  0.73454069  1.00262291  1
  O  O231  1  0.63458772  0.24962624  0.49326669  1
  O  O232  1  0.62623266  0.24070063  0.98981736  1
  O  O233  1  0.63983994  0.75632543  0.49857513  1
  O  O234  1  0.63783147  0.75731864  1.00267792  1
  O  O235  1  0.48916980  0.24101820  0.12550244  1
  O  O236  1  0.50131809  0.24074732  0.62882062  1
  O  O237  1  0.50259997  0.73539810  0.13663854  1
  O  O238  1  0.49706944  0.73773149  0.62475840  1
  O  O239  1  0.99606342  0.24445972  0.13185359  1
  O  O240  1  0.99527942  0.24720105  0.63663284  1
  O  O241  1  0.99423716  0.74276392  0.13247619  1
  O  O242  1  0.99255882  0.74756167  0.63263431  1
  O  O243  1  0.01120820  0.24255881  0.36662454  1
  O  O244  1  0.00831067  0.24879724  0.86334311  1
  O  O245  1  0.00386656  0.75487398  0.37043196  1
  O  O246  1  -0.00844178  0.75752020  0.86180943  1
  O  O247  1  0.51439519  0.25228514  0.37282042  1
  O  O248  1  0.50684154  0.24735580  0.87821275  1
  O  O249  1  0.49358080  0.75025525  0.36642462  1
  O  O250  1  0.49560232  0.74862028  0.86477345  1
  O  O251  1  0.24673435  0.13046181  0.49470100  1
  O  O252  1  0.24043731  0.11901398  1.00021196  1
  O  O253  1  0.24388742  0.61486652  0.48712832  1
  O  O254  1  0.24330689  0.62856772  0.99549412  1
  O  O255  1  0.74185249  0.13768789  0.49761320  1
  O  O256  1  0.74049682  0.12661769  0.99254006  1
  O  O257  1  0.75805881  0.64153390  0.49857866  1
  O  O258  1  0.73437126  0.63144366  1.00706191  1
  O  O259  1  0.25324489  0.37929378  0.01411191  1
  O  O260  1  0.25622887  0.37235610  0.50331080  1
  O  O261  1  0.23213680  0.85708154  0.01819067  1
  O  O262  1  0.25264869  0.87867610  0.51519331  1
  O  O263  1  0.75974732  0.37296685  0.00724221  1
  O  O264  1  0.76163464  0.36503636  0.49504577  1
  O  O265  1  0.76490486  0.86390673  0.00523827  1
  O  O266  1  0.75302710  0.86964540  0.51091195  1
  O  O267  1  0.13221664  0.49361399  0.24450367  1
  O  O268  1  0.12891315  0.49315956  0.74615415  1
  O  O269  1  0.12541645  0.98449275  0.25342702  1
  O  O270  1  0.12416753  0.98936568  0.74023799  1
  O  O271  1  0.63474409  0.48475995  0.25161708  1
  O  O272  1  0.62073195  0.48926830  0.74792268  1
  O  O273  1  0.62522484  0.99592351  0.23753544  1
  O  O274  1  0.63098030  0.99776866  0.74345987  1
  O  O275  1  0.37492882  0.01300126  0.24290021  1
  O  O276  1  0.36538794  0.01154062  0.74196989  1
  O  O277  1  0.36094121  0.50536388  0.25339558  1
  O  O278  1  0.36835716  0.50664043  0.75513735  1
  O  O279  1  0.88212494  0.00132811  0.25981419  1
  O  O280  1  0.86959019  0.00506766  0.75736021  1
  O  O281  1  0.87022522  0.50826132  0.24557120  1
  O  O282  1  0.87523768  0.49694951  0.76018488  1
  O  O283  1  0.12702434  0.36669528  0.36568335  1
  O  O284  1  0.13050763  0.36831236  0.86714362  1
  O  O285  1  0.12156704  0.86704305  0.37216806  1
  O  O286  1  0.11265330  0.87851646  0.86632734  1
  O  O287  1  0.61949797  0.36763225  0.36701469  1
  O  O288  1  0.61987328  0.36000716  0.88251853  1
  O  O289  1  0.62722988  0.88238659  0.36606678  1
  O  O290  1  0.67613421  0.86825446  0.85909442  1
  O  O291  1  0.37180004  0.13063100  0.13084564  1
  O  O292  1  0.38683233  0.12831666  0.63041525  1
  O  O293  1  0.38392870  0.62194132  0.13177229  1
  O  O294  1  0.38161396  0.61863236  0.63709132  1
  O  O295  1  0.88392516  0.13769100  0.11807388  1
  O  O296  1  0.88290113  0.13909879  0.62662101  1
  O  O297  1  0.88052052  0.63111327  0.12999022  1
  O  O298  1  0.88284110  0.63430204  0.62716345  1
  O  O299  1  0.25081699  0.26149541  0.12798096  1
  O  O300  1  0.25091690  0.25780827  0.61536345  1
  O  O301  1  0.24839464  0.75301534  0.11785224  1
  O  O302  1  0.24264114  0.76088263  0.62584433  1
  O  O303  1  0.76172298  0.25675970  0.12261953  1
  O  O304  1  0.75909066  0.24691003  0.61739140  1
  O  O305  1  0.75873268  0.75024512  0.11689282  1
  O  O306  1  0.75388980  0.75708294  0.61893940  1
  O  O307  1  0.23639060  0.24544211  0.37945560  1
  O  O308  1  0.23707828  0.24479135  0.86928418  1
  O  O309  1  0.23767564  0.73758739  0.37233087  1
  O  O310  1  0.24770062  0.73357278  0.88114462  1
  O  O311  1  0.74312998  0.24612571  0.38249193  1
  O  O312  1  0.75163138  0.23955104  0.87739205  1
  O  O313  1  0.75716933  0.75481689  0.39312355  1
  O  O314  1  0.76917134  0.73552306  0.90076596  1
  O  O315  1  0.01024522  0.12418556  0.01198828  1
  O  O316  1  0.00716418  0.12119229  0.50698795  1
  O  O317  1  0.00647256  0.61854044  0.00289265  1
  O  O318  1  0.00303509  0.61744161  0.50463159  1
  O  O319  1  0.51387029  0.11446901  -0.00094106  1
  O  O320  1  0.52005589  0.13753403  0.51439992  1
  O  O321  1  0.50889074  0.62592513  0.01214690  1
  O  O322  1  0.48532767  0.61836057  0.51157966  1
  O  O323  1  0.49217114  0.38060993  0.49162335  1
  O  O324  1  0.48445945  0.38571422  1.03847518  1
  O  O325  1  0.48641083  0.87496155  0.50135032  1
  O  O326  1  0.50115329  0.88392643  1.00261646  1
  O  O327  1  0.98827647  0.38229908  0.50207742  1
  O  O328  1  0.99263636  0.38468832  1.00717160  1
  O  O329  1  1.00027997  0.88612351  0.49388042  1
  O  O330  1  0.99359151  0.87171076  0.99161898  1
  O  O331  1  0.49118085  0.49362886  0.37741655  1
  O  O332  1  0.48308531  0.50563485  0.87087535  1
  O  O333  1  0.49262588  1.04559386  0.39193915  1
  O  O334  1  0.51463367  0.99539004  0.89078240  1
  O  O335  1  1.00454113  0.50304391  0.38701597  1
  O  O336  1  0.99541451  0.49991713  0.88678865  1
  O  O337  1  0.99498367  1.00007676  0.38317197  1
  O  O338  1  0.99267669  0.99125379  0.87459369  1
  O  O339  1  0.00527347  0.00864583  0.12291854  1
  O  O340  1  0.00802949  0.00405426  0.62024484  1
  O  O341  1  0.00543863  0.50493719  0.11524023  1
  O  O342  1  0.00516466  0.50576104  0.61765557  1
  O  O343  1  0.51716274  0.00333703  0.11413148  1
  O  O344  1  0.51224500  0.00880047  0.62351820  1
  O  O345  1  0.50659822  0.52455538  0.14188583  1
  O  O346  1  0.50120290  0.50985307  0.61453411  1
  O  O347  1  0.23898769  0.38053094  0.24479877  1
  O  O348  1  0.24025943  0.37884219  0.74313223  1
  O  O349  1  0.24321043  0.87202309  0.24342364  1
  O  O350  1  0.24077003  0.88055474  0.73836579  1
  O  O351  1  0.74729037  0.37863627  0.24353886  1
  O  O352  1  0.72506236  0.37889049  0.76233712  1
  O  O353  1  0.73625459  0.87805498  0.24844615  1
  O  O354  1  0.76259711  0.88474480  0.73081175  1
  O  O355  1  0.25274103  0.12053723  0.25764906  1
  O  O356  1  0.26288411  0.11764275  0.74522102  1
  O  O357  1  0.25073016  0.61548632  0.25707805  1
  O  O358  1  0.25441471  0.62205358  0.75490522  1
  O  O359  1  0.74963164  0.13242122  0.26340631  1
  O  O360  1  0.75227178  0.12064087  0.75762393  1
  O  O361  1  0.75832703  0.61331643  0.24387862  1
  O  O362  1  0.74827991  0.62172426  0.75442297  1
  O  O363  1  0.35790149  0.14175003  0.36163047  1
  O  O364  1  0.37451682  0.12432718  0.86243294  1
  O  O365  1  0.36459260  0.61783764  0.36791275  1
  O  O366  1  0.36719852  0.61564134  0.86505643  1
  O  O367  1  0.86768932  0.11922736  0.38000328  1
  O  O368  1  0.87096856  0.12069682  0.87640110  1
  O  O369  1  0.87009818  0.63069421  0.36136941  1
  O  O370  1  0.87831843  0.60992753  0.87287409  1
  O  O371  1  0.13549092  0.37873156  0.12997656  1
  O  O372  1  0.13017566  0.38076849  0.63127918  1
  O  O373  1  0.12464557  0.87213791  0.13814106  1
  O  O374  1  0.13000143  0.88203713  0.62938110  1
  O  O375  1  0.63894792  0.36198524  0.13251399  1
  O  O376  1  0.62018948  0.37526303  0.63410738  1
  O  O377  1  0.63180211  0.88766739  0.12724358  1
  O  O378  1  0.63126465  0.88471389  0.62708462  1
  O  O379  1  0.11789617  0.25700924  0.25645826  1
  O  O380  1  0.11984824  0.25720501  0.75598261  1
  O  O381  1  0.11912867  0.75587432  0.26125964  1
  O  O382  1  0.11336613  0.76316846  0.74474309  1
  O  O383  1  0.62763564  0.25878950  0.25764145  1
  O  O384  1  0.62489741  0.25885468  0.76504298  1
  O  O385  1  0.62927663  0.76492465  0.25612346  1
  O  O386  1  0.60387397  0.75271332  0.74622313  1
  O  O387  1  0.37289129  0.23884781  0.23708737  1
  O  O388  1  0.36922168  0.23344086  0.74701451  1
  O  O389  1  0.36495243  0.73758946  0.25064843  1
  O  O390  1  0.38331648  0.74043015  0.75386233  1
  O  O391  1  0.88944084  0.25688275  0.24256836  1
  O  O392  1  0.88271229  0.25551635  0.74615667  1
  O  O393  1  0.87692429  0.74539421  0.24114042  1
  O  O394  1  0.88015393  0.75117988  0.73792334  1
  O  O395  1  0.38147628  0.48858208  0.49272564  1
  O  O396  1  0.36823908  0.50080589  0.98144155  1
  O  O397  1  0.37686975  0.97910342  0.51563949  1
  O  O398  1  0.39627435  1.00116514  1.00220298  1
  O  O399  1  0.88077609  0.48661692  0.50154310  1
  O  O400  1  0.88251122  0.49422399  0.99593468  1
  O  O401  1  0.88768052  1.00375340  0.50083468  1
  O  O402  1  0.87922406  0.99020381  0.99550940  1
  O  O403  1  0.12474156  0.00796690  -0.00284951  1
  O  O404  1  0.11529901  0.00517079  0.50643194  1
  O  O405  1  0.11921277  0.50570065  0.00391045  1
  O  O406  1  0.11684095  0.50397117  0.50451990  1
  O  O407  1  0.62301727  0.00506520  0.00791544  1
  O  O408  1  0.62532229  0.01015795  0.50811877  1
  O  O409  1  0.63059905  0.50514361  0.00591306  1
  O  O410  1  0.60839693  0.49307134  0.49555747  1
  O  O411  1  0.35745121  0.36375855  0.13652453  1
  O  O412  1  0.37053946  0.37567437  0.61705141  1
  O  O413  1  0.36720773  0.87666642  0.12050753  1
  O  O414  1  0.35899668  0.87157826  0.62862655  1
  O  O415  1  0.87151637  0.36479662  0.11598158  1
  O  O416  1  0.88018104  0.36342187  0.61562142  1
  O  O417  1  0.87742401  0.86717590  0.11902863  1
  O  O418  1  0.87033817  0.86891095  0.61971199  1
  O  O419  1  0.13131683  0.13295901  0.38135741  1
  O  O420  1  0.12332692  0.13509618  0.88475792  1
  O  O421  1  0.13036812  0.63094716  0.37875017  1
  O  O422  1  0.13280870  0.61715287  0.88431905  1
  O  O423  1  0.63579677  0.13333277  0.38297803  1
  O  O424  1  0.63249229  0.13521220  0.87928405  1
  O  O425  1  0.63371755  0.62642416  0.36560244  1
  O  O426  1  0.62030675  0.61995749  0.89672558  1
