# generated using pymatgen
data_V85Zn86O256
_symmetry_space_group_name_H-M   'P 1'
_cell_length_a   16.93675618
_cell_length_b   16.92105552
_cell_length_c   16.93612195
_cell_angle_alpha   89.95367063
_cell_angle_beta   90.10787337
_cell_angle_gamma   89.99852779
_symmetry_Int_Tables_number   1
_chemical_formula_structural   V85Zn86O256
_chemical_formula_sum   'V85 Zn86 O256'
_cell_volume   4853.67559765
_cell_formula_units_Z   1
loop_
 _symmetry_equiv_pos_site_id
 _symmetry_equiv_pos_as_xyz
  1  'x, y, z'
loop_
 _atom_site_type_symbol
 _atom_site_label
 _atom_site_symmetry_multiplicity
 _atom_site_fract_x
 _atom_site_fract_y
 _atom_site_fract_z
 _atom_site_occupancy
  V  V0  1  0.49988030  0.38423352  0.37435896  1
  V  V1  1  0.12857373  0.13309350  0.49432759  1
  V  V2  1  0.87632545  0.25256110  0.12503243  1
  V  V3  1  0.00629001  0.50375448  0.50074241  1
  V  V4  1  0.37003557  -0.00079675  0.37586438  1
  V  V5  1  0.11521355  0.87112991  0.24178711  1
  V  V6  1  -0.00058661  -0.00220621  0.49668261  1
  V  V7  1  0.74791062  0.37711910  0.62539588  1
  V  V8  1  0.74888228  0.50280185  0.24288049  1
  V  V9  1  0.23759272  0.25443047  -0.00340137  1
  V  V10  1  0.87713899  0.25073122  0.62866869  1
  V  V11  1  0.37406045  0.51422721  0.87237424  1
  V  V12  1  0.00753624  0.62722679  0.12396188  1
  V  V13  1  0.49180060  0.62821917  0.12604048  1
  V  V14  1  0.12658923  -0.01037049  0.62248134  1
  V  V15  1  0.74899517  0.62570471  0.87656789  1
  V  V16  1  0.01093262  0.50210875  -0.00065146  1
  V  V17  1  0.87762475  0.49882274  0.87546999  1
  V  V18  1  0.49244972  0.12508664  0.62072344  1
  V  V19  1  0.74557652  -0.00131247  0.24798061  1
  V  V20  1  0.87469916  -0.00155318  0.37604142  1
  V  V21  1  0.25515015  0.37020000  0.62632859  1
  V  V22  1  0.61562981  0.74816818  0.87243788  1
  V  V23  1  0.24230304  0.13274243  0.87372195  1
  V  V24  1  0.62895959  0.62133403  0.01158481  1
  V  V25  1  0.24894570  -0.00675640  0.74928615  1
  V  V26  1  0.49314263  0.87298517  0.37202942  1
  V  V27  1  0.00315264  0.36121856  0.87176520  1
  V  V28  1  0.50476658  0.50434747  0.51555318  1
  V  V29  1  0.00722385  0.37026220  0.37752590  1
  V  V30  1  0.74535515  0.24310979  -0.00009508  1
  V  V31  1  0.62590417  0.38076330  0.24154853  1
  V  V32  1  0.87578774  0.50013528  0.37423669  1
  V  V33  1  0.12459291  0.36347973  0.75339092  1
  V  V34  1  0.88989098  -0.00330763  0.87551832  1
  V  V35  1  0.62611589  0.00327000  0.62349570  1
  V  V36  1  0.12395388  0.72959296  0.88091519  1
  V  V37  1  0.50043118  0.25122702  0.25030736  1
  V  V38  1  0.74993405  0.63044028  0.38181170  1
  V  V39  1  0.12924839  0.50380654  0.62631079  1
  V  V40  1  0.75051327  0.25181806  0.50026881  1
  V  V41  1  0.87631237  0.12698222  0.25066790  1
  V  V42  1  0.24539269  0.88132303  0.12496776  1
  V  V43  1  0.49927992  0.64739849  0.63168622  1
  V  V44  1  0.23636872  0.76210943  0.49471936  1
  V  V45  1  0.62610094  0.25324831  0.37469728  1
  V  V46  1  0.87640523  0.37432839  -0.00176661  1
  V  V47  1  0.37261187  0.00132767  0.88021560  1
  V  V48  1  0.87648863  0.62618974  0.74995752  1
  V  V49  1  0.49577683  0.24667108  0.74601346  1
  V  V50  1  0.12212443  0.11360515  0.00252681  1
  V  V51  1  0.37384466  0.37531136  -0.00383715  1
  V  V52  1  0.37416856  0.25040690  0.12291200  1
  V  V53  1  0.25051609  0.38182384  0.12982772  1
  V  V54  1  0.75025940  0.86769770  0.61693178  1
  V  V55  1  0.49028869  0.75026112  0.24548960  1
  V  V56  1  0.62217771  0.37642368  0.74616950  1
  V  V57  1  0.11515375  0.87736388  0.76673424  1
  V  V58  1  0.50043378  -0.00377023  0.49670772  1
  V  V59  1  0.37011564  0.12639831  0.74317145  1
  V  V60  1  0.00567577  0.85670447  0.37348871  1
  V  V61  1  0.00026522  0.12770744  0.62838879  1
  V  V62  1  0.87618982  0.37522021  0.50105682  1
  V  V63  1  0.37211437  0.12487659  0.25030232  1
  V  V64  1  0.24937750  0.73907167  0.00344676  1
  V  V65  1  0.50639195  0.49835150  0.00418236  1
  V  V66  1  0.37361944  0.87393717  0.00791228  1
  V  V67  1  0.50738689  0.12271527  0.11768754  1
  V  V68  1  0.49949874  0.37526442  0.87300705  1
  V  V69  1  0.25200331  0.51357655  0.75187378  1
  V  V70  1  0.87564424  0.13045087  0.75328068  1
  V  V71  1  0.23418896  0.62141505  0.37813301  1
  V  V72  1  0.62202639  0.23674077  0.87522390  1
  V  V73  1  0.88549038  0.87689693  -0.00651208  1
  V  V74  1  0.74446816  0.50081327  0.74490216  1
  V  V75  1  0.88062700  0.63093915  0.25053542  1
  V  V76  1  0.00293466  0.62964049  0.62408980  1
  V  V77  1  0.87698231  0.75213210  0.12551030  1
  V  V78  1  0.75016436  0.12642016  0.37594268  1
  V  V79  1  0.75300035  -0.00176456  0.75122496  1
  V  V80  1  0.62431867  0.75094559  0.37859374  1
  V  V81  1  0.00448426  0.11412037  0.12277671  1
  V  V82  1  0.37692983  0.37142192  0.50315843  1
  V  V83  1  0.00884003  0.24909535  0.25238525  1
  V  V84  1  0.12942703  0.38211394  0.25228262  1
  Zn  Zn85  1  0.62683185  0.86891192  0.75095744  1
  Zn  Zn86  1  0.51047171  -0.00025252  -0.00270748  1
  Zn  Zn87  1  0.36748963  0.50226886  0.36944305  1
  Zn  Zn88  1  0.87196173  0.86568217  0.49510167  1
  Zn  Zn89  1  -0.00358100  0.75501715  0.75674158  1
  Zn  Zn90  1  0.13219937  0.50810607  0.12497688  1
  Zn  Zn91  1  0.25386330  0.25063093  0.49779330  1
  Zn  Zn92  1  0.75053651  0.87511877  0.12245869  1
  Zn  Zn93  1  0.49724944  0.86971283  0.88101269  1
  Zn  Zn94  1  0.34458068  0.78844355  0.61610787  1
  Zn  Zn95  1  0.62425489  0.87351418  0.24397438  1
  Zn  Zn96  1  0.74352090  0.11495074  0.88173034  1
  Zn  Zn97  1  0.75074485  0.75274176  0.00082704  1
  Zn  Zn98  1  0.36384164  0.62015919  0.25243282  1
  Zn  Zn99  1  0.62800667  0.62545660  0.50566375  1
  Zn  Zn100  1  0.87001585  0.74685511  0.62077196  1
  Zn  Zn101  1  0.63392927  0.00074565  0.10991397  1
  Zn  Zn102  1  0.37666488  0.65277295  0.74719464  1
  Zn  Zn103  1  0.24154295  0.00161161  0.24707860  1
  Zn  Zn104  1  0.62346988  0.12825546  0.49867456  1
  Zn  Zn105  1  0.24066399  0.13189850  0.36826659  1
  Zn  Zn106  1  0.74580904  0.37988394  0.11882589  1
  Zn  Zn107  1  0.18708744  0.19101883  0.18406985  1
  Zn  Zn108  1  0.18815108  0.18475107  0.67923902  1
  Zn  Zn109  1  0.18845118  0.69524452  0.19294914  1
  Zn  Zn110  1  0.18513898  0.69319917  0.68690372  1
  Zn  Zn111  1  0.68883760  0.18980102  0.18813703  1
  Zn  Zn112  1  0.68746724  0.18608017  0.68911381  1
  Zn  Zn113  1  0.68751355  0.69108984  0.19256596  1
  Zn  Zn114  1  0.68113707  0.68502542  0.68769024  1
  Zn  Zn115  1  0.31149209  0.31167931  0.31718582  1
  Zn  Zn116  1  0.31200854  0.31405402  0.81070368  1
  Zn  Zn117  1  0.30560656  0.80722611  0.31386610  1
  Zn  Zn118  1  0.30415975  0.81305581  0.81883013  1
  Zn  Zn119  1  0.81483350  0.31580964  0.31125418  1
  Zn  Zn120  1  0.80971473  0.31054548  0.81600329  1
  Zn  Zn121  1  0.81409148  0.81204616  0.31243018  1
  Zn  Zn122  1  0.81075467  0.81221828  0.81271905  1
  Zn  Zn123  1  0.18915566  0.44028474  0.43844345  1
  Zn  Zn124  1  0.18904714  0.44001618  0.93248314  1
  Zn  Zn125  1  0.18419682  0.94034161  0.43098179  1
  Zn  Zn126  1  0.18987220  0.93787598  0.93948944  1
  Zn  Zn127  1  0.68564492  0.44261768  0.43474508  1
  Zn  Zn128  1  0.68723431  0.43421085  0.93267711  1
  Zn  Zn129  1  0.68273648  0.93665259  0.43416207  1
  Zn  Zn130  1  0.69234417  0.93527322  0.94267372  1
  Zn  Zn131  1  0.31025903  0.06345013  0.06309707  1
  Zn  Zn132  1  0.34196847  -0.00312996  0.59072099  1
  Zn  Zn133  1  0.31663574  0.56058249  0.06207457  1
  Zn  Zn134  1  0.31841738  0.57185769  0.55481224  1
  Zn  Zn135  1  0.81865821  0.06105557  0.06102892  1
  Zn  Zn136  1  0.81327169  0.06077510  0.56192555  1
  Zn  Zn137  1  0.81885434  0.56305954  0.06284653  1
  Zn  Zn138  1  0.81564452  0.56189323  0.56287538  1
  Zn  Zn139  1  0.43691420  0.44138030  0.18560974  1
  Zn  Zn140  1  0.43452613  0.44084010  0.68855175  1
  Zn  Zn141  1  0.43527198  0.93880774  0.18686607  1
  Zn  Zn142  1  0.43974555  0.86727723  0.70982150  1
  Zn  Zn143  1  0.93987831  0.43972232  0.18760327  1
  Zn  Zn144  1  0.93964492  0.43872158  0.68930873  1
  Zn  Zn145  1  0.93388900  0.93491143  0.18984773  1
  Zn  Zn146  1  0.93681230  0.93817361  0.68563533  1
  Zn  Zn147  1  0.06364240  0.05731755  0.31004183  1
  Zn  Zn148  1  0.06462484  0.06884041  0.81155797  1
  Zn  Zn149  1  0.06295163  0.56317423  0.31111712  1
  Zn  Zn150  1  0.06187820  0.55667207  0.80981111  1
  Zn  Zn151  1  0.56170041  0.06477112  0.30996296  1
  Zn  Zn152  1  0.55509114  0.04788545  0.80499484  1
  Zn  Zn153  1  0.56149178  0.56449028  0.31125433  1
  Zn  Zn154  1  0.56040628  0.56532905  0.81097976  1
  Zn  Zn155  1  0.43441245  0.18938270  0.43599771  1
  Zn  Zn156  1  0.43102911  0.18817312  0.93505239  1
  Zn  Zn157  1  0.42165938  0.69021457  0.44244070  1
  Zn  Zn158  1  0.43521384  0.68840482  0.94427805  1
  Zn  Zn159  1  0.93967158  0.18707597  0.43943752  1
  Zn  Zn160  1  0.93670558  0.18303735  0.93924507  1
  Zn  Zn161  1  0.93519412  0.68722061  0.44356801  1
  Zn  Zn162  1  0.94096184  0.68951248  0.94014845  1
  Zn  Zn163  1  0.06238195  0.31308606  0.06501209  1
  Zn  Zn164  1  0.06293898  0.31361411  0.56894597  1
  Zn  Zn165  1  0.06365207  0.80985239  0.06106248  1
  Zn  Zn166  1  0.06780901  0.80997436  0.56050373  1
  Zn  Zn167  1  0.56235817  0.30918817  0.06089903  1
  Zn  Zn168  1  0.56076879  0.31161115  0.56324179  1
  Zn  Zn169  1  0.56600310  0.81317010  0.06192100  1
  Zn  Zn170  1  0.56484197  0.81636035  0.55780676  1
  O  O171  1  0.11608322  0.12974583  0.11662076  1
  O  O172  1  0.11500425  0.11535649  0.61927891  1
  O  O173  1  0.11147492  0.62595329  0.13481154  1
  O  O174  1  0.11642984  0.61138123  0.63551306  1
  O  O175  1  0.60985200  0.12794638  0.12999472  1
  O  O176  1  0.62064167  0.11628542  0.62242368  1
  O  O177  1  0.62274514  0.62647373  0.11420315  1
  O  O178  1  0.60780427  0.62996663  0.62135103  1
  O  O179  1  0.38532007  0.37922380  0.38240837  1
  O  O180  1  0.38279908  0.38036703  0.87887404  1
  O  O181  1  0.38525825  0.88453278  0.36583371  1
  O  O182  1  0.37177366  0.88603308  0.88631210  1
  O  O183  1  0.88572945  0.38064610  0.37997757  1
  O  O184  1  0.88240793  0.37958729  0.87667289  1
  O  O185  1  0.88729992  0.88129945  0.37333696  1
  O  O186  1  0.87519097  0.87941268  0.88404411  1
  O  O187  1  0.25792182  0.00875519  0.37167206  1
  O  O188  1  0.25469801  0.01029522  0.87068872  1
  O  O189  1  0.24934545  0.51302976  0.37813213  1
  O  O190  1  0.26172060  0.49772501  0.86550776  1
  O  O191  1  0.75529404  0.00520153  0.37025617  1
  O  O192  1  0.75832818  -0.00171895  0.86231905  1
  O  O193  1  0.75760617  0.50554227  0.36541122  1
  O  O194  1  0.75504472  0.50791476  0.86571477  1
  O  O195  1  0.24981083  0.48663078  0.11811566  1
  O  O196  1  0.24404921  0.49449058  0.63023758  1
  O  O197  1  0.25146346  0.98653286  0.12558097  1
  O  O198  1  0.23710561  1.00782079  0.63898527  1
  O  O199  1  0.75728751  0.49873102  0.13831583  1
  O  O200  1  0.75404875  0.49500230  0.63747309  1
  O  O201  1  0.75283102  1.00407524  0.13531411  1
  O  O202  1  0.74503744  0.99461452  0.63104640  1
  O  O203  1  0.00487250  0.36863676  0.25818638  1
  O  O204  1  0.01461231  0.38070362  0.75681539  1
  O  O205  1  0.00479479  0.87855938  0.26135678  1
  O  O206  1  0.01110193  0.87387163  0.74722969  1
  O  O207  1  0.50780209  0.37169473  0.25601635  1
  O  O208  1  0.50496346  0.36923289  0.75170916  1
  O  O209  1  0.50099989  0.86901216  0.25410895  1
  O  O210  1  0.51942841  0.90006674  0.77363250  1
  O  O211  1  0.49296674  0.13223890  0.24136845  1
  O  O212  1  0.48869437  0.12456180  0.74064992  1
  O  O213  1  0.50446471  0.63278859  0.23917673  1
  O  O214  1  0.49833218  0.62561823  0.73517082  1
  O  O215  1  0.99655154  0.13298808  0.24638287  1
  O  O216  1  0.99222480  0.12080886  0.73670257  1
  O  O217  1  0.98664576  0.61598971  0.24218580  1
  O  O218  1  0.99068601  0.62227500  0.74366195  1
  O  O219  1  0.36584259  0.25719910  0.00448711  1
  O  O220  1  0.38119331  0.26676433  0.50165894  1
  O  O221  1  0.35896416  0.75900499  -0.00677767  1
  O  O222  1  0.35429727  0.75049973  0.50789585  1
  O  O223  1  0.86953087  0.25559336  0.00689025  1
  O  O224  1  0.86953622  0.25664301  0.50623416  1
  O  O225  1  0.87355961  0.75860894  0.00457573  1
  O  O226  1  0.87391871  0.75296294  0.50772887  1
  O  O227  1  0.11947442  0.23546128  0.50640509  1
  O  O228  1  0.13534759  0.24646557  1.00341979  1
  O  O229  1  0.13367881  0.74867134  0.49455153  1
  O  O230  1  0.13204613  0.74951622  0.98841601  1
  O  O231  1  0.63238157  0.25178694  0.49230224  1
  O  O232  1  0.63308528  0.25444130  0.98889876  1
  O  O233  1  0.61983466  0.74753252  0.48370812  1
  O  O234  1  0.62973734  0.73742646  0.99143148  1
  O  O235  1  0.49416012  0.24253850  0.12937513  1
  O  O236  1  0.50515311  0.23323652  0.62964009  1
  O  O237  1  0.50654434  0.74003783  0.13235941  1
  O  O238  1  0.49906945  0.74939885  0.62493435  1
  O  O239  1  0.99267588  0.24661349  0.13401746  1
  O  O240  1  0.98935089  0.24082808  0.62179938  1
  O  O241  1  0.98819213  0.73998299  0.11854886  1
  O  O242  1  1.00429749  0.73736178  0.63067474  1
  O  O243  1  -0.00690128  0.25898425  0.36566520  1
  O  O244  1  -0.00545651  0.26209490  0.87717279  1
  O  O245  1  -0.00227738  0.75891696  0.37566268  1
  O  O246  1  0.01734415  0.74407185  0.87414278  1
  O  O247  1  0.50615338  0.26188591  0.37081472  1
  O  O248  1  0.50400470  0.25357028  0.86815811  1
  O  O249  1  0.50159240  0.75760613  0.36994219  1
  O  O250  1  0.51240959  0.74719110  0.87956497  1
  O  O251  1  0.22946808  0.12646514  0.50366235  1
  O  O252  1  0.24391409  0.13445378  0.99432554  1
  O  O253  1  0.24868892  0.62904724  0.48651503  1
  O  O254  1  0.25394944  0.63970825  1.00692863  1
  O  O255  1  0.74993593  0.13276736  0.49348151  1
  O  O256  1  0.75745724  0.13910167  0.99857021  1
  O  O257  1  0.74900979  0.61493155  0.48593653  1
  O  O258  1  0.74487410  0.62041510  0.99203935  1
  O  O259  1  0.25300118  0.37006067  0.00393217  1
  O  O260  1  0.25957923  0.37804019  0.50861341  1
  O  O261  1  0.25357034  0.86993132  0.00677123  1
  O  O262  1  0.24211672  0.86488841  0.49180088  1
  O  O263  1  0.75700089  0.36631899  -0.00131119  1
  O  O264  1  0.75509673  0.37402612  0.50489518  1
  O  O265  1  0.76589569  0.87055814  0.00354087  1
  O  O266  1  0.74890201  0.88282976  0.51397681  1
  O  O267  1  0.11796087  0.48493546  0.24480382  1
  O  O268  1  0.13510451  0.49232418  0.74514563  1
  O  O269  1  0.12721731  0.98310575  0.25536465  1
  O  O270  1  0.12672323  0.99290929  0.74605890  1
  O  O271  1  0.63522029  0.49200571  0.25529485  1
  O  O272  1  0.63356153  0.49022960  0.75759504  1
  O  O273  1  0.63870882  1.00316525  0.24946823  1
  O  O274  1  0.63827412  1.00439488  0.73921030  1
  O  O275  1  0.37311014  0.00889389  0.25824993  1
  O  O276  1  0.36082436  0.01207240  0.76122508  1
  O  O277  1  0.38404626  0.50596390  0.25522398  1
  O  O278  1  0.36604867  0.49735412  0.75958044  1
  O  O279  1  0.86655778  0.00767124  0.25704004  1
  O  O280  1  0.87030247  0.00791657  0.75376256  1
  O  O281  1  0.86919671  0.50508542  0.25623808  1
  O  O282  1  0.86851476  0.50840124  0.75569498  1
  O  O283  1  0.11439590  0.37766409  0.37018607  1
  O  O284  1  0.11971516  0.37667089  0.86149770  1
  O  O285  1  0.10859435  0.87765852  0.36727764  1
  O  O286  1  0.11958934  0.87913506  0.86734481  1
  O  O287  1  0.62028983  0.37021419  0.36621563  1
  O  O288  1  0.61889973  0.36532367  0.86330217  1
  O  O289  1  0.61312520  0.86958398  0.36974472  1
  O  O290  1  0.63219816  0.85335491  0.88156077  1
  O  O291  1  0.38063109  0.12952704  0.13409276  1
  O  O292  1  0.38177276  0.10901056  0.63244982  1
  O  O293  1  0.38878689  0.62397587  0.12531885  1
  O  O294  1  0.39334167  0.62167735  0.62903010  1
  O  O295  1  0.88176628  0.13749479  0.12879591  1
  O  O296  1  0.88061695  0.12913852  0.63166388  1
  O  O297  1  0.88259029  0.63068075  0.13255288  1
  O  O298  1  0.88290205  0.62346360  0.63436679  1
  O  O299  1  0.25573593  0.26069748  0.11639131  1
  O  O300  1  0.24450965  0.26587154  0.61917809  1
  O  O301  1  0.23992379  0.76174748  0.10954672  1
  O  O302  1  0.23817348  0.74786309  0.60644677  1
  O  O303  1  0.75733810  0.25338011  0.11819793  1
  O  O304  1  0.75622648  0.25600340  0.62054053  1
  O  O305  1  0.76383236  0.74642397  0.12363203  1
  O  O306  1  0.74438607  0.76535696  0.63051116  1
  O  O307  1  0.25669383  0.24300770  0.38464316  1
  O  O308  1  0.25397529  0.24503327  0.88415100  1
  O  O309  1  0.25120690  0.73929988  0.38587143  1
  O  O310  1  0.23446558  0.75469857  0.88931940  1
  O  O311  1  0.74653205  0.24817158  0.37947146  1
  O  O312  1  0.73909355  0.24586161  0.88173540  1
  O  O313  1  0.74054627  0.74084542  0.36745040  1
  O  O314  1  0.74655351  0.73485766  0.87579857  1
  O  O315  1  0.00995552  0.13207886  0.01034151  1
  O  O316  1  0.00327568  0.11730208  0.50948000  1
  O  O317  1  -0.00704770  0.61291980  0.01027927  1
  O  O318  1  -0.00385283  0.61349735  0.51042763  1
  O  O319  1  0.49088515  0.12934277  0.01622673  1
  O  O320  1  0.50045849  0.11833944  0.50364206  1
  O  O321  1  0.50753563  0.61870957  0.00660323  1
  O  O322  1  0.49840156  0.61606940  0.51179057  1
  O  O323  1  0.49831102  0.38317030  0.49506563  1
  O  O324  1  0.49698647  0.38131836  0.99430189  1
  O  O325  1  0.50498464  0.88925383  0.48910445  1
  O  O326  1  0.48917761  0.87661161  0.99847248  1
  O  O327  1  0.99658555  0.37902786  0.49470138  1
  O  O328  1  0.99595699  0.37974200  0.99280475  1
  O  O329  1  1.00125954  0.88114983  0.48854498  1
  O  O330  1  0.98483907  0.87305819  1.00445813  1
  O  O331  1  0.50490681  0.48967504  0.38178017  1
  O  O332  1  0.49401826  0.49541276  0.88145747  1
  O  O333  1  0.49632741  0.99477196  0.37780222  1
  O  O334  1  0.47950623  1.01366309  0.88267329  1
  O  O335  1  0.99599198  0.49370266  0.38382367  1
  O  O336  1  0.99538642  0.49285461  0.88196168  1
  O  O337  1  0.99278279  1.00118059  0.38624932  1
  O  O338  1  0.98870215  1.00505678  0.86929814  1
  O  O339  1  -0.00953216  0.01594053  0.13086404  1
  O  O340  1  0.00338636  0.00528351  0.61373710  1
  O  O341  1  0.00100386  0.50617413  0.11531596  1
  O  O342  1  0.00656451  0.50648579  0.61999384  1
  O  O343  1  0.50051286  0.01522474  0.12473435  1
  O  O344  1  0.51197755  0.01056627  0.61279752  1
  O  O345  1  0.50143740  0.50503544  0.10947105  1
  O  O346  1  0.50510308  0.49572853  0.61558320  1
  O  O347  1  0.24155135  0.36787646  0.24159695  1
  O  O348  1  0.24151753  0.38114241  0.74434921  1
  O  O349  1  0.24046553  0.87385760  0.24091824  1
  O  O350  1  0.23362387  0.88827848  0.75776636  1
  O  O351  1  0.74291917  0.38367789  0.24878190  1
  O  O352  1  0.74278329  0.38163744  0.74792962  1
  O  O353  1  0.75060691  0.88623792  0.24842261  1
  O  O354  1  0.74741124  0.88294170  0.74112643  1
  O  O355  1  0.25780310  0.12477544  0.24687433  1
  O  O356  1  0.25065953  0.12196638  0.75555500  1
  O  O357  1  0.24890748  0.63618256  0.26708363  1
  O  O358  1  0.25598634  0.61649747  0.74365897  1
  O  O359  1  0.75742720  0.12231313  0.25635982  1
  O  O360  1  0.75965397  0.11596826  0.75012484  1
  O  O361  1  0.75822274  0.61840603  0.25775865  1
  O  O362  1  0.75414040  0.61767867  0.75415141  1
  O  O363  1  0.37907127  0.11977888  0.36090431  1
  O  O364  1  0.36000027  0.12220720  0.86977794  1
  O  O365  1  0.36811951  0.62019658  0.37276561  1
  O  O366  1  0.38310249  0.61736624  0.86740996  1
  O  O367  1  0.87031399  0.11987477  0.37093814  1
  O  O368  1  0.87250805  0.11773648  0.86765016  1
  O  O369  1  0.87036422  0.62088321  0.36778898  1
  O  O370  1  0.86831770  0.62053227  0.86956841  1
  O  O371  1  0.13402205  0.37597536  0.13310761  1
  O  O372  1  0.12865078  0.38497040  0.63563598  1
  O  O373  1  0.12629648  0.87556469  0.13379159  1
  O  O374  1  0.11763691  0.88722111  0.63462696  1
  O  O375  1  0.62552109  0.37024732  0.13753559  1
  O  O376  1  0.63110095  0.36816796  0.63859785  1
  O  O377  1  0.63135249  0.88051617  0.12675400  1
  O  O378  1  0.63316183  0.88634994  0.62539239  1
  O  O379  1  0.11303322  0.25918423  0.24610848  1
  O  O380  1  0.12871096  0.26485215  0.74324360  1
  O  O381  1  0.12219328  0.77079792  0.25147331  1
  O  O382  1  0.12689380  0.76226904  0.76479938  1
  O  O383  1  0.62086497  0.25838005  0.25618436  1
  O  O384  1  0.61789225  0.25527751  0.75606367  1
  O  O385  1  0.61457370  0.75100160  0.26084610  1
  O  O386  1  0.62853541  0.74843317  0.76818712  1
  O  O387  1  0.38210177  0.24523906  0.24353837  1
  O  O388  1  0.37882534  0.23554565  0.75253226  1
  O  O389  1  0.38784304  0.74761906  0.25185700  1
  O  O390  1  0.36946459  0.76941411  0.73756554  1
  O  O391  1  0.88223663  0.24705616  0.24266568  1
  O  O392  1  0.86840219  0.23757496  0.74679130  1
  O  O393  1  0.87342410  0.74035407  0.24197444  1
  O  O394  1  0.87562907  0.73799662  0.74742040  1
  O  O395  1  0.39095957  0.49094420  0.49806629  1
  O  O396  1  0.38306507  0.49522842  0.99012319  1
  O  O397  1  0.38593340  1.00718751  0.48296637  1
  O  O398  1  0.37259803  0.99338284  0.99479854  1
  O  O399  1  0.88557107  0.49294788  0.49644513  1
  O  O400  1  0.88199174  0.49165236  0.99389759  1
  O  O401  1  0.88267886  0.99487278  0.49442853  1
  O  O402  1  0.87295103  0.98840389  0.98921234  1
  O  O403  1  0.12854889  0.01432406  -0.00176473  1
  O  O404  1  0.11719011  0.00639236  0.50640672  1
  O  O405  1  0.11439781  0.49560191  0.00121885  1
  O  O406  1  0.11318975  0.49121185  0.51163072  1
  O  O407  1  0.62460385  0.00536433  -0.00422123  1
  O  O408  1  0.61912441  0.00546767  0.50442413  1
  O  O409  1  0.61747947  0.50745650  -0.01010314  1
  O  O410  1  0.60917897  0.50278668  0.49611588  1
  O  O411  1  0.37005685  0.37030248  0.11741324  1
  O  O412  1  0.36532933  0.38027561  0.61914278  1
  O  O413  1  0.36654793  0.87780350  0.11438798  1
  O  O414  1  0.37897108  0.89666401  0.62483103  1
  O  O415  1  0.87586256  0.36459024  0.12072588  1
  O  O416  1  0.87016288  0.37051639  0.62278116  1
  O  O417  1  0.87487093  0.86732191  0.11777488  1
  O  O418  1  0.85963102  0.87528435  0.62558517  1
  O  O419  1  0.11964886  0.12141103  0.39043395  1
  O  O420  1  0.13519643  0.12689869  0.88098415  1
  O  O421  1  0.13352056  0.62135711  0.37488144  1
  O  O422  1  0.12788094  0.63151127  0.86994882  1
  O  O423  1  0.63085735  0.13633864  0.37403524  1
  O  O424  1  0.62205446  0.13462047  0.86360937  1
  O  O425  1  0.63374117  0.63202674  0.37584692  1
  O  O426  1  0.63112515  0.63092253  0.88182854  1
