# generated using pymatgen
data_V85Zn86O256
_symmetry_space_group_name_H-M   'P 1'
_cell_length_a   16.95665509
_cell_length_b   16.95806561
_cell_length_c   16.94236771
_cell_angle_alpha   89.96338606
_cell_angle_beta   89.98459434
_cell_angle_gamma   89.91968727
_symmetry_Int_Tables_number   1
_chemical_formula_structural   V85Zn86O256
_chemical_formula_sum   'V85 Zn86 O256'
_cell_volume   4871.80694014
_cell_formula_units_Z   1
loop_
 _symmetry_equiv_pos_site_id
 _symmetry_equiv_pos_as_xyz
  1  'x, y, z'
loop_
 _atom_site_type_symbol
 _atom_site_label
 _atom_site_symmetry_multiplicity
 _atom_site_fract_x
 _atom_site_fract_y
 _atom_site_fract_z
 _atom_site_occupancy
  V  V0  1  0.37350865  0.13438359  0.74531863  1
  V  V1  1  0.49728243  0.74886863  0.25180966  1
  V  V2  1  0.12161091  0.50275238  0.12746351  1
  V  V3  1  0.74345693  0.62848278  0.87367341  1
  V  V4  1  0.62434443  0.74973790  0.37523257  1
  V  V5  1  0.36410162  0.62273242  0.26355194  1
  V  V6  1  0.73489969  0.24770931  -0.00353087  1
  V  V7  1  0.50453800  0.24940976  0.75413522  1
  V  V8  1  -0.00011414  0.37784050  0.87599726  1
  V  V9  1  0.49872600  -0.00228842  0.50081940  1
  V  V10  1  0.87467447  0.13174840  0.25299313  1
  V  V11  1  0.01257572  0.26078028  0.26079832  1
  V  V12  1  0.37798543  0.74345106  0.63144343  1
  V  V13  1  0.24237169  0.87682365  0.12640465  1
  V  V14  1  0.48618792  0.49669807  0.49380904  1
  V  V15  1  0.00010835  0.11397403  0.12297365  1
  V  V16  1  0.24490243  0.74481209  -0.01138537  1
  V  V17  1  0.37430255  0.87209914  0.50135116  1
  V  V18  1  0.87742829  0.86852378  0.50397136  1
  V  V19  1  0.26170335  0.35766252  0.63242831  1
  V  V20  1  0.25176590  0.12798518  0.87658693  1
  V  V21  1  0.25127517  0.87200948  0.62646580  1
  V  V22  1  0.00096921  0.25332366  0.74775034  1
  V  V23  1  0.13048277  0.12288438  0.48734947  1
  V  V24  1  0.11978000  0.12768534  0.00582794  1
  V  V25  1  0.36760109  0.00182706  0.37419387  1
  V  V26  1  -0.00211799  0.50978966  0.00348690  1
  V  V27  1  0.05143765  -0.05376958  -0.05664634  1
  V  V28  1  0.38215685  0.87955275  -0.00077602  1
  V  V29  1  0.12580558  -0.00569789  0.62719673  1
  V  V30  1  0.24638195  0.49517954  0.25991984  1
  V  V31  1  0.49325970  0.50333946  -0.00195364  1
  V  V32  1  0.62577364  0.61686203  0.50480743  1
  V  V33  1  0.50082462  0.12703965  0.11288541  1
  V  V34  1  0.50431322  0.61612613  0.63157228  1
  V  V35  1  0.87692694  0.12258121  0.75066366  1
  V  V36  1  0.11849220  0.62164071  0.49656158  1
  V  V37  1  0.74049185  0.12776627  0.37658738  1
  V  V38  1  0.87337450  0.50080100  0.87019776  1
  V  V39  1  0.24963227  0.25295012  0.00318662  1
  V  V40  1  0.87972014  0.37862218  0.49504760  1
  V  V41  1  0.62597629  0.38215672  0.75002624  1
  V  V42  1  0.87408188  0.87779026  -0.00398957  1
  V  V43  1  0.49717028  0.62425978  0.12648213  1
  V  V44  1  0.75168493  0.62569793  0.37342185  1
  V  V45  1  0.74880235  0.37520852  0.12532187  1
  V  V46  1  0.37006026  0.74814890  0.12498898  1
  V  V47  1  0.12776681  0.38544887  0.74672552  1
  V  V48  1  -0.00108485  0.87487618  0.37453484  1
  V  V49  1  0.62685339  0.86819737  0.75711836  1
  V  V50  1  0.87718140  0.62459031  0.24385810  1
  V  V51  1  0.37081890  0.37921992  -0.00065266  1
  V  V52  1  0.87661710  0.74971649  0.12136512  1
  V  V53  1  0.74220488  0.75128812  -0.00343946  1
  V  V54  1  0.12376509  0.25390093  0.87622140  1
  V  V55  1  0.25686593  -0.00106513  0.75117151  1
  V  V56  1  0.74385392  0.24606435  0.50833210  1
  V  V57  1  0.12502487  0.49878177  0.61816476  1
  V  V58  1  -0.00048989  -0.00173325  0.49984052  1
  V  V59  1  0.01252656  0.75813429  0.75440164  1
  V  V60  1  0.87635481  0.63687740  0.74327672  1
  V  V61  1  0.50460954  0.25217614  0.26287405  1
  V  V62  1  0.62355915  0.87749633  0.24959249  1
  V  V63  1  0.24926979  0.61394298  0.85705882  1
  V  V64  1  0.25745150  0.23814897  0.48666229  1
  V  V65  1  0.37156057  0.12709393  0.25163893  1
  V  V66  1  0.61932758  0.00387406  0.11268057  1
  V  V67  1  0.24204978  0.00323824  0.24782098  1
  V  V68  1  0.00337884  0.12981797  0.62120929  1
  V  V69  1  0.00110607  0.74994038  0.24520860  1
  V  V70  1  0.75286384  0.74910222  0.50134307  1
  V  V71  1  0.50545608  0.37300790  0.87784342  1
  V  V72  1  0.74727042  0.50237630  0.24828354  1
  V  V73  1  0.62369399  -0.00302641  0.62414550  1
  V  V74  1  0.75349038  0.87033770  0.62609682  1
  V  V75  1  0.87825518  0.25120432  0.12319861  1
  V  V76  1  0.87278497  0.00209484  0.87907148  1
  V  V77  1  0.50099121  0.74666004  0.76095422  1
  V  V78  1  0.12990158  0.75006230  0.37382652  1
  V  V79  1  0.25079981  0.73868679  0.49807922  1
  V  V80  1  0.74724987  0.37894030  0.62661276  1
  V  V81  1  0.74698942  0.00283728  0.24890358  1
  V  V82  1  0.49946913  0.13222613  0.62426878  1
  V  V83  1  0.49890484  0.87468111  0.37555210  1
  V  V84  1  0.62135258  0.50009101  0.12472324  1
  Zn  Zn85  1  0.74660026  0.50466412  0.74729779  1
  Zn  Zn86  1  0.74825393  0.87772094  0.12442592  1
  Zn  Zn87  1  0.50873996  0.87894954  0.88067115  1
  Zn  Zn88  1  0.38958027  0.00879413  0.88199015  1
  Zn  Zn89  1  0.87593968  0.25227252  0.62571725  1
  Zn  Zn90  1  0.88151645  0.49632810  0.37449995  1
  Zn  Zn91  1  0.38593982  0.35918659  0.49761097  1
  Zn  Zn92  1  0.37551057  0.25382497  0.12740380  1
  Zn  Zn93  1  0.11947835  0.62893922  -0.00410125  1
  Zn  Zn94  1  -0.00231894  0.62384982  0.62340577  1
  Zn  Zn95  1  0.74792882  0.00079896  0.75134330  1
  Zn  Zn96  1  0.37475142  0.50532760  0.84387047  1
  Zn  Zn97  1  0.73501919  0.12503281  0.88630477  1
  Zn  Zn98  1  0.62225869  0.12755669  0.49840627  1
  Zn  Zn99  1  0.05145851  0.44275314  0.42123459  1
  Zn  Zn100  1  0.61942523  0.63049198  -0.00513346  1
  Zn  Zn101  1  0.87383389  -0.00003805  0.37503271  1
  Zn  Zn102  1  0.60533259  0.38279730  0.26655402  1
  Zn  Zn103  1  0.87357387  0.37516809  -0.00251371  1
  Zn  Zn104  1  0.12054915  0.88118887  0.24607095  1
  Zn  Zn105  1  0.12676475  0.87497545  0.76852539  1
  Zn  Zn106  1  0.24281685  0.37523630  0.13036675  1
  Zn  Zn107  1  0.18646039  0.18844950  0.18809934  1
  Zn  Zn108  1  0.18210660  0.18651692  0.68805939  1
  Zn  Zn109  1  0.18378721  0.68376894  0.18236778  1
  Zn  Zn110  1  0.18239371  0.68904523  0.68525790  1
  Zn  Zn111  1  0.68288689  0.18956755  0.18613794  1
  Zn  Zn112  1  0.67879817  0.17858530  0.70938803  1
  Zn  Zn113  1  0.68728319  0.68891442  0.18349535  1
  Zn  Zn114  1  0.68769872  0.68926786  0.68710482  1
  Zn  Zn115  1  0.32078326  0.31424920  0.31655047  1
  Zn  Zn116  1  0.31609307  0.31574558  0.81469886  1
  Zn  Zn117  1  0.31080288  0.81424822  0.31204170  1
  Zn  Zn118  1  0.31631485  0.81145704  0.81371213  1
  Zn  Zn119  1  0.76885733  0.33073472  0.33411373  1
  Zn  Zn120  1  0.81290727  0.31053130  0.81301904  1
  Zn  Zn121  1  0.81325184  0.81443820  0.31219441  1
  Zn  Zn122  1  0.81491624  0.81296517  0.81496835  1
  Zn  Zn123  1  0.22998507  0.41314247  0.42563074  1
  Zn  Zn124  1  0.18532143  0.44378969  0.93701695  1
  Zn  Zn125  1  0.18797936  0.93298086  0.43762516  1
  Zn  Zn126  1  0.21352314  0.94205121  0.94288316  1
  Zn  Zn127  1  0.68771094  0.44064449  0.44308289  1
  Zn  Zn128  1  0.68569745  0.43930109  0.93910015  1
  Zn  Zn129  1  0.68857206  0.93895086  0.43727625  1
  Zn  Zn130  1  0.69125389  0.93824307  0.93530165  1
  Zn  Zn131  1  0.31218539  0.06437035  0.06800749  1
  Zn  Zn132  1  0.31474566  0.06245149  0.56494225  1
  Zn  Zn133  1  0.30804630  0.56303032  0.06695866  1
  Zn  Zn134  1  0.32467628  0.54189092  0.63642553  1
  Zn  Zn135  1  0.81039926  0.06582356  0.06284117  1
  Zn  Zn136  1  0.81390921  0.05847263  0.56431181  1
  Zn  Zn137  1  0.81231749  0.56418031  0.05939600  1
  Zn  Zn138  1  0.81203977  0.55799521  0.56373605  1
  Zn  Zn139  1  0.42946301  0.43726025  0.18956196  1
  Zn  Zn140  1  0.44513197  0.43274635  0.68132153  1
  Zn  Zn141  1  0.43553363  0.94004469  0.18555701  1
  Zn  Zn142  1  0.44044007  0.93525315  0.69131899  1
  Zn  Zn143  1  0.93814633  0.43610843  0.18836098  1
  Zn  Zn144  1  0.93825087  0.43979611  0.68351245  1
  Zn  Zn145  1  0.93312718  0.93815947  0.18594185  1
  Zn  Zn146  1  0.93928030  0.93426729  0.68899745  1
  Zn  Zn147  1  0.05741380  0.06608471  0.31085823  1
  Zn  Zn148  1  0.06853954  0.06931355  0.80759850  1
  Zn  Zn149  1  0.06542113  0.57180087  0.30554191  1
  Zn  Zn150  1  0.06351976  0.56709151  0.81422842  1
  Zn  Zn151  1  0.55792748  0.06417862  0.30903054  1
  Zn  Zn152  1  0.56564539  0.06025266  0.81679047  1
  Zn  Zn153  1  0.55847638  0.56300761  0.31572597  1
  Zn  Zn154  1  0.56111369  0.56067022  0.81358164  1
  Zn  Zn155  1  0.43697868  0.18189592  0.43592731  1
  Zn  Zn156  1  0.43615280  0.19231803  0.93500170  1
  Zn  Zn157  1  0.43809068  0.68325816  0.44266293  1
  Zn  Zn158  1  0.42861419  0.68522586  0.93543302  1
  Zn  Zn159  1  0.93070781  0.19190356  0.43714196  1
  Zn  Zn160  1  0.93465353  0.18840138  0.93818685  1
  Zn  Zn161  1  0.93962529  0.68630709  0.43282704  1
  Zn  Zn162  1  0.93324310  0.68923717  0.93080914  1
  Zn  Zn163  1  0.05817189  0.31790383  0.06777510  1
  Zn  Zn164  1  0.08566686  0.32436725  0.53338794  1
  Zn  Zn165  1  0.06501916  0.80688273  0.06560768  1
  Zn  Zn166  1  0.05953146  0.80567497  0.56844992  1
  Zn  Zn167  1  0.55877903  0.31453726  0.06953102  1
  Zn  Zn168  1  0.56602469  0.31469142  0.56315418  1
  Zn  Zn169  1  0.56196588  0.81326674  0.06775462  1
  Zn  Zn170  1  0.56399071  0.80699507  0.56561663  1
  O  O171  1  0.11807814  0.12820539  0.11276779  1
  O  O172  1  0.11714094  0.11097946  0.62441187  1
  O  O173  1  0.12479009  0.61100016  0.11572949  1
  O  O174  1  0.12775479  0.61502148  0.61633987  1
  O  O175  1  0.60929598  0.11884960  0.12943301  1
  O  O176  1  0.61632778  0.11305263  0.62631730  1
  O  O177  1  0.61749002  0.61565261  0.12309588  1
  O  O178  1  0.61790680  0.63298607  0.61508178  1
  O  O179  1  0.33934645  0.38609875  0.39786059  1
  O  O180  1  0.38359518  0.38191969  0.88459956  1
  O  O181  1  0.38147786  0.87949235  0.38049273  1
  O  O182  1  0.37390119  0.87583965  0.89169921  1
  O  O183  1  0.86245589  0.37566345  0.39109712  1
  O  O184  1  0.88027147  0.38448537  0.87436678  1
  O  O185  1  0.88219470  0.87726265  0.38199880  1
  O  O186  1  0.87401532  0.88350458  0.88708049  1
  O  O187  1  0.26160138  -0.00982994  0.36722720  1
  O  O188  1  0.25844696  0.01077672  0.86643688  1
  O  O189  1  0.23287877  0.50986781  0.35659092  1
  O  O190  1  0.25492102  0.50985848  0.87296166  1
  O  O191  1  0.75095959  0.00542388  0.36376813  1
  O  O192  1  0.75881563  0.00610217  0.87035081  1
  O  O193  1  0.75554422  0.51660307  0.37026394  1
  O  O194  1  0.75756961  0.50678988  0.87383236  1
  O  O195  1  0.23803416  0.49897900  0.13061667  1
  O  O196  1  0.23490359  0.47515428  0.61926007  1
  O  O197  1  0.25553057  0.98931576  0.13503527  1
  O  O198  1  0.24518280  0.99447322  0.63280384  1
  O  O199  1  0.74021088  0.49608981  0.12426258  1
  O  O200  1  0.75134254  0.48421071  0.62945915  1
  O  O201  1  0.74125640  1.00413302  0.13587037  1
  O  O202  1  0.74157780  0.98674547  0.62311112  1
  O  O203  1  -0.00544852  0.35992239  0.25034914  1
  O  O204  1  0.00689857  0.37101619  0.75529366  1
  O  O205  1  -0.00146114  0.86763832  0.25341375  1
  O  O206  1  0.00680882  0.86390886  0.74865220  1
  O  O207  1  0.49255253  0.35953518  0.24715220  1
  O  O208  1  0.50579087  0.36945033  0.75666882  1
  O  O209  1  0.50183622  0.86854139  0.25485034  1
  O  O210  1  0.51027636  0.86439942  0.75047347  1
  O  O211  1  0.48975759  0.13485524  0.24496477  1
  O  O212  1  0.49199074  0.13337740  0.74438431  1
  O  O213  1  0.48707856  0.62875105  0.24573921  1
  O  O214  1  0.50956995  0.63415464  0.74257793  1
  O  O215  1  0.99126466  0.13040101  0.24208127  1
  O  O216  1  0.99544613  0.13025129  0.74214175  1
  O  O217  1  0.99045227  0.64215402  0.24807110  1
  O  O218  1  0.98846172  0.63015784  0.74993204  1
  O  O219  1  0.36487529  0.25982664  -0.00049865  1
  O  O220  1  0.36235363  0.23834061  0.50145995  1
  O  O221  1  0.36578373  0.75688100  0.00784417  1
  O  O222  1  0.36862688  0.75321064  0.50664819  1
  O  O223  1  0.86859035  0.25140464  0.01256961  1
  O  O224  1  0.86383304  0.25800583  0.50551545  1
  O  O225  1  0.86999948  0.75727221  0.00463157  1
  O  O226  1  0.86967082  0.76085980  0.49429266  1
  O  O227  1  0.14018106  0.22475438  0.51235757  1
  O  O228  1  0.12949874  0.24603087  0.99647531  1
  O  O229  1  0.13253064  0.75071094  0.49294101  1
  O  O230  1  0.14062150  0.74910247  1.00223444  1
  O  O231  1  0.63856280  0.24630411  0.50546090  1
  O  O232  1  0.63644132  0.25650803  1.00556987  1
  O  O233  1  0.63172916  0.74209186  0.49224791  1
  O  O234  1  0.63809478  0.75015157  1.00823465  1
  O  O235  1  0.49641827  0.23922933  0.13170840  1
  O  O236  1  0.50397850  0.23700288  0.62881790  1
  O  O237  1  0.49078980  0.74503811  0.13262936  1
  O  O238  1  0.49350319  0.74222492  0.63183125  1
  O  O239  1  0.99161689  0.24416917  0.13171720  1
  O  O240  1  1.00186737  0.24042234  0.63029475  1
  O  O241  1  0.98637952  0.75484131  0.12970552  1
  O  O242  1  1.00343756  0.74257151  0.64476438  1
  O  O243  1  -0.00418398  0.24141253  0.35867448  1
  O  O244  1  0.00370837  0.25782322  0.87060067  1
  O  O245  1  0.00542638  0.75821706  0.36488001  1
  O  O246  1  -0.00654884  0.74672274  0.85435606  1
  O  O247  1  0.49810058  0.24571677  0.36259622  1
  O  O248  1  0.49842300  0.26085645  0.86749180  1
  O  O249  1  0.50411920  0.75369970  0.37094592  1
  O  O250  1  0.49460190  0.75118608  0.86435265  1
  O  O251  1  0.24141596  0.12530560  0.50394452  1
  O  O252  1  0.24370526  0.13284256  0.99872199  1
  O  O253  1  0.23749111  0.63939334  0.50217493  1
  O  O254  1  0.25209814  0.63981419  0.99953250  1
  O  O255  1  0.74962631  0.12819678  0.49639544  1
  O  O256  1  0.74714244  0.14147010  1.00203660  1
  O  O257  1  0.74646490  0.62858924  0.49421123  1
  O  O258  1  0.74904230  0.63413613  0.99139579  1
  O  O259  1  0.25582610  0.36963882  -0.00321932  1
  O  O260  1  0.24821467  0.34439937  0.52106681  1
  O  O261  1  0.25967908  0.86240993  0.00810277  1
  O  O262  1  0.25675094  0.86856502  0.50858993  1
  O  O263  1  0.75002971  0.36925539  0.01007982  1
  O  O264  1  0.75399389  0.36768070  0.51363501  1
  O  O265  1  0.75817502  0.86814938  0.00136271  1
  O  O266  1  0.75791414  0.87060325  0.50410340  1
  O  O267  1  0.13396328  0.50897699  0.23741088  1
  O  O268  1  0.12297180  0.48859785  0.74548816  1
  O  O269  1  0.13849619  1.00217696  0.25625796  1
  O  O270  1  0.13733530  0.99805905  0.74479390  1
  O  O271  1  0.62765938  0.50193750  0.24246575  1
  O  O272  1  0.62619273  0.48714888  0.75255040  1
  O  O273  1  0.62997695  0.99599720  0.24446491  1
  O  O274  1  0.62616044  0.98465744  0.73466543  1
  O  O275  1  0.36784545  0.00576412  0.25653006  1
  O  O276  1  0.36586678  0.00634066  0.74922206  1
  O  O277  1  0.36103314  0.51403747  0.24509797  1
  O  O278  1  0.37665831  0.50437582  0.73137628  1
  O  O279  1  0.86397915  0.01156145  0.24799506  1
  O  O280  1  0.88097319  0.00339805  0.76405966  1
  O  O281  1  0.86713098  0.51091862  0.24667887  1
  O  O282  1  0.87479235  0.50808281  0.75999298  1
  O  O283  1  0.12639168  0.36686265  0.43072737  1
  O  O284  1  0.12066686  0.37287726  0.86701233  1
  O  O285  1  0.11643508  0.86692234  0.37199919  1
  O  O286  1  0.11835806  0.89151656  0.88816986  1
  O  O287  1  0.66387192  0.37315613  0.36048834  1
  O  O288  1  0.61243117  0.38045971  0.87039046  1
  O  O289  1  0.61888882  0.87065228  0.37006182  1
  O  O290  1  0.62963301  0.87547757  0.86142098  1
  O  O291  1  0.38547103  0.12669304  0.13248737  1
  O  O292  1  0.38431530  0.11867763  0.63783756  1
  O  O293  1  0.37757529  0.63608255  0.13009103  1
  O  O294  1  0.38669755  0.63793525  0.62085554  1
  O  O295  1  0.88094218  0.13125803  0.12954661  1
  O  O296  1  0.89370049  0.12007089  0.62586594  1
  O  O297  1  0.86804368  0.63434476  0.13537733  1
  O  O298  1  0.87459002  0.61757861  0.64020558  1
  O  O299  1  0.25025726  0.25409984  0.11380885  1
  O  O300  1  0.25204981  0.25436914  0.63171120  1
  O  O301  1  0.25602466  0.75589406  0.12016276  1
  O  O302  1  0.25831406  0.75385637  0.62074602  1
  O  O303  1  0.75373240  0.25755589  0.11954609  1
  O  O304  1  0.75262058  0.25753970  0.62375626  1
  O  O305  1  0.76083426  0.75322507  0.11802471  1
  O  O306  1  0.74702903  0.76243632  0.61684131  1
  O  O307  1  0.25065105  0.24204778  0.38863294  1
  O  O308  1  0.24530477  0.24731455  0.88537151  1
  O  O309  1  0.24089349  0.75978378  0.38466626  1
  O  O310  1  0.25341136  0.74432291  0.88570972  1
  O  O311  1  0.75713269  0.23284556  0.39022856  1
  O  O312  1  0.75445756  0.25262994  0.89404299  1
  O  O313  1  0.74561982  0.74219186  0.37829990  1
  O  O314  1  0.75622538  0.74198393  0.88527986  1
  O  O315  1  0.00779773  0.13107448  0.00816126  1
  O  O316  1  0.01027310  0.12101885  0.50443430  1
  O  O317  1  -0.00344166  0.61375223  -0.00803367  1
  O  O318  1  0.01342911  0.63955296  0.50556750  1
  O  O319  1  0.49300080  0.13001914  0.01364823  1
  O  O320  1  0.50103782  0.11653371  0.50818729  1
  O  O321  1  0.49830711  0.61984218  0.00540359  1
  O  O322  1  0.50890135  0.62072400  0.50892806  1
  O  O323  1  0.49928557  0.38985513  0.50873140  1
  O  O324  1  0.49351696  0.38116942  0.99474970  1
  O  O325  1  0.49429084  0.87768503  0.49652662  1
  O  O326  1  0.48531137  0.86699042  1.00151304  1
  O  O327  1  0.98065579  0.37056875  0.50489670  1
  O  O328  1  0.99689326  0.38545549  0.99111205  1
  O  O329  1  0.99402288  0.87572170  0.49711621  1
  O  O330  1  0.99670949  0.88028316  1.00234118  1
  O  O331  1  0.49692914  0.50757528  0.39352831  1
  O  O332  1  0.49337676  0.49573540  0.88305017  1
  O  O333  1  0.49062464  0.99385951  0.37920792  1
  O  O334  1  0.50020937  0.99314681  0.87157710  1
  O  O335  1  0.99288407  0.51535274  0.36890034  1
  O  O336  1  0.99286975  0.49643951  0.87954882  1
  O  O337  1  0.99900094  0.99195281  0.38101064  1
  O  O338  1  0.99723600  1.00503358  0.87812849  1
  O  O339  1  -0.00311013  0.01424103  0.12875339  1
  O  O340  1  0.00943837  0.00271168  0.61982414  1
  O  O341  1  0.00709527  0.49795318  0.11663227  1
  O  O342  1  0.01773081  0.50134411  0.62852513  1
  O  O343  1  0.50559314  0.01470279  0.13018684  1
  O  O344  1  0.50562661  0.00511419  0.62125759  1
  O  O345  1  0.50357392  0.50372355  0.12088708  1
  O  O346  1  0.50721645  0.51327406  0.61807279  1
  O  O347  1  0.25559192  0.39126461  0.24829049  1
  O  O348  1  0.24172792  0.36624180  0.74176061  1
  O  O349  1  0.24941510  0.88341639  0.24153328  1
  O  O350  1  0.24816800  0.88255637  0.74814766  1
  O  O351  1  0.75885067  0.38621112  0.23212403  1
  O  O352  1  0.74369284  0.37342199  0.74347689  1
  O  O353  1  0.74487047  0.88564753  0.24861317  1
  O  O354  1  0.74596279  0.87409752  0.74195712  1
  O  O355  1  0.26219126  0.11779559  0.24032672  1
  O  O356  1  0.25634423  0.11979029  0.75324806  1
  O  O357  1  0.26025566  0.62109223  0.24513034  1
  O  O358  1  0.24764841  0.62743171  0.75777363  1
  O  O359  1  0.75280642  0.12270240  0.25690640  1
  O  O360  1  0.77681300  0.11625595  0.72455004  1
  O  O361  1  0.75418739  0.62295884  0.25533486  1
  O  O362  1  0.75861087  0.62617399  0.75429050  1
  O  O363  1  0.37764143  0.11165254  0.36536901  1
  O  O364  1  0.36949907  0.12648885  0.86462921  1
  O  O365  1  0.37358082  0.63259619  0.36138394  1
  O  O366  1  0.35574554  0.62104637  0.87707256  1
  O  O367  1  0.86653356  0.12021438  0.36691528  1
  O  O368  1  0.87225114  0.11936946  0.86657232  1
  O  O369  1  0.86677839  0.63163880  0.36012766  1
  O  O370  1  0.86439357  0.61935378  0.86380074  1
  O  O371  1  0.12629484  0.39468235  0.11855895  1
  O  O372  1  0.12984114  0.37470806  0.63238430  1
  O  O373  1  0.13779118  0.87299120  0.12638159  1
  O  O374  1  0.13100516  0.88537026  0.62363526  1
  O  O375  1  0.62930285  0.38781356  0.12951225  1
  O  O376  1  0.63927983  0.37389395  0.63261977  1
  O  O377  1  0.62487699  0.88444265  0.13330770  1
  O  O378  1  0.63239348  0.87824047  0.62887162  1
  O  O379  1  0.11206494  0.24889271  0.24749769  1
  O  O380  1  0.11785402  0.25551933  0.75839995  1
  O  O381  1  0.11734548  0.75179477  0.25361366  1
  O  O382  1  0.11844698  0.75590665  0.75455797  1
  O  O383  1  0.60731059  0.25231697  0.24698644  1
  O  O384  1  0.60954787  0.26641616  0.74299248  1
  O  O385  1  0.61914974  0.75582421  0.25434333  1
  O  O386  1  0.61569934  0.75881920  0.74429680  1
  O  O387  1  0.37917333  0.24253707  0.24906008  1
  O  O388  1  0.38644453  0.24357770  0.75347687  1
  O  O389  1  0.37485302  0.74203822  0.24344201  1
  O  O390  1  0.38595810  0.75636425  0.74104927  1
  O  O391  1  0.87367131  0.23772062  0.23789071  1
  O  O392  1  0.88386117  0.24135153  0.74896681  1
  O  O393  1  0.87932785  0.74808949  0.24036049  1
  O  O394  1  0.87699583  0.73901186  0.74940478  1
  O  O395  1  0.38949786  0.50620314  0.51423744  1
  O  O396  1  0.38420362  0.49619861  1.00585414  1
  O  O397  1  0.37850740  0.99406528  0.49291030  1
  O  O398  1  0.36545240  0.98332786  1.00171138  1
  O  O399  1  0.86878965  0.48396132  0.49794292  1
  O  O400  1  0.87938471  0.50036952  0.98846939  1
  O  O401  1  0.88262795  0.98836801  0.49813866  1
  O  O402  1  0.87000918  0.99561520  0.98921087  1
  O  O403  1  0.12011193  0.00539212  -0.00608094  1
  O  O404  1  0.12285543  0.00625800  0.50728645  1
  O  O405  1  0.11486728  0.50434990  0.00619885  1
  O  O406  1  0.12396526  0.51477157  0.50329746  1
  O  O407  1  0.63141309  -0.00433133  0.01375570  1
  O  O408  1  0.61805461  -0.00273524  0.51017791  1
  O  O409  1  0.61045563  0.50213869  0.00710141  1
  O  O410  1  0.62120938  0.51387230  0.49873129  1
  O  O411  1  0.37069300  0.37402222  0.11064785  1
  O  O412  1  0.36374359  0.37038043  0.62172954  1
  O  O413  1  0.36951375  0.86552359  0.11886601  1
  O  O414  1  0.37226493  0.86577442  0.62059719  1
  O  O415  1  0.86772668  0.36757365  0.12015866  1
  O  O416  1  0.86444516  0.37386354  0.62076514  1
  O  O417  1  0.87177259  0.87083850  0.11270679  1
  O  O418  1  0.86676025  0.87961897  0.61615932  1
  O  O419  1  0.12457604  0.11822526  0.38923931  1
  O  O420  1  0.13111491  0.13221785  0.88506672  1
  O  O421  1  0.12105373  0.64286751  0.38120112  1
  O  O422  1  0.14243039  0.62046209  0.87920888  1
  O  O423  1  0.63569321  0.11505062  0.37831768  1
  O  O424  1  0.64921889  0.13061621  0.81546308  1
  O  O425  1  0.63284136  0.63104376  0.37992652  1
  O  O426  1  0.63904237  0.62019762  0.87589969  1
