# generated using pymatgen
data_V85Zn86O256
_symmetry_space_group_name_H-M   'P 1'
_cell_length_a   16.94524675
_cell_length_b   16.95988396
_cell_length_c   16.94825701
_cell_angle_alpha   90.00893249
_cell_angle_beta   90.03564042
_cell_angle_gamma   90.06628555
_symmetry_Int_Tables_number   1
_chemical_formula_structural   V85Zn86O256
_chemical_formula_sum   'V85 Zn86 O256'
_cell_volume   4870.74546485
_cell_formula_units_Z   1
loop_
 _symmetry_equiv_pos_site_id
 _symmetry_equiv_pos_as_xyz
  1  'x, y, z'
loop_
 _atom_site_type_symbol
 _atom_site_label
 _atom_site_symmetry_multiplicity
 _atom_site_fract_x
 _atom_site_fract_y
 _atom_site_fract_z
 _atom_site_occupancy
  V  V0  1  0.89128616  0.12736374  0.24449884  1
  V  V1  1  0.24211329  0.24834722  0.49826984  1
  V  V2  1  -0.00011936  0.49928962  0.00593337  1
  V  V3  1  0.50282306  0.12282464  0.62309728  1
  V  V4  1  0.50477770  0.37766853  0.37058377  1
  V  V5  1  0.62082567  0.00732675  0.12066785  1
  V  V6  1  0.49916725  0.74498919  0.75158613  1
  V  V7  1  0.62829457  0.87074080  0.74941026  1
  V  V8  1  0.11823072  0.50487242  0.62997111  1
  V  V9  1  0.36504918  -0.00250197  0.86926767  1
  V  V10  1  0.24611951  0.11972678  0.37680258  1
  V  V11  1  0.63691180  0.62871887  0.00287572  1
  V  V12  1  0.88143016  0.74171110  0.62512565  1
  V  V13  1  0.73376421  0.24955277  -0.00343292  1
  V  V14  1  0.87887292  0.62446504  0.74838307  1
  V  V15  1  0.62793497  0.49532660  0.13797413  1
  V  V16  1  0.63127742  0.13118237  0.49721971  1
  V  V17  1  0.74913839  0.36990801  0.61877861  1
  V  V18  1  0.87032066  0.74715507  0.12890673  1
  V  V19  1  0.37047678  0.74942330  0.12445605  1
  V  V20  1  0.62350467  0.87918042  0.24804957  1
  V  V21  1  0.50467307  0.87650932  0.37827951  1
  V  V22  1  0.37080481  0.62003082  0.25932633  1
  V  V23  1  0.74429347  0.37228594  0.14008879  1
  V  V24  1  0.75478697  0.87213868  0.62131141  1
  V  V25  1  0.24786412  0.75162965  0.00169162  1
  V  V26  1  0.37430349  0.87493678  -0.00066991  1
  V  V27  1  0.50048382  0.62397803  0.12427769  1
  V  V28  1  0.49799060  0.00096153  0.49694405  1
  V  V29  1  0.00116761  0.25138495  0.75854781  1
  V  V30  1  0.87061267  0.37703287  0.00155566  1
  V  V31  1  0.62649238  0.49931057  0.62875750  1
  V  V32  1  0.75203462  0.00563168  0.24646896  1
  V  V33  1  0.00235040  0.74826047  0.74927795  1
  V  V34  1  0.49714083  0.49925197  0.49741861  1
  V  V35  1  0.00506113  0.00111894  0.50188454  1
  V  V36  1  0.73398869  0.12744543  0.87717164  1
  V  V37  1  0.75265439  0.13247017  0.37364133  1
  V  V38  1  0.76699078  0.73464785  0.48411532  1
  V  V39  1  0.62812531  -0.00262262  0.62222018  1
  V  V40  1  0.12632553  0.75300334  0.36428520  1
  V  V41  1  0.12304244  0.74987115  0.87720730  1
  V  V42  1  0.37067398  0.12859282  0.25130450  1
  V  V43  1  0.87584703  0.00556713  0.88016394  1
  V  V44  1  0.87771459  0.87838980  0.50070407  1
  V  V45  1  0.24976786  0.88070507  0.63376930  1
  V  V46  1  0.63147771  0.74722011  0.37481248  1
  V  V47  1  0.62661418  0.37213469  0.75736605  1
  V  V48  1  0.36214399  0.37929747  0.00351714  1
  V  V49  1  0.50154285  0.36407189  0.87851121  1
  V  V50  1  0.49586895  0.62298241  0.62927935  1
  V  V51  1  -0.00144786  0.49353867  0.49050457  1
  V  V52  1  0.50252605  0.50085909  -0.00194586  1
  V  V53  1  0.13832932  0.49492468  0.13232894  1
  V  V54  1  0.37729438  0.50374177  0.86465558  1
  V  V55  1  0.09619292  0.11555828  0.00408633  1
  V  V56  1  0.36414358  0.25734097  0.12385437  1
  V  V57  1  0.11263484  0.63040060  0.50471047  1
  V  V58  1  0.00105549  0.12545883  0.62876819  1
  V  V59  1  0.87289682  0.87154264  -0.00091492  1
  V  V60  1  0.37187386  0.73829542  0.62921383  1
  V  V61  1  0.35913348  -0.02366217  0.34486120  1
  V  V62  1  0.87621405  0.49843466  0.87679965  1
  V  V63  1  0.88461800  0.24662043  0.12550918  1
  V  V64  1  0.87248584  0.25053005  0.61878863  1
  V  V65  1  0.00028788  0.88018693  0.88084204  1
  V  V66  1  0.49830692  0.00240675  -0.00297301  1
  V  V67  1  0.37570906  0.24841435  0.62362419  1
  V  V68  1  0.49908651  0.75064236  0.25042523  1
  V  V69  1  0.36465397  0.11715372  0.74699536  1
  V  V70  1  0.12807013  0.37320973  0.75594824  1
  V  V71  1  -0.00310990  0.62421862  0.13304820  1
  V  V72  1  0.25491481  0.62676308  0.86633319  1
  V  V73  1  0.00431922  0.87819061  0.36544741  1
  V  V74  1  0.75213485  0.63182506  0.87603687  1
  V  V75  1  0.50422519  0.24628238  0.75210500  1
  V  V76  1  0.62673174  0.62444010  0.49978878  1
  V  V77  1  0.00587073  0.35086027  0.36411009  1
  V  V78  1  0.49614409  0.12803702  0.11672612  1
  V  V79  1  0.75220176  0.49783536  0.75026016  1
  V  V80  1  0.24871300  0.75055008  0.50070377  1
  V  V81  1  0.50970370  0.25401322  0.24949065  1
  V  V82  1  0.13290330  -0.01944239  0.13911978  1
  V  V83  1  0.37709582  0.37330477  0.49763665  1
  V  V84  1  0.74805001  0.87479491  0.11638484  1
  Zn  Zn85  1  0.22990725  0.24996211  -0.00887430  1
  Zn  Zn86  1  0.31706677  0.45577953  0.33074272  1
  Zn  Zn87  1  0.62797762  0.75382740  0.88228169  1
  Zn  Zn88  1  0.23270095  0.12828775  0.87400700  1
  Zn  Zn89  1  0.00222446  0.75528225  0.24447216  1
  Zn  Zn90  1  0.00453147  0.37211191  0.87945358  1
  Zn  Zn91  1  0.13887734  0.37382228  0.25180047  1
  Zn  Zn92  1  0.12462820  0.62352851  0.00189512  1
  Zn  Zn93  1  0.11966188  0.13051013  0.49489468  1
  Zn  Zn94  1  0.37761791  0.87375064  0.50685074  1
  Zn  Zn95  1  0.24190511  0.61770297  0.37164290  1
  Zn  Zn96  1  0.24856136  0.37702101  0.62449540  1
  Zn  Zn97  1  0.13138590  0.00691317  0.63397299  1
  Zn  Zn98  1  0.86603531  0.37747212  0.48859176  1
  Zn  Zn99  1  0.25418638  0.50540136  0.74050708  1
  Zn  Zn100  1  0.63097880  0.25479928  0.37414631  1
  Zn  Zn101  1  0.87281528  0.12628763  0.75339446  1
  Zn  Zn102  1  0.80590225  0.56321840  0.32064635  1
  Zn  Zn103  1  0.13036855  0.88461922  0.75835865  1
  Zn  Zn104  1  0.75149583  0.00055930  0.75042250  1
  Zn  Zn105  1  0.87820084  0.00225256  0.37109084  1
  Zn  Zn106  1  0.50246263  0.87369093  0.87328870  1
  Zn  Zn107  1  0.16106678  0.18853662  0.17394142  1
  Zn  Zn108  1  0.18492480  0.19061371  0.68635430  1
  Zn  Zn109  1  0.18750115  0.68123662  0.18497442  1
  Zn  Zn110  1  0.18388950  0.68899583  0.68748034  1
  Zn  Zn111  1  0.68795365  0.18762797  0.18431826  1
  Zn  Zn112  1  0.68779323  0.18615150  0.69079798  1
  Zn  Zn113  1  0.68781131  0.69113177  0.18919517  1
  Zn  Zn114  1  0.69222648  0.68705666  0.68201883  1
  Zn  Zn115  1  0.26959415  0.28313412  0.28817186  1
  Zn  Zn116  1  0.31313409  0.31670669  0.81023890  1
  Zn  Zn117  1  0.31375177  0.80814619  0.31478010  1
  Zn  Zn118  1  0.31591578  0.80983665  0.81250038  1
  Zn  Zn119  1  0.82099881  0.31295180  0.31229157  1
  Zn  Zn120  1  0.81491515  0.30818022  0.81261519  1
  Zn  Zn121  1  0.81588847  0.81948363  0.30687641  1
  Zn  Zn122  1  0.81357146  0.81337437  0.81173070  1
  Zn  Zn123  1  0.18124474  0.43613450  0.43939204  1
  Zn  Zn124  1  0.18641146  0.44357891  0.93590598  1
  Zn  Zn125  1  0.18543916  0.93502935  0.44274790  1
  Zn  Zn126  1  0.18740068  0.93974930  0.94729613  1
  Zn  Zn127  1  0.68365534  0.43777715  0.43479991  1
  Zn  Zn128  1  0.68843671  0.44057092  0.94102760  1
  Zn  Zn129  1  0.69205598  0.94118493  0.43597511  1
  Zn  Zn130  1  0.68530493  0.94270349  0.93636388  1
  Zn  Zn131  1  0.29482250  0.06538917  0.06676655  1
  Zn  Zn132  1  0.31456147  0.06134419  0.55849967  1
  Zn  Zn133  1  0.31399273  0.56806791  0.05718442  1
  Zn  Zn134  1  0.29467586  0.54781798  0.53291541  1
  Zn  Zn135  1  0.81407413  0.06558067  0.05670264  1
  Zn  Zn136  1  0.81522520  0.06321241  0.56221821  1
  Zn  Zn137  1  0.81396489  0.56052355  0.15907754  1
  Zn  Zn138  1  0.81516606  0.56039719  0.48678755  1
  Zn  Zn139  1  0.43695826  0.43808316  0.18636311  1
  Zn  Zn140  1  0.43884006  0.43421420  0.68611673  1
  Zn  Zn141  1  0.42151834  0.93241328  0.18763791  1
  Zn  Zn142  1  0.43830388  0.93248451  0.68571186  1
  Zn  Zn143  1  0.93812633  0.43403342  0.19816934  1
  Zn  Zn144  1  0.93860498  0.43619700  0.68383387  1
  Zn  Zn145  1  0.94278011  0.94541369  0.17785384  1
  Zn  Zn146  1  0.94019559  0.93870726  0.69447002  1
  Zn  Zn147  1  0.06882051  0.05483402  0.30501164  1
  Zn  Zn148  1  0.06420493  0.06287197  0.81613753  1
  Zn  Zn149  1  0.05965894  0.56309586  0.31121083  1
  Zn  Zn150  1  0.06260846  0.56330360  0.81572056  1
  Zn  Zn151  1  0.55905101  0.06626220  0.30980740  1
  Zn  Zn152  1  0.55762614  0.05751414  0.81051176  1
  Zn  Zn153  1  0.56117616  0.56546682  0.31488101  1
  Zn  Zn154  1  0.56431735  0.56292841  0.81504859  1
  Zn  Zn155  1  0.43514264  0.18607561  0.43162326  1
  Zn  Zn156  1  0.37843748  0.18860927  0.93641222  1
  Zn  Zn157  1  0.43929431  0.69018805  0.44128723  1
  Zn  Zn158  1  0.44007344  0.68647512  0.93519289  1
  Zn  Zn159  1  0.93512697  0.18800986  0.43746185  1
  Zn  Zn160  1  0.93228009  0.18938820  0.94033352  1
  Zn  Zn161  1  0.94184805  0.68970672  0.43232878  1
  Zn  Zn162  1  0.93549359  0.68747491  0.94569314  1
  Zn  Zn163  1  0.06511855  0.31422337  0.06281710  1
  Zn  Zn164  1  0.06114654  0.31671574  0.56808341  1
  Zn  Zn165  1  0.06036836  0.81819529  0.06443300  1
  Zn  Zn166  1  0.06407941  0.81588984  0.56319397  1
  Zn  Zn167  1  0.55848777  0.31352812  0.06389984  1
  Zn  Zn168  1  0.56488856  0.31166562  0.56366432  1
  Zn  Zn169  1  0.56015201  0.81303421  0.06246671  1
  Zn  Zn170  1  0.56618930  0.80831880  0.56315565  1
  O  O171  1  0.13373109  0.10791424  0.10859453  1
  O  O172  1  0.11182696  0.12676027  0.62115846  1
  O  O173  1  0.11543782  0.61654326  0.12134644  1
  O  O174  1  0.12471568  0.61972293  0.61752453  1
  O  O175  1  0.61412987  0.11421946  0.12835983  1
  O  O176  1  0.62343595  0.11762028  0.61735696  1
  O  O177  1  0.62056508  0.61876098  0.11523508  1
  O  O178  1  0.61412141  0.62081818  0.62156747  1
  O  O179  1  0.38894116  0.37856358  0.39213291  1
  O  O180  1  0.38459872  0.38641887  0.88354000  1
  O  O181  1  0.39161878  0.87282313  0.38945389  1
  O  O182  1  0.37906364  0.88022438  0.87985114  1
  O  O183  1  0.89609257  0.36432428  0.37825093  1
  O  O184  1  0.87490620  0.38097395  0.88375901  1
  O  O185  1  0.88365865  0.87776034  0.38436764  1
  O  O186  1  0.87812738  0.87923944  0.88191168  1
  O  O187  1  0.26510091  0.00211510  0.38989973  1
  O  O188  1  0.26298655  0.00182575  0.87783315  1
  O  O189  1  0.26325264  0.51229426  0.41446901  1
  O  O190  1  0.25988602  0.51076492  0.87445463  1
  O  O191  1  0.75382534  0.00776631  0.36232202  1
  O  O192  1  0.75413093  0.01237583  0.87536136  1
  O  O193  1  0.76934007  0.49674619  0.40244146  1
  O  O194  1  0.75619976  0.50982122  0.87036900  1
  O  O195  1  0.23590633  0.50925073  0.11714567  1
  O  O196  1  0.23573353  0.49871133  0.62120489  1
  O  O197  1  0.23839617  0.98759150  0.11548730  1
  O  O198  1  0.25323211  0.98359277  0.61877176  1
  O  O199  1  0.74059747  0.47983963  0.11782295  1
  O  O200  1  0.74054064  0.48700850  0.63615421  1
  O  O201  1  0.73951913  0.99933283  0.12692048  1
  O  O202  1  0.74562138  0.99168177  0.62463037  1
  O  O203  1  0.00556290  0.36636360  0.26082362  1
  O  O204  1  0.00696104  0.36765931  0.75187686  1
  O  O205  1  -0.00722244  0.87793470  0.26352859  1
  O  O206  1  -0.00235558  0.86317123  0.76522583  1
  O  O207  1  0.49171255  0.36761918  0.26017199  1
  O  O208  1  0.50564934  0.36678452  0.75659659  1
  O  O209  1  0.50298375  0.86983788  0.25804089  1
  O  O210  1  0.51018106  0.86207760  0.74679485  1
  O  O211  1  0.49500179  0.13876166  0.24252550  1
  O  O212  1  0.49757849  0.13063578  0.74046845  1
  O  O213  1  0.49284104  0.63294646  0.24556530  1
  O  O214  1  0.50742101  0.63668977  0.74517069  1
  O  O215  1  0.99008152  0.12101789  0.25470700  1
  O  O216  1  0.99763682  0.13394488  0.74362562  1
  O  O217  1  1.00294202  0.63180226  0.23646488  1
  O  O218  1  0.99385815  0.63922350  0.75826762  1
  O  O219  1  0.39215726  0.27048450  0.01316513  1
  O  O220  1  0.37597870  0.25354193  0.50996813  1
  O  O221  1  0.37106353  0.75306189  0.00484853  1
  O  O222  1  0.36604513  0.74973608  0.50887351  1
  O  O223  1  0.86570128  0.25867781  0.00956086  1
  O  O224  1  0.87829853  0.25383718  0.51483538  1
  O  O225  1  0.87268654  0.76442050  0.00823115  1
  O  O226  1  0.88318472  0.76521082  0.51008983  1
  O  O227  1  0.13907697  0.25157942  0.50645757  1
  O  O228  1  0.11973920  0.22880918  1.01220130  1
  O  O229  1  0.12795580  0.74570652  0.49447465  1
  O  O230  1  0.13276291  0.74992288  0.99379216  1
  O  O231  1  0.62108986  0.23430310  0.49878490  1
  O  O232  1  0.63423818  0.25493590  1.00027489  1
  O  O233  1  0.63370828  0.74221215  0.49174063  1
  O  O234  1  0.61809159  0.73333131  1.00086913  1
  O  O235  1  0.49464447  0.24422903  0.13187307  1
  O  O236  1  0.49484473  0.24353007  0.63097901  1
  O  O237  1  0.49325393  0.74259477  0.12947089  1
  O  O238  1  0.49295151  0.74346910  0.62936307  1
  O  O239  1  0.98239238  0.25546329  0.12266385  1
  O  O240  1  0.99310974  0.24426465  0.63207552  1
  O  O241  1  0.99196105  0.74373969  0.12355566  1
  O  O242  1  0.99453469  0.76022755  0.63822423  1
  O  O243  1  0.01047076  0.25258333  0.37952163  1
  O  O244  1  -0.00928919  0.25191683  0.86200071  1
  O  O245  1  0.00871810  0.75905069  0.37047890  1
  O  O246  1  0.00732475  0.75412982  0.87359666  1
  O  O247  1  0.50032691  0.25736867  0.36565829  1
  O  O248  1  0.48971497  0.26198764  0.86691579  1
  O  O249  1  0.51164427  0.75788911  0.37444021  1
  O  O250  1  0.50514238  0.75132425  0.86543917  1
  O  O251  1  0.24817307  0.12992257  0.49571724  1
  O  O252  1  0.28053751  0.13762524  0.98623465  1
  O  O253  1  0.23584962  0.64190901  0.50235538  1
  O  O254  1  0.24967952  0.63758197  0.98771415  1
  O  O255  1  0.74318804  0.11581047  0.48718138  1
  O  O256  1  0.74886319  0.13428733  0.98771046  1
  O  O257  1  0.72929629  0.62771836  0.52401496  1
  O  O258  1  0.73715405  0.62136537  0.99326490  1
  O  O259  1  0.26002325  0.37290535  -0.00685464  1
  O  O260  1  0.26045379  0.36496013  0.50104705  1
  O  O261  1  0.26309411  0.86072222  -0.00905421  1
  O  O262  1  0.25093763  0.86327859  0.51080338  1
  O  O263  1  0.75554420  0.36712414  0.00169998  1
  O  O264  1  0.74644508  0.37312189  0.51596080  1
  O  O265  1  0.75230913  0.88098199  0.00993147  1
  O  O266  1  0.76183241  0.86799566  0.50029323  1
  O  O267  1  0.12274607  0.50309288  0.23532041  1
  O  O268  1  0.12588131  0.49741883  0.74415833  1
  O  O269  1  0.13713527  0.99424270  0.24055565  1
  O  O270  1  0.11875305  0.99592512  0.74582608  1
  O  O271  1  0.61615899  0.50295558  0.23664983  1
  O  O272  1  0.62951366  0.49350483  0.74676763  1
  O  O273  1  0.62896148  0.99691917  0.24170801  1
  O  O274  1  0.62451774  0.98586162  0.74154128  1
  O  O275  1  0.40304115  0.02538076  0.25142639  1
  O  O276  1  0.38115545  0.00539107  0.75456092  1
  O  O277  1  0.38476759  0.51668795  0.25348792  1
  O  O278  1  0.37560557  0.49580054  0.76087342  1
  O  O279  1  0.86690202  0.00899732  0.24430090  1
  O  O280  1  0.87108743  0.00039060  0.76520150  1
  O  O281  1  0.87685192  0.51360824  0.24171405  1
  O  O282  1  0.87314911  0.50562512  0.75434999  1
  O  O283  1  0.10768398  0.38394465  0.37256411  1
  O  O284  1  0.12336728  0.38238697  0.86133262  1
  O  O285  1  0.11620185  0.86616219  0.38188391  1
  O  O286  1  0.11816365  0.86634778  0.87906414  1
  O  O287  1  0.61099441  0.37023720  0.38144629  1
  O  O288  1  0.61459459  0.38269712  0.86809939  1
  O  O289  1  0.61829037  0.87353815  0.36961163  1
  O  O290  1  0.62645527  0.87208723  0.86433748  1
  O  O291  1  0.37980027  0.13245656  0.13553061  1
  O  O292  1  0.38246651  0.12854919  0.62877803  1
  O  O293  1  0.38126511  0.63141362  0.13174526  1
  O  O294  1  0.37939619  0.63469645  0.62031854  1
  O  O295  1  0.86855106  0.13801701  0.12882981  1
  O  O296  1  0.88326008  0.13145197  0.62771698  1
  O  O297  1  0.88287663  0.63959088  0.11106182  1
  O  O298  1  0.87526334  0.64053539  0.63030226  1
  O  O299  1  0.26404721  0.24752815  0.11547174  1
  O  O300  1  0.26118546  0.24921162  0.61707681  1
  O  O301  1  0.25917949  0.74106275  0.11488432  1
  O  O302  1  0.25614619  0.75531898  0.62158123  1
  O  O303  1  0.74983322  0.25921471  0.11654352  1
  O  O304  1  0.75881065  0.25759966  0.63469726  1
  O  O305  1  0.75496842  0.76532110  0.12771774  1
  O  O306  1  0.76224612  0.75574360  0.61408487  1
  O  O307  1  0.26767536  0.23074915  0.39111606  1
  O  O308  1  0.27658278  0.24092383  0.88169435  1
  O  O309  1  0.24349085  0.75146142  0.38354682  1
  O  O310  1  0.24378292  0.74573569  0.87905829  1
  O  O311  1  0.74946905  0.23698302  0.36782199  1
  O  O312  1  0.75212976  0.23673636  0.88162512  1
  O  O313  1  0.73537455  0.76631015  0.37236550  1
  O  O314  1  0.74872769  0.73567787  0.86976628  1
  O  O315  1  -0.00306359  0.12035856  0.00411269  1
  O  O316  1  -0.00074073  0.11724220  0.50644257  1
  O  O317  1  0.00146955  0.61591268  0.00856825  1
  O  O318  1  0.00788637  0.61855120  0.49866233  1
  O  O319  1  0.48737711  0.11640413  0.01349687  1
  O  O320  1  0.50660130  0.11760695  0.50218185  1
  O  O321  1  0.50632493  0.61458071  0.00240079  1
  O  O322  1  0.50633191  0.61836758  0.50652031  1
  O  O323  1  0.49718200  0.38095827  0.49788256  1
  O  O324  1  0.50004124  0.38769969  0.99337067  1
  O  O325  1  0.50751540  0.88207627  0.49406861  1
  O  O326  1  0.48981799  0.87984980  0.99802815  1
  O  O327  1  1.00487352  0.38431444  0.49121915  1
  O  O328  1  0.99172855  0.38090683  0.99944526  1
  O  O329  1  0.99495514  0.88328127  0.49550879  1
  O  O330  1  0.98899782  0.86984953  0.98793121  1
  O  O331  1  0.50450107  0.49384903  0.38712370  1
  O  O332  1  0.49453353  0.49559904  0.88067842  1
  O  O333  1  0.49488268  0.99092038  0.37831151  1
  O  O334  1  0.49452883  0.99436207  0.88337429  1
  O  O335  1  0.99673247  0.50555214  0.38977878  1
  O  O336  1  0.99328524  0.50101939  0.88809271  1
  O  O337  1  1.00093212  0.99459868  0.38375933  1
  O  O338  1  0.98891329  0.98958904  0.87277864  1
  O  O339  1  0.02610469  -0.00585697  0.12601113  1
  O  O340  1  -0.00363955  0.00938527  0.61947935  1
  O  O341  1  0.00160875  0.50566747  0.11654536  1
  O  O342  1  0.01399344  0.49461763  0.61766887  1
  O  O343  1  0.50272362  0.00539398  0.11867267  1
  O  O344  1  0.50821897  0.00177804  0.61639623  1
  O  O345  1  0.50666581  0.50425197  0.11607897  1
  O  O346  1  0.50728940  0.50436410  0.62280233  1
  O  O347  1  0.25535072  0.39105301  0.26634617  1
  O  O348  1  0.24383272  0.38031919  0.74585360  1
  O  O349  1  0.32193468  0.90963969  0.26708264  1
  O  O350  1  0.25097972  0.86847232  0.73681130  1
  O  O351  1  0.74944408  0.36884505  0.23876357  1
  O  O352  1  0.74258258  0.37793879  0.75001579  1
  O  O353  1  0.74577307  0.88994666  0.23915930  1
  O  O354  1  0.74405274  0.87440184  0.74135970  1
  O  O355  1  0.26806345  0.12308622  0.25916303  1
  O  O356  1  0.26189879  0.12891306  0.75026705  1
  O  O357  1  0.26594584  0.62725125  0.25404871  1
  O  O358  1  0.24719010  0.62595078  0.76208778  1
  O  O359  1  0.75226218  0.11650195  0.25293985  1
  O  O360  1  0.75114499  0.12308407  0.76317885  1
  O  O361  1  0.75036131  0.61648164  0.23765443  1
  O  O362  1  0.75672867  0.61868035  0.75574491  1
  O  O363  1  0.37213933  0.11278006  0.36516472  1
  O  O364  1  0.38992006  0.10910413  0.85662222  1
  O  O365  1  0.37701385  0.63529736  0.36098437  1
  O  O366  1  0.36825626  0.61573374  0.87921767  1
  O  O367  1  0.86874650  0.12397512  0.36489883  1
  O  O368  1  0.86670349  0.11745451  0.87595727  1
  O  O369  1  0.83733063  0.65227213  0.41616923  1
  O  O370  1  0.86827328  0.61985567  0.87287278  1
  O  O371  1  0.12316588  0.39145226  0.12661396  1
  O  O372  1  0.12680307  0.38394705  0.63714295  1
  O  O373  1  0.13109006  0.87800816  0.12564065  1
  O  O374  1  0.14185878  0.87277503  0.62780471  1
  O  O375  1  0.63506500  0.38053372  0.12304907  1
  O  O376  1  0.62967460  0.37735868  0.63578690  1
  O  O377  1  0.62920434  0.88393468  0.12856421  1
  O  O378  1  0.63541144  0.87633923  0.62800016  1
  O  O379  1  0.16000865  0.25895297  0.25348597  1
  O  O380  1  0.11539091  0.26050544  0.74568909  1
  O  O381  1  0.12850100  0.74726822  0.26114425  1
  O  O382  1  0.11797090  0.75514952  0.75978685  1
  O  O383  1  0.61280920  0.24812834  0.25007851  1
  O  O384  1  0.61099597  0.25409357  0.74756573  1
  O  O385  1  0.61788141  0.75820627  0.25540460  1
  O  O386  1  0.62203888  0.75898901  0.74639719  1
  O  O387  1  0.37962189  0.24122196  0.24312133  1
  O  O388  1  0.38524461  0.24400447  0.73774349  1
  O  O389  1  0.37962800  0.74165586  0.24158410  1
  O  O390  1  0.38693632  0.75118407  0.74225919  1
  O  O391  1  0.86815767  0.24073839  0.23332865  1
  O  O392  1  0.88440791  0.24909622  0.73999506  1
  O  O393  1  0.87829514  0.75860660  0.23343481  1
  O  O394  1  0.88204591  0.74606097  0.74451193  1
  O  O395  1  0.39116234  0.48815920  0.51571434  1
  O  O396  1  0.38377774  0.49578291  0.99438998  1
  O  O397  1  0.39207747  0.99635192  0.50166037  1
  O  O398  1  0.38236578  0.98892891  0.99332733  1
  O  O399  1  0.89765912  0.49113376  0.52063846  1
  O  O400  1  0.88111813  0.48494052  0.99797331  1
  O  O401  1  0.88461376  0.99126075  0.49895714  1
  O  O402  1  0.86836926  0.98851495  0.98891825  1
  O  O403  1  0.12260479  0.01165112  0.00146717  1
  O  O404  1  0.11329451  0.00061680  0.50915009  1
  O  O405  1  0.11537415  0.50076715  0.00762655  1
  O  O406  1  0.11345890  0.50916533  0.50757087  1
  O  O407  1  0.60848008  -0.00545829  0.00758065  1
  O  O408  1  0.61741953  0.00738352  0.50156138  1
  O  O409  1  0.61859019  0.50987061  0.00595409  1
  O  O410  1  0.61453773  0.50607518  0.50856108  1
  O  O411  1  0.37792830  0.37137207  0.11568973  1
  O  O412  1  0.37604775  0.36428800  0.61709889  1
  O  O413  1  0.37983297  0.85772518  0.11301214  1
  O  O414  1  0.36604674  0.86335593  0.62436828  1
  O  O415  1  0.86264650  0.36521513  0.12139658  1
  O  O416  1  0.86404470  0.36678306  0.62713280  1
  O  O417  1  0.86697360  0.87474069  0.11687892  1
  O  O418  1  0.87137582  0.87200482  0.62024672  1
  O  O419  1  0.14261402  0.11279497  0.37643096  1
  O  O420  1  0.12004831  0.12359585  0.89545151  1
  O  O421  1  0.12406726  0.63486967  0.38286314  1
  O  O422  1  0.13182562  0.63630826  0.87852314  1
  O  O423  1  0.63258950  0.12504073  0.38081107  1
  O  O424  1  0.63532047  0.11908414  0.87144777  1
  O  O425  1  0.62182205  0.63505223  0.38583053  1
  O  O426  1  0.63293708  0.62497529  0.88627384  1
