# generated using pymatgen
data_V85Zn86O256
_symmetry_space_group_name_H-M   'P 1'
_cell_length_a   16.97504981
_cell_length_b   16.96925264
_cell_length_c   16.96081830
_cell_angle_alpha   90.08496579
_cell_angle_beta   90.03982796
_cell_angle_gamma   89.90412829
_symmetry_Int_Tables_number   1
_chemical_formula_structural   V85Zn86O256
_chemical_formula_sum   'V85 Zn86 O256'
_cell_volume   4885.61662692
_cell_formula_units_Z   1
loop_
 _symmetry_equiv_pos_site_id
 _symmetry_equiv_pos_as_xyz
  1  'x, y, z'
loop_
 _atom_site_type_symbol
 _atom_site_label
 _atom_site_symmetry_multiplicity
 _atom_site_fract_x
 _atom_site_fract_y
 _atom_site_fract_z
 _atom_site_occupancy
  V  V0  1  0.37676640  0.36841608  -0.00526777  1
  V  V1  1  0.87567507  0.61913922  0.75500129  1
  V  V2  1  0.49752172  0.62322564  0.11595024  1
  V  V3  1  0.37605443  -0.00076861  0.87524570  1
  V  V4  1  0.12169168  0.25050642  0.87138624  1
  V  V5  1  0.35665209  0.11880141  0.25230916  1
  V  V6  1  0.11381719  0.12671247  0.00082939  1
  V  V7  1  0.00431017  0.00546868  0.49829194  1
  V  V8  1  0.62315782  0.24991529  0.37674493  1
  V  V9  1  0.49972704  -0.00008135  -0.00068996  1
  V  V10  1  0.49738496  0.25210195  0.75702244  1
  V  V11  1  0.62383918  0.49677552  0.12477353  1
  V  V12  1  0.50344666  0.49168690  -0.00610201  1
  V  V13  1  0.14356173  0.02411047  0.61088691  1
  V  V14  1  0.12116754  0.37379784  0.25116280  1
  V  V15  1  0.12001796  0.87672389  0.74864840  1
  V  V16  1  0.56329324  0.81408966  0.81961604  1
  V  V17  1  -0.00122958  0.62563135  0.12220382  1
  V  V18  1  0.67517181  0.81863826  0.30473331  1
  V  V19  1  0.62387015  0.25696596  0.87617443  1
  V  V20  1  0.74974997  0.25190517  0.50440457  1
  V  V21  1  0.87657390  -0.01513176  0.87121619  1
  V  V22  1  0.25905436  0.74756902  0.49926494  1
  V  V23  1  0.12824984  0.75051407  0.37396175  1
  V  V24  1  0.87791863  0.12523430  0.24392251  1
  V  V25  1  0.50055254  0.12392619  0.13043106  1
  V  V26  1  0.24554105  0.12428788  0.87382368  1
  V  V27  1  0.25249799  0.62328422  0.37384008  1
  V  V28  1  0.49393377  0.37483351  0.38988241  1
  V  V29  1  -0.00230370  0.25210082  0.74736999  1
  V  V30  1  0.25032419  0.74612795  -0.00747418  1
  V  V31  1  0.87722954  0.87473616  0.50487885  1
  V  V32  1  0.73998708  0.49943006  0.75290583  1
  V  V33  1  0.24912368  0.37308309  0.12526962  1
  V  V34  1  0.12456110  0.00597105  0.12490047  1
  V  V35  1  0.36912479  0.87712820  -0.00589288  1
  V  V36  1  0.49642419  0.75579162  0.25445603  1
  V  V37  1  0.00357233  0.74886888  0.24209815  1
  V  V38  1  0.37190834  0.75195186  0.11996098  1
  V  V39  1  0.75018557  0.37292262  0.11932270  1
  V  V40  1  0.24930365  0.86990733  0.62316465  1
  V  V41  1  0.37264580  0.24730080  0.12660814  1
  V  V42  1  0.12090110  0.75371278  0.87105652  1
  V  V43  1  0.13332211  0.23780709  0.38433118  1
  V  V44  1  0.12646812  0.62217287  -0.00813064  1
  V  V45  1  0.74916350  0.12448098  0.87724119  1
  V  V46  1  0.13298235  0.50156735  0.62308549  1
  V  V47  1  -0.00075285  0.50177603  0.49674313  1
  V  V48  1  0.62955035  0.62348549  0.48211965  1
  V  V49  1  0.62357272  0.37246808  0.25179786  1
  V  V50  1  0.36192091  0.00148579  0.37532768  1
  V  V51  1  0.50120201  0.11537151  0.62677521  1
  V  V52  1  -0.00980606  0.50055499  -0.00757404  1
  V  V53  1  0.37285281  0.25007798  0.60895300  1
  V  V54  1  0.00077306  0.63125501  0.62367554  1
  V  V55  1  0.87078943  0.37610223  -0.00827912  1
  V  V56  1  0.87362809  0.24712884  0.11768239  1
  V  V57  1  0.87346216  0.62373119  0.25358363  1
  V  V58  1  0.12942366  0.62600193  0.50034952  1
  V  V59  1  -0.00265901  -0.00429435  -0.00453233  1
  V  V60  1  0.62398954  -0.00852551  0.12887023  1
  V  V61  1  0.87274397  0.12442782  0.75299471  1
  V  V62  1  0.12909709  0.37514467  0.74687550  1
  V  V63  1  0.37650330  0.49424008  0.38300675  1
  V  V64  1  0.62814457  0.12666642  0.00074066  1
  V  V65  1  0.73747840  -0.00319519  0.74447262  1
  V  V66  1  0.87558084  0.86278272  0.02086615  1
  V  V67  1  0.25085673  -0.00434826  0.75186532  1
  V  V68  1  0.49810921  0.24943719  0.25173923  1
  V  V69  1  0.24983112  0.49944017  0.24807638  1
  V  V70  1  0.36066555  0.50765883  0.88413690  1
  V  V71  1  0.74600011  0.00343470  0.24459959  1
  V  V72  1  0.87256833  0.37804690  0.50186113  1
  V  V73  1  0.75125762  0.12674943  0.37495474  1
  V  V74  1  0.25443456  0.37296929  0.60944076  1
  V  V75  1  0.62510641  0.11940265  0.50547567  1
  V  V76  1  0.75101907  0.49753649  0.25719872  1
  V  V77  1  0.13116991  0.88105402  0.24684389  1
  V  V78  1  -0.00492909  0.12713765  0.62119118  1
  V  V79  1  -0.00214504  0.24884988  0.24675999  1
  V  V80  1  0.37364609  0.12539447  0.75093115  1
  V  V81  1  0.39398790  0.75442801  0.63738911  1
  V  V82  1  0.73091363  0.87419215  0.62270971  1
  V  V83  1  0.00248544  0.87653290  0.37437741  1
  V  V84  1  0.37476427  0.62333146  0.24728463  1
  Zn  Zn85  1  -0.00207624  0.37437618  0.37475230  1
  Zn  Zn86  1  0.75130188  0.63792700  0.87721741  1
  Zn  Zn87  1  0.50359649  -0.00548213  0.49808684  1
  Zn  Zn88  1  0.24871575  0.88053237  0.12617675  1
  Zn  Zn89  1  0.87673961  0.00339564  0.37252088  1
  Zn  Zn90  1  -0.00525614  0.38181761  0.86702952  1
  Zn  Zn91  1  0.38054269  0.87649976  0.49693845  1
  Zn  Zn92  1  0.50053443  0.88125401  0.37012348  1
  Zn  Zn93  1  0.24909732  0.50636161  0.75705826  1
  Zn  Zn94  1  0.73270187  0.38813283  0.62087027  1
  Zn  Zn95  1  0.12301807  0.49910771  0.12267213  1
  Zn  Zn96  1  0.86891704  0.74685755  0.62102633  1
  Zn  Zn97  1  0.75073473  0.74286035  0.48099840  1
  Zn  Zn98  1  0.54199315  0.55969836  0.59923645  1
  Zn  Zn99  1  0.64514080  0.64956075  0.00367600  1
  Zn  Zn100  1  0.24521346  0.24759060  0.00064734  1
  Zn  Zn101  1  0.87081014  0.25485202  0.62782793  1
  Zn  Zn102  1  0.71076462  0.82656496  0.09641988  1
  Zn  Zn103  1  0.61846091  0.37986162  0.74950868  1
  Zn  Zn104  1  0.86631428  0.50445068  0.38084575  1
  Zn  Zn105  1  0.39166694  0.60940786  0.73193673  1
  Zn  Zn106  1  -0.00062097  0.75328604  0.74899485  1
  Zn  Zn107  1  0.18083328  0.18918127  0.18554533  1
  Zn  Zn108  1  0.19256036  0.18251288  0.67323348  1
  Zn  Zn109  1  0.18584589  0.68717536  0.18166808  1
  Zn  Zn110  1  0.20065633  0.68205496  0.69344656  1
  Zn  Zn111  1  0.68936588  0.18910751  0.18534494  1
  Zn  Zn112  1  0.68492816  0.18984827  0.68768766  1
  Zn  Zn113  1  0.68432980  0.67340062  0.19249762  1
  Zn  Zn114  1  0.67769187  0.68947311  0.68700347  1
  Zn  Zn115  1  0.31008853  0.30897021  0.31518638  1
  Zn  Zn116  1  0.30786632  0.31157776  0.81008325  1
  Zn  Zn117  1  0.31444422  0.81416370  0.31073662  1
  Zn  Zn118  1  0.31017694  0.80895362  0.81318731  1
  Zn  Zn119  1  0.81314638  0.31471876  0.31557978  1
  Zn  Zn120  1  0.80440329  0.31399363  0.81214855  1
  Zn  Zn121  1  0.83459775  0.82231501  0.29442914  1
  Zn  Zn122  1  0.81451109  0.80884901  0.79777768  1
  Zn  Zn123  1  0.18628106  0.43512434  0.43343040  1
  Zn  Zn124  1  0.18126520  0.43256976  0.94150031  1
  Zn  Zn125  1  0.19016456  0.93802471  0.43674757  1
  Zn  Zn126  1  0.18538370  0.93588729  0.93697674  1
  Zn  Zn127  1  0.67766965  0.44187258  0.44343033  1
  Zn  Zn128  1  0.72064170  0.50110490  0.96026680  1
  Zn  Zn129  1  0.69432998  0.94358668  0.44057034  1
  Zn  Zn130  1  0.70171899  0.82133014  0.93059112  1
  Zn  Zn131  1  0.30526212  0.06483850  0.06217507  1
  Zn  Zn132  1  0.31353595  0.06285567  0.56156951  1
  Zn  Zn133  1  0.31052404  0.56115292  0.05916356  1
  Zn  Zn134  1  0.34382383  0.54914739  0.58194044  1
  Zn  Zn135  1  0.81173266  0.05750698  0.05986468  1
  Zn  Zn136  1  0.81368524  0.06007502  0.56330679  1
  Zn  Zn137  1  0.81393458  0.67728643  0.06854977  1
  Zn  Zn138  1  0.80204721  0.56794419  0.56575408  1
  Zn  Zn139  1  0.43622321  0.43539601  0.18937000  1
  Zn  Zn140  1  0.43470812  0.42801772  0.69612828  1
  Zn  Zn141  1  0.43424228  0.93707995  0.18734658  1
  Zn  Zn142  1  0.44131078  0.93031986  0.68917916  1
  Zn  Zn143  1  0.93560160  0.43972367  0.18155025  1
  Zn  Zn144  1  0.93900529  0.44113276  0.67952108  1
  Zn  Zn145  1  0.94711946  0.94570272  0.18541193  1
  Zn  Zn146  1  0.94080463  0.94194357  0.68315778  1
  Zn  Zn147  1  0.06239183  0.06551555  0.31026137  1
  Zn  Zn148  1  0.05971528  0.06035058  0.80851514  1
  Zn  Zn149  1  0.06366503  0.56137415  0.31301630  1
  Zn  Zn150  1  0.06273945  0.56400417  0.81071600  1
  Zn  Zn151  1  0.55991480  0.06089728  0.31608548  1
  Zn  Zn152  1  0.56173262  0.06018760  0.81525861  1
  Zn  Zn153  1  0.55731210  0.56129670  0.31247049  1
  Zn  Zn154  1  0.57003509  0.56933028  0.82015279  1
  Zn  Zn155  1  0.43850514  0.17978039  0.43431445  1
  Zn  Zn156  1  0.43684833  0.18499763  0.93868853  1
  Zn  Zn157  1  0.44186184  0.68089595  0.43971040  1
  Zn  Zn158  1  0.45810962  0.66938454  0.89813484  1
  Zn  Zn159  1  0.93857384  0.19092399  0.43392262  1
  Zn  Zn160  1  0.93606798  0.18879546  0.93473563  1
  Zn  Zn161  1  0.93765271  0.68993492  0.43519993  1
  Zn  Zn162  1  0.93809879  0.69363282  0.93188077  1
  Zn  Zn163  1  0.05716793  0.31298941  0.06295970  1
  Zn  Zn164  1  0.06132563  0.31419102  0.56174245  1
  Zn  Zn165  1  0.06100605  0.81527635  0.05849678  1
  Zn  Zn166  1  0.06905513  0.81638844  0.56148052  1
  Zn  Zn167  1  0.56303313  0.30969012  0.06147240  1
  Zn  Zn168  1  0.56018741  0.30827273  0.56897629  1
  Zn  Zn169  1  0.53652584  0.79456674  0.01736327  1
  Zn  Zn170  1  0.56443049  0.80159902  0.54429437  1
  O  O171  1  0.12428780  0.12031063  0.11304176  1
  O  O172  1  0.09670557  0.12110108  0.65352950  1
  O  O173  1  0.11522419  0.62360345  0.11307641  1
  O  O174  1  0.12379175  0.61941143  0.61886058  1
  O  O175  1  0.61662190  0.12439436  0.12002163  1
  O  O176  1  0.61313508  0.13160214  0.61739352  1
  O  O177  1  0.61563233  0.61232476  0.12102088  1
  O  O178  1  0.62967185  0.62709017  0.60947602  1
  O  O179  1  0.38243966  0.38135471  0.36601903  1
  O  O180  1  0.36511008  0.37141811  0.89295339  1
  O  O181  1  0.37229026  0.89169382  0.37169389  1
  O  O182  1  0.36523399  0.88212988  0.88741315  1
  O  O183  1  0.87755778  0.37861353  0.38775060  1
  O  O184  1  0.87713458  0.36291529  0.88848436  1
  O  O185  1  0.88941007  0.87943413  0.38050121  1
  O  O186  1  0.87343869  0.88473204  0.87473314  1
  O  O187  1  0.26149659  0.00413762  0.37657987  1
  O  O188  1  0.25418877  0.00455219  0.86997610  1
  O  O189  1  0.25405386  0.50260941  0.36500939  1
  O  O190  1  0.25770342  0.49286366  0.88213162  1
  O  O191  1  0.75377195  0.00768956  0.36247154  1
  O  O192  1  0.76172794  0.01099699  0.85529988  1
  O  O193  1  0.74763799  0.48560163  0.36046397  1
  O  O194  1  0.76604352  0.50188231  0.85244765  1
  O  O195  1  0.24705338  0.49052987  0.12997362  1
  O  O196  1  0.25127857  0.48807210  0.62633220  1
  O  O197  1  0.23080492  0.99813382  0.11770183  1
  O  O198  1  0.25622113  0.98202061  0.63366376  1
  O  O199  1  0.73769138  0.48446353  0.13999265  1
  O  O200  1  0.76242162  0.49892621  0.64663040  1
  O  O201  1  0.74074430  1.00578068  0.13627679  1
  O  O202  1  0.75561828  0.99052411  0.63522694  1
  O  O203  1  0.00572424  0.37052690  0.24882637  1
  O  O204  1  0.00999205  0.37123352  0.74590651  1
  O  O205  1  0.00662930  0.86860014  0.25558979  1
  O  O206  1  0.01630818  0.87392754  0.73824640  1
  O  O207  1  0.50584440  0.36411586  0.25082424  1
  O  O208  1  0.49789730  0.35608564  0.75553140  1
  O  O209  1  0.49536050  0.86359108  0.24944508  1
  O  O210  1  0.50415138  0.87399326  0.76264686  1
  O  O211  1  0.49596395  0.13015027  0.24083904  1
  O  O212  1  0.49295392  0.12775798  0.74398224  1
  O  O213  1  0.49407645  0.63131114  0.23501246  1
  O  O214  1  0.48464760  0.63208528  0.79173691  1
  O  O215  1  0.98519981  0.13215265  0.25011085  1
  O  O216  1  0.98403034  0.13065949  0.74949370  1
  O  O217  1  1.00290441  0.63020995  0.24127152  1
  O  O218  1  0.99712770  0.62755659  0.73880402  1
  O  O219  1  0.37133523  0.25181798  0.00865736  1
  O  O220  1  0.37434013  0.23942473  0.51089502  1
  O  O221  1  0.36581975  0.76014880  0.00383196  1
  O  O222  1  0.36509158  0.75306642  0.49645819  1
  O  O223  1  0.88170780  0.25764399  0.01115606  1
  O  O224  1  0.86601371  0.25799095  0.49961211  1
  O  O225  1  0.88402029  0.75832742  0.00935266  1
  O  O226  1  0.86801080  0.75906050  0.49706353  1
  O  O227  1  0.11576962  0.25420388  0.48246803  1
  O  O228  1  0.11958055  0.24381498  0.99096831  1
  O  O229  1  0.13706896  0.74779930  0.49218142  1
  O  O230  1  0.13056450  0.74549120  0.99268604  1
  O  O231  1  0.63179565  0.24108456  0.49519343  1
  O  O232  1  0.61711960  0.23467800  0.99316994  1
  O  O233  1  0.63699122  0.73707434  0.48917371  1
  O  O234  1  0.64387122  0.76345068  1.01783672  1
  O  O235  1  0.49249751  0.24135415  0.13060261  1
  O  O236  1  0.48546716  0.23949377  0.63344807  1
  O  O237  1  0.48607295  0.74170387  0.12028904  1
  O  O238  1  0.49185614  0.75999846  0.62458767  1
  O  O239  1  0.98886458  0.25459745  0.13726381  1
  O  O240  1  0.99513792  0.24420824  0.62988719  1
  O  O241  1  1.01067558  0.74116423  0.13277512  1
  O  O242  1  1.00721998  0.73766900  0.61942277  1
  O  O243  1  0.00365316  0.25364734  0.36044342  1
  O  O244  1  0.00911765  0.25185529  0.86608634  1
  O  O245  1  0.00975139  0.75905296  0.36918020  1
  O  O246  1  0.01653518  0.75060833  0.87064376  1
  O  O247  1  0.50189289  0.25372370  0.36880828  1
  O  O248  1  0.50962880  0.23583281  0.86751904  1
  O  O249  1  0.48788578  0.74981272  0.35616015  1
  O  O250  1  0.51100511  0.76770951  0.90252554  1
  O  O251  1  0.20770611  0.10223968  0.57206788  1
  O  O252  1  0.23477687  0.12681279  0.99088143  1
  O  O253  1  0.24574574  0.63340314  0.49198334  1
  O  O254  1  0.23712999  0.63449349  1.00840828  1
  O  O255  1  0.74641377  0.13101348  0.49681427  1
  O  O256  1  0.73973585  0.11624859  0.98954560  1
  O  O257  1  0.74315939  0.62619998  0.49068027  1
  O  O258  1  0.75731091  0.60852156  1.00033636  1
  O  O259  1  0.25191557  0.37022850  0.01334514  1
  O  O260  1  0.24493962  0.37469523  0.51042522  1
  O  O261  1  0.25265341  0.86673331  0.00371337  1
  O  O262  1  0.25314091  0.86751056  0.50616461  1
  O  O263  1  0.76091549  0.39364512  0.00915138  1
  O  O264  1  0.75389112  0.36908508  0.50156221  1
  O  O265  1  0.77193646  0.87901170  0.00888020  1
  O  O266  1  0.75981522  0.87965660  0.51102454  1
  O  O267  1  0.13072751  0.49086196  0.24714047  1
  O  O268  1  0.12725202  0.49283559  0.74241070  1
  O  O269  1  0.11324410  0.99267889  0.23793792  1
  O  O270  1  0.13379015  0.99515035  0.74073932  1
  O  O271  1  0.62649843  0.49261545  0.24170752  1
  O  O272  1  0.63501746  0.50064526  0.75333433  1
  O  O273  1  0.63417538  1.01229082  0.24162124  1
  O  O274  1  0.63977451  1.00759865  0.74839428  1
  O  O275  1  0.37350612  0.01205598  0.25634687  1
  O  O276  1  0.37007276  0.00357070  0.75622460  1
  O  O277  1  0.36628577  0.50561202  0.25170082  1
  O  O278  1  0.37336458  0.48876329  0.78046309  1
  O  O279  1  0.86935655  0.00874385  0.24670944  1
  O  O280  1  0.87639133  0.00697058  0.75529485  1
  O  O281  1  0.86763187  0.50410455  0.25149052  1
  O  O282  1  0.88512688  0.51706572  0.74542766  1
  O  O283  1  0.12237488  0.36942788  0.36053389  1
  O  O284  1  0.12170676  0.36657804  0.86596433  1
  O  O285  1  0.11778986  0.87394370  0.36769825  1
  O  O286  1  0.13117812  0.86817703  0.86106152  1
  O  O287  1  0.61450462  0.36863227  0.37101703  1
  O  O288  1  0.63009878  0.35543363  0.87212884  1
  O  O289  1  0.62515524  0.87840865  0.37072521  1
  O  O290  1  0.62388250  0.87776249  0.87069239  1
  O  O291  1  0.37909453  0.12501384  0.13506477  1
  O  O292  1  0.37879657  0.13396223  0.63134618  1
  O  O293  1  0.37888367  0.63052614  0.12644377  1
  O  O294  1  0.37016325  0.65569867  0.61734549  1
  O  O295  1  0.86539794  0.13616426  0.13036488  1
  O  O296  1  0.88179235  0.12539760  0.63336493  1
  O  O297  1  0.89287923  0.62300990  0.13839979  1
  O  O298  1  0.88700112  0.62744580  0.62656785  1
  O  O299  1  0.25420368  0.25639073  0.12423260  1
  O  O300  1  0.26558121  0.25724313  0.62938739  1
  O  O301  1  0.25953242  0.75073363  0.11649012  1
  O  O302  1  0.24794779  0.75997017  0.61566502  1
  O  O303  1  0.75768273  0.26322554  0.12677067  1
  O  O304  1  0.75081578  0.24981616  0.61244932  1
  O  O305  1  0.76090706  0.74188282  0.14722278  1
  O  O306  1  0.75041416  0.76973200  0.62841911  1
  O  O307  1  0.23296735  0.25080418  0.37199660  1
  O  O308  1  0.23487556  0.24485928  0.87533221  1
  O  O309  1  0.24766440  0.74579013  0.37966625  1
  O  O310  1  0.24099958  0.75139925  0.88641013  1
  O  O311  1  0.74512729  0.24637122  0.38581462  1
  O  O312  1  0.74023809  0.23186142  0.86640538  1
  O  O313  1  0.74556026  0.76729127  0.35653062  1
  O  O314  1  0.76739091  0.74946304  0.87772115  1
  O  O315  1  0.00884213  0.11844786  -0.00704545  1
  O  O316  1  -0.00710606  0.11793166  0.50849996  1
  O  O317  1  0.00221689  0.61693458  0.00342687  1
  O  O318  1  0.00773189  0.62096625  0.50274455  1
  O  O319  1  0.49976206  0.11793836  0.01393994  1
  O  O320  1  0.50919979  0.12484553  0.50837535  1
  O  O321  1  0.49955257  0.61346864  0.00907159  1
  O  O322  1  0.51906076  0.62923521  0.49920163  1
  O  O323  1  0.49859862  0.36519499  0.48844479  1
  O  O324  1  0.48703593  0.37961586  1.01154197  1
  O  O325  1  0.49746931  0.87721798  0.48948338  1
  O  O326  1  0.48271644  0.89434321  1.01012722  1
  O  O327  1  0.99217448  0.38541429  0.49975782  1
  O  O328  1  0.99467959  0.38684465  0.99852001  1
  O  O329  1  0.99698466  0.88072683  0.49180182  1
  O  O330  1  0.98699606  0.88266783  0.99908645  1
  O  O331  1  0.48780452  0.48587712  0.36495970  1
  O  O332  1  0.48817547  0.49489019  0.89357933  1
  O  O333  1  0.48562681  1.00172276  0.37609870  1
  O  O334  1  0.48866694  1.01086348  0.88863145  1
  O  O335  1  1.00241219  0.49861139  0.38826003  1
  O  O336  1  1.00562494  0.49886600  0.88823001  1
  O  O337  1  1.00050754  0.99399740  0.38044198  1
  O  O338  1  0.99033473  1.00469385  0.88395139  1
  O  O339  1  0.01012271  0.00122382  0.10744341  1
  O  O340  1  0.00925656  0.00883857  0.61402084  1
  O  O341  1  0.00300009  0.50680149  0.11283424  1
  O  O342  1  0.00977593  0.51076411  0.61211976  1
  O  O343  1  0.50359854  0.00879632  0.12434211  1
  O  O344  1  0.48906069  0.01246730  0.62175738  1
  O  O345  1  0.50360230  0.50516510  0.12215491  1
  O  O346  1  0.44595405  0.52299252  0.64017767  1
  O  O347  1  0.24306534  0.37707726  0.24053786  1
  O  O348  1  0.23748012  0.37593634  0.74349086  1
  O  O349  1  0.23426145  0.87062088  0.24768588  1
  O  O350  1  0.24223615  0.87632795  0.74191534  1
  O  O351  1  0.74277064  0.37542095  0.24412973  1
  O  O352  1  0.74774411  0.38744544  0.74669924  1
  O  O353  1  0.74130628  0.88211812  0.25141614  1
  O  O354  1  0.75471773  0.88879233  0.73512234  1
  O  O355  1  0.25923489  0.12584773  0.24329330  1
  O  O356  1  0.25446974  0.11711616  0.75424006  1
  O  O357  1  0.25334789  0.62034120  0.25265454  1
  O  O358  1  0.27334795  0.61613602  0.74352634  1
  O  O359  1  0.75876532  0.12105708  0.25323719  1
  O  O360  1  0.75856826  0.11674830  0.74845083  1
  O  O361  1  0.76227853  0.60996318  0.24912536  1
  O  O362  1  0.76343174  0.61925445  0.74815075  1
  O  O363  1  0.37451474  0.11798835  0.35993376  1
  O  O364  1  0.36452517  0.11951249  0.87167935  1
  O  O365  1  0.37058643  0.61742704  0.36576382  1
  O  O366  1  0.36221431  0.60602936  0.90126304  1
  O  O367  1  0.86778880  0.12589965  0.36468637  1
  O  O368  1  0.86726858  0.12038457  0.86943843  1
  O  O369  1  0.88633825  0.62046953  0.35888661  1
  O  O370  1  0.88307270  0.62776147  0.85665863  1
  O  O371  1  0.13090050  0.37270622  0.13418918  1
  O  O372  1  0.13241563  0.37973666  0.62949933  1
  O  O373  1  0.12283456  0.88326896  0.13164314  1
  O  O374  1  0.13553167  0.88715575  0.62696711  1
  O  O375  1  0.63069707  0.37361266  0.13247602  1
  O  O376  1  0.62116673  0.37057746  0.63491845  1
  O  O377  1  0.61967971  0.89211856  0.12428216  1
  O  O378  1  0.63405103  0.87654677  0.61336239  1
  O  O379  1  0.11438718  0.25560544  0.25255725  1
  O  O380  1  0.12049023  0.25636923  0.75359309  1
  O  O381  1  0.11975453  0.75630691  0.25428116  1
  O  O382  1  0.12931743  0.75713982  0.75509451  1
  O  O383  1  0.61952357  0.25231734  0.25729536  1
  O  O384  1  0.61359931  0.24214713  0.76074182  1
  O  O385  1  0.61587439  0.75257363  0.24892785  1
  O  O386  1  0.62260159  0.75009234  0.76678253  1
  O  O387  1  0.37755763  0.23698332  0.24631803  1
  O  O388  1  0.38009493  0.23990710  0.75283164  1
  O  O389  1  0.37788031  0.74487348  0.23820917  1
  O  O390  1  0.37710818  0.75711610  0.73822195  1
  O  O391  1  0.87859196  0.24541356  0.24244042  1
  O  O392  1  0.87757405  0.24313261  0.74910511  1
  O  O393  1  0.89654280  0.73962499  0.25276794  1
  O  O394  1  0.88330961  0.73753886  0.73850075  1
  O  O395  1  0.36829616  0.50209970  0.48130980  1
  O  O396  1  0.37885719  0.48652336  0.99943037  1
  O  O397  1  0.37491984  1.00511020  0.48595062  1
  O  O398  1  0.37515671  0.99645648  0.99661140  1
  O  O399  1  0.88191729  0.49619199  0.49977471  1
  O  O400  1  0.88969206  0.49118250  0.99993163  1
  O  O401  1  0.88684241  0.99318724  0.49709531  1
  O  O402  1  0.88137584  0.99247255  0.99320645  1
  O  O403  1  0.11627979  0.00623258  0.00025963  1
  O  O404  1  0.11386133  -0.00585100  0.50445158  1
  O  O405  1  0.11643454  0.50743435  0.00155274  1
  O  O406  1  0.12029521  0.50514374  0.50351432  1
  O  O407  1  0.61102346  0.01435985  0.01193113  1
  O  O408  1  0.62575562  0.01597470  0.49621104  1
  O  O409  1  0.61604642  0.48206686  0.01836306  1
  O  O410  1  0.62208774  0.51593238  0.50481828  1
  O  O411  1  0.36523541  0.36773870  0.12142587  1
  O  O412  1  0.36930770  0.35762878  0.62693080  1
  O  O413  1  0.36895592  0.86872981  0.11688298  1
  O  O414  1  0.36852435  0.86594320  0.62019359  1
  O  O415  1  0.86748215  0.36838945  0.11662789  1
  O  O416  1  0.87437588  0.37389561  0.61081407  1
  O  O417  1  0.88196595  0.87618693  0.11926040  1
  O  O418  1  0.88190539  0.87291213  0.61082340  1
  O  O419  1  0.12149600  0.13833373  0.37179335  1
  O  O420  1  0.12600121  0.13147062  0.87673702  1
  O  O421  1  0.13280032  0.63034675  0.37920484  1
  O  O422  1  0.12272783  0.63224288  0.88557940  1
  O  O423  1  0.63110577  0.13240391  0.38138679  1
  O  O424  1  0.63204696  0.12428991  0.88448100  1
  O  O425  1  0.62558305  0.61940181  0.37960494  1
  O  O426  1  0.64220060  0.59741973  0.90136915  1
