# generated using pymatgen
data_V85Zn86O256
_symmetry_space_group_name_H-M   'P 1'
_cell_length_a   16.93341328
_cell_length_b   16.94385017
_cell_length_c   16.93359289
_cell_angle_alpha   90.10027059
_cell_angle_beta   90.06021881
_cell_angle_gamma   90.01748194
_symmetry_Int_Tables_number   1
_chemical_formula_structural   V85Zn86O256
_chemical_formula_sum   'V85 Zn86 O256'
_cell_volume   4858.52900044
_cell_formula_units_Z   1
loop_
 _symmetry_equiv_pos_site_id
 _symmetry_equiv_pos_as_xyz
  1  'x, y, z'
loop_
 _atom_site_type_symbol
 _atom_site_label
 _atom_site_symmetry_multiplicity
 _atom_site_fract_x
 _atom_site_fract_y
 _atom_site_fract_z
 _atom_site_occupancy
  V  V0  1  0.62423545  0.24767974  0.37197295  1
  V  V1  1  0.87815555  0.25253865  0.12840491  1
  V  V2  1  0.25459937  0.74261948  -0.00586721  1
  V  V3  1  0.49940992  0.37359380  0.87362130  1
  V  V4  1  0.37162920  0.24912816  0.62372030  1
  V  V5  1  0.12265384  0.62437602  -0.00503044  1
  V  V6  1  0.88000601  -0.00093935  0.87601128  1
  V  V7  1  0.62364468  0.62415644  -0.00285924  1
  V  V8  1  -0.00063634  0.75156409  0.74954322  1
  V  V9  1  0.50553464  0.87289803  0.39076804  1
  V  V10  1  0.87577925  0.87295037  0.50144862  1
  V  V11  1  0.87236516  0.50618128  0.38275389  1
  V  V12  1  0.12136773  0.13357840  0.48881104  1
  V  V13  1  0.37689236  0.75175540  0.13346394  1
  V  V14  1  0.00582732  0.25122707  0.25374962  1
  V  V15  1  0.24103590  0.25201037  0.48887231  1
  V  V16  1  0.88178683  0.61406825  0.75726463  1
  V  V17  1  0.86408227  0.73797577  0.62146011  1
  V  V18  1  0.63334132  0.49020201  0.62275666  1
  V  V19  1  0.36633499  0.74830563  0.61490291  1
  V  V20  1  0.13103137  0.88487884  0.24459927  1
  V  V21  1  0.50094281  0.63027403  0.13006522  1
  V  V22  1  0.50604707  0.62298759  0.62094593  1
  V  V23  1  0.24693911  0.50399848  0.74970195  1
  V  V24  1  0.50077862  0.75008586  0.74702873  1
  V  V25  1  0.13243278  0.37597791  0.25361250  1
  V  V26  1  0.13468870  0.87782821  0.73588057  1
  V  V27  1  0.88064855  0.74277943  0.12600045  1
  V  V28  1  0.74514305  -0.00104303  0.24689215  1
  V  V29  1  -0.00266001  0.38739317  0.87763630  1
  V  V30  1  0.36971624  0.49859719  0.36563520  1
  V  V31  1  0.62420459  0.87439897  0.74915914  1
  V  V32  1  0.74718267  0.00304434  0.74978556  1
  V  V33  1  0.75126412  0.87819186  0.62538926  1
  V  V34  1  0.86986462  0.26073243  0.62380618  1
  V  V35  1  0.24486164  0.24813488  0.00245410  1
  V  V36  1  0.49863762  0.24863718  0.74896466  1
  V  V37  1  0.49913360  0.36988725  0.37145581  1
  V  V38  1  0.87377137  -0.00172480  0.37642813  1
  V  V39  1  -0.00409540  0.37349099  0.37780242  1
  V  V40  1  0.36684214  0.00295678  0.86968825  1
  V  V41  1  0.11918626  0.11429066  0.00105360  1
  V  V42  1  0.62583756  0.12146256  0.00295078  1
  V  V43  1  0.62562826  0.74708768  0.86899170  1
  V  V44  1  0.50266962  0.50301526  0.49793516  1
  V  V45  1  0.37434265  0.87553888  0.00200938  1
  V  V46  1  0.88131481  0.87889155  0.00019251  1
  V  V47  1  0.00253717  0.49521936  0.50465379  1
  V  V48  1  0.37149649  0.37356998  0.00197027  1
  V  V49  1  0.75015312  0.75088403  -0.00321724  1
  V  V50  1  0.50113756  0.87667124  0.87210095  1
  V  V51  1  0.75462677  0.61667814  0.87239414  1
  V  V52  1  0.00207261  0.11333341  0.12352533  1
  V  V53  1  0.62442756  0.37164306  0.24921573  1
  V  V54  1  0.75265011  0.26075113  0.50198293  1
  V  V55  1  0.01021546  0.61945463  0.62699938  1
  V  V56  1  0.75071974  0.12421934  0.87796490  1
  V  V57  1  0.00883532  -0.00282730  0.50522465  1
  V  V58  1  0.12506645  0.51148612  0.13686256  1
  V  V59  1  0.62663873  0.73454238  0.37465275  1
  V  V60  1  0.49601379  0.12053404  0.62007423  1
  V  V61  1  0.36069821  0.87224381  0.49848955  1
  V  V62  1  0.75053608  0.50859645  0.25629854  1
  V  V63  1  0.50380668  0.00149959  0.00327098  1
  V  V64  1  0.62270916  0.11712481  0.50014598  1
  V  V65  1  0.50443713  0.12973857  0.13584392  1
  V  V66  1  0.62494995  0.49902568  0.12341743  1
  V  V67  1  -0.00087829  0.87005895  0.37236089  1
  V  V68  1  0.13207269  0.75012861  0.37875017  1
  V  V69  1  0.24967723  0.62315863  0.36421542  1
  V  V70  1  0.13457969  0.62402806  0.50266124  1
  V  V71  1  0.24557578  0.38108138  0.62386386  1
  V  V72  1  0.87576057  0.38299249  -0.00089517  1
  V  V73  1  0.00289154  0.12246020  0.62788087  1
  V  V74  1  0.74523224  0.87757900  0.12343791  1
  V  V75  1  0.01107819  0.87644816  0.87608658  1
  V  V76  1  0.61526556  0.87006344  0.24682402  1
  V  V77  1  -0.00139698  0.24994743  0.75369442  1
  V  V78  1  0.37236028  0.37528071  0.49794992  1
  V  V79  1  0.75059976  0.12423262  0.37676929  1
  V  V80  1  0.35468804  0.12469562  0.25502775  1
  V  V81  1  0.37208703  0.62728733  0.75237667  1
  V  V82  1  0.12470504  0.37853935  0.74914336  1
  V  V83  1  0.37118973  0.50437245  0.87636320  1
  V  V84  1  0.75051832  0.25035152  0.00247520  1
  Zn  Zn85  1  0.36480900  0.12656804  0.74930116  1
  Zn  Zn86  1  -0.00495519  0.50949346  0.00677724  1
  Zn  Zn87  1  0.21602242  0.02654674  0.69922582  1
  Zn  Zn88  1  0.00933565  0.74228121  0.24256034  1
  Zn  Zn89  1  0.75185470  0.37557711  0.12723052  1
  Zn  Zn90  1  0.25574695  0.88610824  0.13767576  1
  Zn  Zn91  1  0.37499659  0.62416606  0.24762619  1
  Zn  Zn92  1  0.37352050  -0.00141650  0.36809777  1
  Zn  Zn93  1  0.12381435  0.25209910  0.87891926  1
  Zn  Zn94  1  0.75132580  0.73946864  0.48745023  1
  Zn  Zn95  1  0.25139749  0.38030134  0.13129400  1
  Zn  Zn96  1  0.87853916  0.62490636  0.25354496  1
  Zn  Zn97  1  0.49815651  0.49967703  -0.00055695  1
  Zn  Zn98  1  0.87484123  0.12457358  0.74908985  1
  Zn  Zn99  1  0.24248784  0.12537414  0.87065649  1
  Zn  Zn100  1  0.61150595  -0.00456737  0.62171060  1
  Zn  Zn101  1  0.75794004  0.48958454  0.74932731  1
  Zn  Zn102  1  0.87519169  0.12463845  0.25112753  1
  Zn  Zn103  1  0.62605068  0.24985624  0.87346219  1
  Zn  Zn104  1  0.13557591  0.74811182  0.87135111  1
  Zn  Zn105  1  0.37873772  0.25316109  0.13083385  1
  Zn  Zn106  1  0.63144089  0.36979132  0.74471608  1
  Zn  Zn107  1  0.18423343  0.19073587  0.18328819  1
  Zn  Zn108  1  0.18349901  0.19565003  0.68318712  1
  Zn  Zn109  1  0.18961301  0.69421760  0.18550495  1
  Zn  Zn110  1  0.18894810  0.69118778  0.68948106  1
  Zn  Zn111  1  0.68765212  0.18526595  0.18718645  1
  Zn  Zn112  1  0.68523538  0.18771989  0.68617496  1
  Zn  Zn113  1  0.68902256  0.69034665  0.18815601  1
  Zn  Zn114  1  0.69830650  0.67622211  0.67242467  1
  Zn  Zn115  1  0.31502627  0.30516711  0.30928508  1
  Zn  Zn116  1  0.31097037  0.31206965  0.81532417  1
  Zn  Zn117  1  0.31070891  0.81012547  0.31640896  1
  Zn  Zn118  1  0.31354982  0.81400691  0.81219026  1
  Zn  Zn119  1  0.81316720  0.31754772  0.31430976  1
  Zn  Zn120  1  0.81374364  0.31332413  0.81424040  1
  Zn  Zn121  1  0.80778592  0.81055498  0.31025770  1
  Zn  Zn122  1  0.81417208  0.81002929  0.80959536  1
  Zn  Zn123  1  0.18274364  0.44002767  0.43428137  1
  Zn  Zn124  1  0.18751538  0.44124237  0.93842501  1
  Zn  Zn125  1  0.18745229  0.93902349  0.42743601  1
  Zn  Zn126  1  0.20826241  0.96060839  0.98246069  1
  Zn  Zn127  1  0.68621216  0.44019083  0.43829601  1
  Zn  Zn128  1  0.68780296  0.43462119  0.93559254  1
  Zn  Zn129  1  0.68700078  0.93345510  0.43773585  1
  Zn  Zn130  1  0.68863957  0.93809514  0.93715436  1
  Zn  Zn131  1  0.31752730  0.06751520  0.06809931  1
  Zn  Zn132  1  0.28890909  0.04117204  0.51676293  1
  Zn  Zn133  1  0.30786592  0.56182678  0.06557184  1
  Zn  Zn134  1  0.31612435  0.56171766  0.56023983  1
  Zn  Zn135  1  0.81653829  0.06142999  0.06517461  1
  Zn  Zn136  1  0.81591519  0.06646464  0.56262632  1
  Zn  Zn137  1  0.80683477  0.56254553  0.06315646  1
  Zn  Zn138  1  0.81867449  0.56194432  0.56534761  1
  Zn  Zn139  1  0.44158272  0.43684222  0.18629397  1
  Zn  Zn140  1  0.43727327  0.43670466  0.68719071  1
  Zn  Zn141  1  0.43774100  0.94579025  0.18674696  1
  Zn  Zn142  1  0.38758112  0.96305916  0.65513730  1
  Zn  Zn143  1  0.94173128  0.44134925  0.18931018  1
  Zn  Zn144  1  0.94058319  0.43768758  0.68535388  1
  Zn  Zn145  1  0.93470347  0.93216974  0.19132143  1
  Zn  Zn146  1  0.93768645  0.93704479  0.68840636  1
  Zn  Zn147  1  0.05946833  0.06170895  0.31212276  1
  Zn  Zn148  1  0.06461423  0.06123770  0.81591988  1
  Zn  Zn149  1  0.05720359  0.56424668  0.31352936  1
  Zn  Zn150  1  0.06719180  0.56350414  0.81764944  1
  Zn  Zn151  1  0.56230562  0.05307401  0.31559707  1
  Zn  Zn152  1  0.55955573  0.06417064  0.81246266  1
  Zn  Zn153  1  0.55819180  0.55796010  0.30828682  1
  Zn  Zn154  1  0.56123576  0.55932384  0.80736807  1
  Zn  Zn155  1  0.43504030  0.18731684  0.43551525  1
  Zn  Zn156  1  0.43504387  0.18741914  0.93928168  1
  Zn  Zn157  1  0.44256981  0.68778795  0.43135280  1
  Zn  Zn158  1  0.43927708  0.68679915  0.93948284  1
  Zn  Zn159  1  0.93609587  0.18830442  0.43911102  1
  Zn  Zn160  1  0.93743365  0.19078542  0.93965316  1
  Zn  Zn161  1  0.94195891  0.68478403  0.43765390  1
  Zn  Zn162  1  0.94017040  0.69128130  0.93824356  1
  Zn  Zn163  1  0.06367325  0.31594823  0.06752711  1
  Zn  Zn164  1  0.05939571  0.31375923  0.56629791  1
  Zn  Zn165  1  0.06543215  0.81309973  0.06063929  1
  Zn  Zn166  1  0.06177163  0.80645818  0.56252937  1
  Zn  Zn167  1  0.56176384  0.31041676  0.06013418  1
  Zn  Zn168  1  0.56130127  0.30978674  0.55699913  1
  Zn  Zn169  1  0.56223449  0.81141188  0.06088422  1
  Zn  Zn170  1  0.57068950  0.80274911  0.56193904  1
  O  O171  1  0.10906194  0.12765735  0.11949238  1
  O  O172  1  0.10894417  0.13067779  0.61864628  1
  O  O173  1  0.12866863  0.61717172  0.11955671  1
  O  O174  1  0.11801629  0.63296309  0.61897286  1
  O  O175  1  0.61732912  0.12770767  0.11331694  1
  O  O176  1  0.61482784  0.12398923  0.61655361  1
  O  O177  1  0.62072338  0.61995687  0.11950352  1
  O  O178  1  0.61102175  0.61217568  0.62830872  1
  O  O179  1  0.38154541  0.37893413  0.37663317  1
  O  O180  1  0.38298214  0.38132608  0.88041157  1
  O  O181  1  0.38855870  0.86213952  0.38653556  1
  O  O182  1  0.38208260  0.88386373  0.87971771  1
  O  O183  1  0.88767670  0.38685334  0.37142461  1
  O  O184  1  0.88541568  0.36991191  0.88750520  1
  O  O185  1  0.88114706  0.87647526  0.37927167  1
  O  O186  1  0.88138544  0.87929356  0.88109434  1
  O  O187  1  0.26645324  0.01202959  0.40745461  1
  O  O188  1  0.26421552  0.00103960  0.88478525  1
  O  O189  1  0.25992770  0.50782399  0.38016150  1
  O  O190  1  0.26350140  0.49475504  0.86545953  1
  O  O191  1  0.75473362  0.00300647  0.37076002  1
  O  O192  1  0.75877299  0.00459921  0.86929282  1
  O  O193  1  0.75809210  0.49558680  0.36938974  1
  O  O194  1  0.74489459  0.51407602  0.87489428  1
  O  O195  1  0.23173447  0.49654466  0.12283574  1
  O  O196  1  0.25882502  0.48834161  0.63301936  1
  O  O197  1  0.24594467  0.98722703  0.08912304  1
  O  O198  1  0.28401834  0.99757826  0.62000756  1
  O  O199  1  0.73786958  0.49761172  0.13185261  1
  O  O200  1  0.73578260  0.50038117  0.62254478  1
  O  O201  1  0.75580566  0.99015499  0.13366267  1
  O  O202  1  0.75177351  0.99334853  0.63324417  1
  O  O203  1  0.00647748  0.36857799  0.25710950  1
  O  O204  1  0.00631507  0.37214667  0.75697013  1
  O  O205  1  0.00784591  0.86912841  0.25836715  1
  O  O206  1  0.00502448  0.86730068  0.75420640  1
  O  O207  1  0.51419738  0.37868144  0.25742848  1
  O  O208  1  0.49908711  0.36468719  0.75651226  1
  O  O209  1  0.51372510  0.87837827  0.24392621  1
  O  O210  1  0.50948334  0.86625630  0.75652728  1
  O  O211  1  0.51295063  0.11966857  0.23516345  1
  O  O212  1  0.49604748  0.13745251  0.74385380  1
  O  O213  1  0.49766379  0.62163725  0.23421591  1
  O  O214  1  0.48917216  0.62748405  0.74116567  1
  O  O215  1  0.99841982  0.13272884  0.24188492  1
  O  O216  1  1.00015244  0.13361273  0.74596163  1
  O  O217  1  0.99225672  0.63178082  0.25467720  1
  O  O218  1  1.00142893  0.63076419  0.74905012  1
  O  O219  1  0.36757825  0.25772403  0.00328550  1
  O  O220  1  0.36541702  0.25636307  0.50499232  1
  O  O221  1  0.37272028  0.75552124  0.00642578  1
  O  O222  1  0.38239916  0.75214441  0.50888338  1
  O  O223  1  0.87078502  0.25829092  0.01138829  1
  O  O224  1  0.86814174  0.24616574  0.51429781  1
  O  O225  1  0.87061621  0.76000697  0.00657692  1
  O  O226  1  0.87672426  0.75854143  0.50207410  1
  O  O227  1  0.12551778  0.24328192  0.50261605  1
  O  O228  1  0.13015754  0.24685974  1.00062144  1
  O  O229  1  0.11840284  0.73937396  0.48780593  1
  O  O230  1  0.13522526  0.74144912  1.00010283  1
  O  O231  1  0.63210081  0.24223376  0.49036284  1
  O  O232  1  0.63357803  0.24277179  0.99722750  1
  O  O233  1  0.63039410  0.74584409  0.48215974  1
  O  O234  1  0.62971627  0.74428626  0.98938899  1
  O  O235  1  0.49935376  0.23365106  0.11950763  1
  O  O236  1  0.49209719  0.24804511  0.63059745  1
  O  O237  1  0.49126340  0.74091272  0.11711996  1
  O  O238  1  0.49857141  0.73894196  0.62867907  1
  O  O239  1  0.99296753  0.24688778  0.13570592  1
  O  O240  1  0.99056773  0.24664540  0.63563493  1
  O  O241  1  0.98353726  0.75831625  0.12396309  1
  O  O242  1  0.99194764  0.74164709  0.63438093  1
  O  O243  1  -0.01037700  0.25826951  0.36415864  1
  O  O244  1  -0.00292723  0.25783915  0.86326041  1
  O  O245  1  0.00602683  0.76125345  0.37639648  1
  O  O246  1  0.00058579  0.75808840  0.86271718  1
  O  O247  1  0.50867378  0.26263291  0.38099903  1
  O  O248  1  0.49727873  0.25587043  0.86669810  1
  O  O249  1  0.51288323  0.76022514  0.37232210  1
  O  O250  1  0.50527953  0.75448396  0.86845188  1
  O  O251  1  0.22741019  0.13987103  0.51161754  1
  O  O252  1  0.23785997  0.13303169  1.00083150  1
  O  O253  1  0.23786226  0.61681508  0.49582540  1
  O  O254  1  0.23946224  0.63287489  1.00487067  1
  O  O255  1  0.74244085  0.13151652  0.49483479  1
  O  O256  1  0.74402615  0.12833825  1.00006295  1
  O  O257  1  0.77042928  0.66406341  0.57042280  1
  O  O258  1  0.74417903  0.63099972  0.99135674  1
  O  O259  1  0.26034508  0.37083933  -0.00194523  1
  O  O260  1  0.24940536  0.37340071  0.50727767  1
  O  O261  1  0.26795715  0.86222198  -0.00535686  1
  O  O262  1  0.26207002  0.86847992  0.49463747  1
  O  O263  1  0.75739937  0.36783684  0.00125557  1
  O  O264  1  0.74519381  0.35980591  0.49603751  1
  O  O265  1  0.75584264  0.87004884  0.00468305  1
  O  O266  1  0.75503698  0.87089764  0.51151730  1
  O  O267  1  0.12249675  0.49582771  0.24266400  1
  O  O268  1  0.13941617  0.49708663  0.75489361  1
  O  O269  1  0.12091445  0.98332373  0.25716332  1
  O  O270  1  0.12295917  0.98513011  0.74919877  1
  O  O271  1  0.63096953  0.49277181  0.24433545  1
  O  O272  1  0.62199624  0.49574536  0.73270200  1
  O  O273  1  0.63888573  0.98832538  0.25520523  1
  O  O274  1  0.63067820  0.99624854  0.74699472  1
  O  O275  1  0.37478855  0.01687886  0.24870733  1
  O  O276  1  0.37931707  0.00219810  0.76690178  1
  O  O277  1  0.38032930  0.49993492  0.26199909  1
  O  O278  1  0.36804632  0.50676311  0.75467912  1
  O  O279  1  0.86378959  -0.00252943  0.25900903  1
  O  O280  1  0.86575897  0.00136920  0.75793557  1
  O  O281  1  0.86631518  0.49953616  0.25783606  1
  O  O282  1  0.87899214  0.50999929  0.75067112  1
  O  O283  1  0.10949786  0.38368547  0.36496463  1
  O  O284  1  0.11839350  0.37527041  0.86603750  1
  O  O285  1  0.11837261  0.86756837  0.37152106  1
  O  O286  1  0.11312735  0.87255909  0.86868196  1
  O  O287  1  0.61884809  0.36835469  0.36943783  1
  O  O288  1  0.60789935  0.37366103  0.87805457  1
  O  O289  1  0.61680255  0.86964316  0.36804480  1
  O  O290  1  0.62157946  0.86804901  0.86984796  1
  O  O291  1  0.38783755  0.12727919  0.13613724  1
  O  O292  1  0.38071224  0.14270539  0.62440405  1
  O  O293  1  0.38242602  0.63165203  0.12387933  1
  O  O294  1  0.38468050  0.63182632  0.62797380  1
  O  O295  1  0.88454778  0.13456428  0.12687657  1
  O  O296  1  0.88662038  0.13365088  0.62730229  1
  O  O297  1  0.87011567  0.64101954  0.11946873  1
  O  O298  1  0.89630558  0.62216322  0.63911826  1
  O  O299  1  0.25197219  0.25668454  0.11350488  1
  O  O300  1  0.25539357  0.26445811  0.61961024  1
  O  O301  1  0.26075315  0.75636879  0.11442298  1
  O  O302  1  0.26797172  0.74298127  0.62320385  1
  O  O303  1  0.75842726  0.25093535  0.11964277  1
  O  O304  1  0.76238310  0.24381731  0.61931757  1
  O  O305  1  0.75770047  0.75735828  0.11625854  1
  O  O306  1  0.75575540  0.77786864  0.65824873  1
  O  O307  1  0.24981358  0.25676807  0.39016487  1
  O  O308  1  0.24872057  0.24872921  0.88808336  1
  O  O309  1  0.24292057  0.73815950  0.37791809  1
  O  O310  1  0.25479055  0.74988142  0.88805317  1
  O  O311  1  0.74600042  0.24429760  0.38143263  1
  O  O312  1  0.75233878  0.23998728  0.88577201  1
  O  O313  1  0.73538732  0.74957909  0.37385263  1
  O  O314  1  0.74480607  0.74150999  0.87700466  1
  O  O315  1  0.00294070  0.13355171  0.01618650  1
  O  O316  1  0.00504378  0.12026858  0.50704207  1
  O  O317  1  0.01624332  0.62865606  -0.00122065  1
  O  O318  1  0.00895644  0.61879285  0.51023351  1
  O  O319  1  0.50734308  0.11913143  0.00388021  1
  O  O320  1  0.50903101  0.13430054  0.50847418  1
  O  O321  1  0.50778815  0.62086034  0.00791828  1
  O  O322  1  0.49396650  0.61087947  0.50520342  1
  O  O323  1  0.49397023  0.38275342  0.49166293  1
  O  O324  1  0.48799762  0.37522016  0.99319639  1
  O  O325  1  0.50848138  0.87091398  0.49081903  1
  O  O326  1  0.49412071  0.88127550  0.99442669  1
  O  O327  1  1.00634035  0.38339548  0.49261680  1
  O  O328  1  0.99336190  0.37474439  0.99301471  1
  O  O329  1  0.99744201  0.88138281  0.49562516  1
  O  O330  1  0.99252925  0.86995777  0.99002791  1
  O  O331  1  0.49596690  0.49008565  0.38076838  1
  O  O332  1  0.48886012  0.49218505  0.87348540  1
  O  O333  1  0.49517507  0.97668539  0.36890666  1
  O  O334  1  0.49365499  0.99671077  0.88363013  1
  O  O335  1  0.99183693  0.49427884  0.38456606  1
  O  O336  1  1.00221428  0.49057673  0.88064701  1
  O  O337  1  0.99396430  0.98817948  0.38163302  1
  O  O338  1  0.98605203  0.99148794  0.86678057  1
  O  O339  1  -0.01071297  0.01521724  0.13096088  1
  O  O340  1  -0.00761197  0.00886848  0.61630106  1
  O  O341  1  0.01851829  0.49663231  0.12193715  1
  O  O342  1  0.00319151  0.50656556  0.61833332  1
  O  O343  1  0.49782384  0.01221312  0.11028076  1
  O  O344  1  0.49181014  0.01804220  0.63270497  1
  O  O345  1  0.51218075  0.50563811  0.12257684  1
  O  O346  1  0.50262968  0.50358621  0.61607255  1
  O  O347  1  0.23623805  0.36943997  0.25411558  1
  O  O348  1  0.24380649  0.38129626  0.74490375  1
  O  O349  1  0.23749849  0.87554029  0.25459442  1
  O  O350  1  0.23453729  0.87058801  0.75111360  1
  O  O351  1  0.73848354  0.38387669  0.24982369  1
  O  O352  1  0.74325250  0.37886520  0.76107821  1
  O  O353  1  0.74326121  0.88019991  0.24073941  1
  O  O354  1  0.74454184  0.89081307  0.75302825  1
  O  O355  1  0.25541992  0.12670076  0.24750065  1
  O  O356  1  0.24543289  0.12628712  0.75102509  1
  O  O357  1  0.25122486  0.62635251  0.26081494  1
  O  O358  1  0.26214957  0.61820657  0.74376267  1
  O  O359  1  0.75068068  0.11586897  0.25635402  1
  O  O360  1  0.74894366  0.11584683  0.75527705  1
  O  O361  1  0.75382113  0.61159325  0.24449650  1
  O  O362  1  0.76349521  0.61845059  0.75526555  1
  O  O363  1  0.38353701  0.12389125  0.35728745  1
  O  O364  1  0.37257718  0.11300699  0.87501249  1
  O  O365  1  0.36858927  0.61747024  0.37319020  1
  O  O366  1  0.38190048  0.61685602  0.86451359  1
  O  O367  1  0.86926037  0.11700984  0.37398634  1
  O  O368  1  0.87056622  0.11585823  0.87644308  1
  O  O369  1  0.87469782  0.61160576  0.37844073  1
  O  O370  1  0.86764229  0.63137065  0.86944162  1
  O  O371  1  0.12681568  0.38496281  0.13695767  1
  O  O372  1  0.13132266  0.37407023  0.63916558  1
  O  O373  1  0.12572000  0.86847056  0.14200894  1
  O  O374  1  0.12220139  0.87004660  0.63684832  1
  O  O375  1  0.62421218  0.38062991  0.13150180  1
  O  O376  1  0.61761670  0.38681732  0.62325849  1
  O  O377  1  0.63744559  0.86710037  0.12936356  1
  O  O378  1  0.63170342  0.87808276  0.62978279  1
  O  O379  1  0.11373372  0.25944392  0.24596759  1
  O  O380  1  0.11501784  0.26119271  0.75247910  1
  O  O381  1  0.12615958  0.75742481  0.26281118  1
  O  O382  1  0.11834698  0.75843347  0.75235137  1
  O  O383  1  0.63293225  0.25621174  0.26330285  1
  O  O384  1  0.61438153  0.25071426  0.75253325  1
  O  O385  1  0.63088555  0.75919052  0.25970131  1
  O  O386  1  0.62159720  0.75044137  0.75420306  1
  O  O387  1  0.37518852  0.23352540  0.24630383  1
  O  O388  1  0.37932016  0.25119119  0.74172014  1
  O  O389  1  0.37128535  0.74949475  0.23675031  1
  O  O390  1  0.37985845  0.74424416  0.74015894  1
  O  O391  1  0.87909638  0.25088256  0.24066471  1
  O  O392  1  0.88040305  0.24663838  0.74136179  1
  O  O393  1  0.87057845  0.75061198  0.23350766  1
  O  O394  1  0.88388400  0.73868397  0.74589806  1
  O  O395  1  0.38248149  0.49262253  0.49031982  1
  O  O396  1  0.37403266  0.49416132  0.99237533  1
  O  O397  1  0.38833003  0.97108347  0.50167977  1
  O  O398  1  0.38523807  0.99295299  0.99037614  1
  O  O399  1  0.88694084  0.50269880  0.49674341  1
  O  O400  1  0.87603994  0.48776668  1.00954512  1
  O  O401  1  0.88266146  0.99346563  0.49460446  1
  O  O402  1  0.86953635  0.98679083  0.99192098  1
  O  O403  1  0.10874020  0.01535301  -0.01139132  1
  O  O404  1  0.11219799  0.01038219  0.49754327  1
  O  O405  1  0.12432359  0.51315398  0.00546274  1
  O  O406  1  0.11216724  0.51051903  0.49572914  1
  O  O407  1  0.61756353  0.00837670  -0.00514122  1
  O  O408  1  0.62888907  0.01279050  0.50160521  1
  O  O409  1  0.62475972  0.50448648  0.00795626  1
  O  O410  1  0.61623163  0.49752523  0.51009903  1
  O  O411  1  0.37354766  0.37536824  0.11719695  1
  O  O412  1  0.36885762  0.36803311  0.61854101  1
  O  O413  1  0.37880798  0.86950218  0.11758505  1
  O  O414  1  0.38516241  0.85515477  0.61039137  1
  O  O415  1  0.87516001  0.36815824  0.12080570  1
  O  O416  1  0.87886771  0.35976116  0.62771976  1
  O  O417  1  0.86633272  0.86875376  0.11741578  1
  O  O418  1  0.86959489  0.86908085  0.61902794  1
  O  O419  1  0.11295402  0.12813161  0.38981748  1
  O  O420  1  0.12194056  0.13216809  0.88502504  1
  O  O421  1  0.13218268  0.63008724  0.38125787  1
  O  O422  1  0.12897603  0.62845109  0.88969467  1
  O  O423  1  0.62666891  0.13040094  0.38017913  1
  O  O424  1  0.63100391  0.12593291  0.88600498  1
  O  O425  1  0.61840999  0.63575346  0.36713658  1
  O  O426  1  0.62974091  0.62875868  0.87551954  1
