# generated using pymatgen
data_V85Zn86O256
_symmetry_space_group_name_H-M   'P 1'
_cell_length_a   16.95292653
_cell_length_b   16.94225654
_cell_length_c   16.94153517
_cell_angle_alpha   90.03875278
_cell_angle_beta   89.96528071
_cell_angle_gamma   90.02234744
_symmetry_Int_Tables_number   1
_chemical_formula_structural   V85Zn86O256
_chemical_formula_sum   'V85 Zn86 O256'
_cell_volume   4865.95942389
_cell_formula_units_Z   1
loop_
 _symmetry_equiv_pos_site_id
 _symmetry_equiv_pos_as_xyz
  1  'x, y, z'
loop_
 _atom_site_type_symbol
 _atom_site_label
 _atom_site_symmetry_multiplicity
 _atom_site_fract_x
 _atom_site_fract_y
 _atom_site_fract_z
 _atom_site_occupancy
  V  V0  1  0.25231169  -0.00059089  0.25017925  1
  V  V1  1  0.87519704  0.49801679  0.37247604  1
  V  V2  1  0.76920493  0.12383032  0.87029976  1
  V  V3  1  0.49887037  0.24684320  0.74801365  1
  V  V4  1  0.11110318  0.86689197  0.76176001  1
  V  V5  1  0.62217431  0.62280808  -0.01480659  1
  V  V6  1  0.37929104  0.12696864  0.25157064  1
  V  V7  1  0.62541739  0.12113554  0.49114968  1
  V  V8  1  0.39149931  0.87728963  0.49893693  1
  V  V9  1  0.51016574  0.38242227  0.38454941  1
  V  V10  1  0.87284576  0.87544104  0.49987184  1
  V  V11  1  0.24972865  0.88071648  0.12100324  1
  V  V12  1  0.23974178  0.36922598  0.62616485  1
  V  V13  1  0.87139103  0.50195691  0.87481580  1
  V  V14  1  0.38326830  -0.00146950  0.87355328  1
  V  V15  1  0.00875329  0.62275649  0.12178917  1
  V  V16  1  0.38199337  0.87826879  -0.00372929  1
  V  V17  1  0.62689646  0.24149353  0.87223239  1
  V  V18  1  0.12118702  0.12332383  0.49673715  1
  V  V19  1  0.74057363  0.38350641  0.12359212  1
  V  V20  1  0.74639629  0.50306515  0.74853487  1
  V  V21  1  0.24909429  0.75555293  0.50157206  1
  V  V22  1  0.00791829  0.50067926  -0.00304255  1
  V  V23  1  0.36323528  0.37025172  0.00364586  1
  V  V24  1  0.12204163  -0.00235765  0.62677860  1
  V  V25  1  0.50957122  0.00059322  0.00118300  1
  V  V26  1  0.74308070  0.87488953  0.63484897  1
  V  V27  1  0.76198198  0.00619410  0.74985670  1
  V  V28  1  0.86820547  0.13056915  0.25182123  1
  V  V29  1  0.37221657  0.25056603  0.62283150  1
  V  V30  1  0.25391039  0.12297590  0.37647612  1
  V  V31  1  0.61747022  0.75948411  0.37504988  1
  V  V32  1  0.87632283  0.75157749  0.63081741  1
  V  V33  1  0.12647839  0.25389112  0.86809922  1
  V  V34  1  0.24999207  0.12920987  0.88993732  1
  V  V35  1  0.37399883  0.62284897  0.74818759  1
  V  V36  1  0.50841598  0.62366216  0.12736921  1
  V  V37  1  0.86370804  0.00507894  0.37400911  1
  V  V38  1  0.87927554  0.24574106  0.63716715  1
  V  V39  1  0.87982434  0.24828688  0.12146854  1
  V  V40  1  0.51057308  0.26237181  0.24989354  1
  V  V41  1  0.12227766  0.49715553  0.62794757  1
  V  V42  1  0.00215669  0.24921397  0.24450705  1
  V  V43  1  0.13431489  0.49420060  0.12173270  1
  V  V44  1  0.62469825  0.76523404  0.87155189  1
  V  V45  1  0.12449155  0.62642722  0.50107793  1
  V  V46  1  0.37403771  0.49437850  0.87319965  1
  V  V47  1  -0.00070158  0.62924167  0.63019468  1
  V  V48  1  0.74334985  0.87052960  0.11467521  1
  V  V49  1  0.73818601  0.50041971  0.24066343  1
  V  V50  1  -0.00077185  0.50082429  0.49903717  1
  V  V51  1  0.12363659  0.75060261  0.37236027  1
  V  V52  1  0.87697840  0.37807495  0.00020406  1
  V  V53  1  -0.06640040  0.93517164  0.94553990  1
  V  V54  1  0.36842448  0.25478358  0.12489946  1
  V  V55  1  0.50208220  0.49446909  0.00663979  1
  V  V56  1  0.87673174  0.62473522  0.24971674  1
  V  V57  1  -0.00437169  0.87492291  0.37339623  1
  V  V58  1  0.12550246  0.24911814  0.37464663  1
  V  V59  1  0.75115139  0.25099441  -0.00170841  1
  V  V60  1  0.13642820  0.37211431  0.24639916  1
  V  V61  1  0.74738436  0.74874409  0.50068177  1
  V  V62  1  0.61586751  0.00061639  0.62962524  1
  V  V63  1  0.36956774  0.12634803  0.74955183  1
  V  V64  1  0.24478014  0.49575227  0.74882741  1
  V  V65  1  -0.00097865  0.74957045  0.24598819  1
  V  V66  1  0.49592324  0.75928879  0.75989918  1
  V  V67  1  0.00360452  0.37219674  0.85988361  1
  V  V68  1  0.38965041  -0.00322433  0.37951134  1
  V  V69  1  0.37954462  0.75469706  0.12626295  1
  V  V70  1  0.50421460  0.61889146  0.62427252  1
  V  V71  1  0.74339299  0.00142150  0.23921957  1
  V  V72  1  0.11079048  0.12969046  0.01136443  1
  V  V73  1  0.51065330  0.12548520  0.12491805  1
  V  V74  1  0.74871323  0.62639692  0.37397877  1
  V  V75  1  0.37568849  0.62557637  0.24909560  1
  V  V76  1  0.49930586  0.37110726  0.87620342  1
  V  V77  1  0.25047282  0.62308744  0.37195713  1
  V  V78  1  0.24927197  -0.00490129  0.75219269  1
  V  V79  1  0.86981074  0.62818856  0.75295575  1
  V  V80  1  -0.00202411  0.00250232  0.49568340  1
  V  V81  1  0.12411119  0.87945207  0.24463915  1
  V  V82  1  0.25071533  0.24894598  0.50052295  1
  V  V83  1  0.87323434  0.36957929  0.49834979  1
  V  V84  1  0.62592364  0.37333041  0.74786015  1
  Zn  Zn85  1  0.37589002  0.75098026  0.62605195  1
  Zn  Zn86  1  0.00391588  0.37585305  0.37325649  1
  Zn  Zn87  1  0.23792514  0.62223801  0.88143216  1
  Zn  Zn88  1  0.74958549  0.37096193  0.62212096  1
  Zn  Zn89  1  0.25154839  0.74207768  -0.00242484  1
  Zn  Zn90  1  0.37844998  0.38267572  0.50039505  1
  Zn  Zn91  1  0.49552679  0.12093191  0.61903434  1
  Zn  Zn92  1  0.11869035  0.74093163  0.89795466  1
  Zn  Zn93  1  0.49843999  0.76011779  0.25602761  1
  Zn  Zn94  1  0.63122191  0.12043248  0.00052682  1
  Zn  Zn95  1  0.87289733  0.75364515  0.11697726  1
  Zn  Zn96  1  0.07166929  -0.02544709  0.08142595  1
  Zn  Zn97  1  0.61687852  0.88458513  0.24915406  1
  Zn  Zn98  1  -0.01516097  0.12058272  0.65063739  1
  Zn  Zn99  1  0.62021615  0.49127912  0.61382887  1
  Zn  Zn100  1  0.24845352  0.87172591  0.62656330  1
  Zn  Zn101  1  0.38301722  0.50159441  0.37927157  1
  Zn  Zn102  1  0.63792133  0.25013850  0.37157303  1
  Zn  Zn103  1  0.75356511  0.74755288  -0.01134296  1
  Zn  Zn104  1  0.75650493  0.23827845  0.49255654  1
  Zn  Zn105  1  0.25401077  0.49663210  0.24651798  1
  Zn  Zn106  1  0.61523424  0.61893053  0.49428545  1
  Zn  Zn107  1  0.19039721  0.18500767  0.18706848  1
  Zn  Zn108  1  0.15260118  0.16422972  0.70921741  1
  Zn  Zn109  1  0.18701286  0.69317154  0.17560714  1
  Zn  Zn110  1  0.18825285  0.68719078  0.69187734  1
  Zn  Zn111  1  0.69140309  0.19156244  0.18533567  1
  Zn  Zn112  1  0.69315487  0.18516893  0.67962115  1
  Zn  Zn113  1  0.68496450  0.68941318  0.18824427  1
  Zn  Zn114  1  0.68337795  0.68861496  0.69364365  1
  Zn  Zn115  1  0.31985544  0.31313484  0.31531332  1
  Zn  Zn116  1  0.30586458  0.31066562  0.81233065  1
  Zn  Zn117  1  0.31549663  0.81328845  0.31484281  1
  Zn  Zn118  1  0.30782962  0.81052600  0.81847859  1
  Zn  Zn119  1  0.80854978  0.31722439  0.31041188  1
  Zn  Zn120  1  0.81249894  0.31536621  0.81279657  1
  Zn  Zn121  1  0.80771831  0.81591033  0.30819467  1
  Zn  Zn122  1  0.81411348  0.81724552  0.81611307  1
  Zn  Zn123  1  0.19074919  0.43759073  0.43825156  1
  Zn  Zn124  1  0.18783935  0.43685532  0.93554638  1
  Zn  Zn125  1  0.18794204  0.93867696  0.43210073  1
  Zn  Zn126  1  0.18984413  0.94049130  0.93716142  1
  Zn  Zn127  1  0.68835241  0.43737167  0.43450254  1
  Zn  Zn128  1  0.68706395  0.43785527  0.93547826  1
  Zn  Zn129  1  0.68575701  0.94031284  0.44341180  1
  Zn  Zn130  1  0.69301771  0.93822690  0.93189484  1
  Zn  Zn131  1  0.32034889  0.06408833  0.06529668  1
  Zn  Zn132  1  0.31035386  0.05939943  0.56317416  1
  Zn  Zn133  1  0.31727610  0.56092669  0.06285329  1
  Zn  Zn134  1  0.31399339  0.56204975  0.56204448  1
  Zn  Zn135  1  0.81451156  0.06534862  0.06238190  1
  Zn  Zn136  1  0.80946365  0.06345633  0.56465496  1
  Zn  Zn137  1  0.81935934  0.58031231  0.05517681  1
  Zn  Zn138  1  0.80603785  0.55993385  0.56263112  1
  Zn  Zn139  1  0.43846756  0.43896230  0.18954900  1
  Zn  Zn140  1  0.43541614  0.43440781  0.68508767  1
  Zn  Zn141  1  0.44237654  0.93987965  0.18765483  1
  Zn  Zn142  1  0.43280061  0.93433496  0.68532072  1
  Zn  Zn143  1  0.94060330  0.43397551  0.18567967  1
  Zn  Zn144  1  0.93365882  0.43757718  0.68424190  1
  Zn  Zn145  1  0.92689146  0.93622166  0.17771357  1
  Zn  Zn146  1  0.93902472  0.93621876  0.68776386  1
  Zn  Zn147  1  0.04363371  0.04654896  0.27661362  1
  Zn  Zn148  1  0.05951473  0.05511946  0.82578745  1
  Zn  Zn149  1  0.06644502  0.55969805  0.31026195  1
  Zn  Zn150  1  0.06022900  0.56499696  0.81131806  1
  Zn  Zn151  1  0.56155150  0.06619476  0.31116078  1
  Zn  Zn152  1  0.56353304  0.06057492  0.80564690  1
  Zn  Zn153  1  0.56438647  0.56650385  0.31273575  1
  Zn  Zn154  1  0.55627916  0.56000676  0.81008439  1
  Zn  Zn155  1  0.44491491  0.18893567  0.43796955  1
  Zn  Zn156  1  0.43747894  0.18541343  0.93942873  1
  Zn  Zn157  1  0.43453363  0.68735173  0.44103959  1
  Zn  Zn158  1  0.41685355  0.67615489  0.94435189  1
  Zn  Zn159  1  0.93819109  0.18796664  0.43300701  1
  Zn  Zn160  1  0.94429913  0.18932127  0.93624977  1
  Zn  Zn161  1  0.93585416  0.68794143  0.43950324  1
  Zn  Zn162  1  0.93437374  0.68933440  0.93820939  1
  Zn  Zn163  1  0.06721003  0.31235765  0.05775759  1
  Zn  Zn164  1  0.05673396  0.30925681  0.56404993  1
  Zn  Zn165  1  0.04365160  0.79755786  0.03047467  1
  Zn  Zn166  1  0.06125675  0.81424363  0.56424184  1
  Zn  Zn167  1  0.56320639  0.30971255  0.06127945  1
  Zn  Zn168  1  0.56474993  0.30375427  0.56077835  1
  Zn  Zn169  1  0.56438743  0.81249204  0.06256968  1
  Zn  Zn170  1  0.56405659  0.80607994  0.57032561  1
  O  O171  1  0.12839850  0.12999517  0.11144705  1
  O  O172  1  0.13399235  0.10977254  0.60701074  1
  O  O173  1  0.11339422  0.61325183  0.13649577  1
  O  O174  1  0.11590791  0.62161185  0.62101664  1
  O  O175  1  0.61488411  0.13161588  0.12086231  1
  O  O176  1  0.62140624  0.11313896  0.62115375  1
  O  O177  1  0.61080622  0.63479161  0.11396618  1
  O  O178  1  0.61122865  0.62480427  0.62742381  1
  O  O179  1  0.39227528  0.37677135  0.37570770  1
  O  O180  1  0.37904054  0.37453581  0.88221556  1
  O  O181  1  0.37168000  0.88185308  0.39015567  1
  O  O182  1  0.37220878  0.88639933  0.88458572  1
  O  O183  1  0.88065365  0.38459326  0.37935242  1
  O  O184  1  0.88365389  0.38160985  0.87973997  1
  O  O185  1  0.87724811  0.87973969  0.38008898  1
  O  O186  1  0.87455257  0.86668499  0.89674315  1
  O  O187  1  0.26178197  0.00663219  0.37167181  1
  O  O188  1  0.26169668  0.00775851  0.86970428  1
  O  O189  1  0.24450924  0.51593844  0.37042871  1
  O  O190  1  0.25568080  0.49904038  0.86509843  1
  O  O191  1  0.76005049  -0.00771475  0.36667473  1
  O  O192  1  0.74616765  0.00849498  0.85864895  1
  O  O193  1  0.75924346  0.50641380  0.36319523  1
  O  O194  1  0.76347750  0.49375632  0.86501561  1
  O  O195  1  0.23863490  0.50714566  0.12583358  1
  O  O196  1  0.24206226  0.49184024  0.62943152  1
  O  O197  1  0.26378537  0.99339606  0.13796628  1
  O  O198  1  0.24172365  0.99697893  0.63427257  1
  O  O199  1  0.76217028  0.49567350  0.13017961  1
  O  O200  1  0.75059913  0.49352867  0.63895518  1
  O  O201  1  0.75244826  0.99253730  0.13329124  1
  O  O202  1  0.74325248  0.99366842  0.63350499  1
  O  O203  1  0.00998165  0.36436880  0.25169976  1
  O  O204  1  -0.00086181  0.38343344  0.76120548  1
  O  O205  1  -0.00082207  0.85954006  0.25352177  1
  O  O206  1  0.01215457  0.87527611  0.74891762  1
  O  O207  1  0.50096267  0.36537762  0.25491691  1
  O  O208  1  0.50579657  0.36782126  0.75550132  1
  O  O209  1  0.50437291  0.87389950  0.25001413  1
  O  O210  1  0.49038233  0.85798095  0.74944273  1
  O  O211  1  0.49634026  0.13478597  0.24328452  1
  O  O212  1  0.48886991  0.13120005  0.74600004  1
  O  O213  1  0.49352831  0.62885201  0.24326701  1
  O  O214  1  0.49300123  0.62997063  0.74032208  1
  O  O215  1  0.98570544  0.14288290  0.25341980  1
  O  O216  1  1.04726188  0.12521042  0.74155320  1
  O  O217  1  0.99774494  0.63437803  0.24913095  1
  O  O218  1  0.98844552  0.61929784  0.73518545  1
  O  O219  1  0.38406347  0.25624986  0.01567208  1
  O  O220  1  0.36893031  0.25043607  0.50801271  1
  O  O221  1  0.38075878  0.76513065  0.01008768  1
  O  O222  1  0.36646922  0.76177770  0.49934138  1
  O  O223  1  0.87210356  0.25607324  0.00488145  1
  O  O224  1  0.87770797  0.25817176  0.50203104  1
  O  O225  1  0.85246800  0.69681168  0.01693992  1
  O  O226  1  0.86752101  0.75476876  0.51000258  1
  O  O227  1  0.12906746  0.24113005  0.49658518  1
  O  O228  1  0.12495583  0.23811908  0.99224045  1
  O  O229  1  0.12892473  0.74511631  0.49461840  1
  O  O230  1  0.14183828  0.74634186  1.02215392  1
  O  O231  1  0.63144396  0.23510939  0.50006451  1
  O  O232  1  0.63254019  0.24882628  0.98784029  1
  O  O233  1  0.63226932  0.74620378  0.49293986  1
  O  O234  1  0.61866746  0.73940347  0.98475071  1
  O  O235  1  0.49724399  0.24733959  0.13559967  1
  O  O236  1  0.48777158  0.24991404  0.63131573  1
  O  O237  1  0.49118117  0.74395968  0.12667127  1
  O  O238  1  0.49791855  0.74043200  0.63975189  1
  O  O239  1  0.99118331  0.25838732  0.13151878  1
  O  O240  1  0.98500242  0.24389745  0.62228066  1
  O  O241  1  0.99386065  0.73839637  0.13002717  1
  O  O242  1  0.98758941  0.74196503  0.61854449  1
  O  O243  1  0.01042990  0.25248980  0.36648261  1
  O  O244  1  0.01377361  0.25920765  0.87611866  1
  O  O245  1  0.00380665  0.75318951  0.36780554  1
  O  O246  1  0.00917970  0.76648845  0.92120772  1
  O  O247  1  0.50366522  0.25882672  0.36167314  1
  O  O248  1  0.50756878  0.25161756  0.86926186  1
  O  O249  1  0.51512124  0.74410656  0.37853065  1
  O  O250  1  0.50206666  0.74292549  0.86384618  1
  O  O251  1  0.24599516  0.12997342  0.49413297  1
  O  O252  1  0.25496449  0.12321327  0.99122708  1
  O  O253  1  0.24510637  0.63691023  0.49291462  1
  O  O254  1  0.29957332  0.63363575  0.98135130  1
  O  O255  1  0.73274581  0.12155723  0.50495242  1
  O  O256  1  0.74947590  0.13192886  0.98937154  1
  O  O257  1  0.75591148  0.63963188  0.49517930  1
  O  O258  1  0.72123088  0.61511644  1.00067554  1
  O  O259  1  0.26436002  0.37825473  -0.00071182  1
  O  O260  1  0.24920372  0.36449706  0.50754702  1
  O  O261  1  0.26492769  0.88319661  0.00892420  1
  O  O262  1  0.24669361  0.86245358  0.49801713  1
  O  O263  1  0.75830298  0.37192032  0.00132369  1
  O  O264  1  0.76618950  0.37815408  0.50036857  1
  O  O265  1  0.74225642  0.86996495  0.01059734  1
  O  O266  1  0.75470015  0.86573311  0.50958255  1
  O  O267  1  0.12673742  0.48807676  0.24202990  1
  O  O268  1  0.13216502  0.50294814  0.73883623  1
  O  O269  1  0.14613803  0.99310677  0.26594305  1
  O  O270  1  0.13288830  0.98714135  0.74353407  1
  O  O271  1  0.63932132  0.50988363  0.24580423  1
  O  O272  1  0.63139864  0.49081988  0.75171017  1
  O  O273  1  0.64118242  1.00591965  0.25545980  1
  O  O274  1  0.63474174  1.00174077  0.73531105  1
  O  O275  1  0.36918657  0.00544745  0.26009046  1
  O  O276  1  0.36939995  0.00463806  0.75513734  1
  O  O277  1  0.37265203  0.51248374  0.25291897  1
  O  O278  1  0.36627517  0.50247328  0.75075705  1
  O  O279  1  0.86243084  0.01030444  0.25483345  1
  O  O280  1  0.86140319  0.00235854  0.74015170  1
  O  O281  1  0.87887505  0.50471704  0.26163894  1
  O  O282  1  0.86737591  0.50685752  0.75421735  1
  O  O283  1  0.12575030  0.36746468  0.36788169  1
  O  O284  1  0.11747836  0.36258597  0.88422638  1
  O  O285  1  0.11662484  0.86909471  0.36710954  1
  O  O286  1  0.13018355  0.87519848  0.86310949  1
  O  O287  1  0.61440270  0.37051970  0.37537617  1
  O  O288  1  0.62206209  0.36318493  0.86459831  1
  O  O289  1  0.63135308  0.86162250  0.37791674  1
  O  O290  1  0.61851152  0.86360431  0.87860042  1
  O  O291  1  0.38651530  0.13764639  0.13081135  1
  O  O292  1  0.37146667  0.13456556  0.62970958  1
  O  O293  1  0.38382763  0.63377102  0.13329884  1
  O  O294  1  0.38239666  0.62600555  0.63408409  1
  O  O295  1  0.87009246  0.14093526  0.13156053  1
  O  O296  1  0.87506288  0.13872176  0.62215357  1
  O  O297  1  0.89259906  0.61121942  0.14399918  1
  O  O298  1  0.87866821  0.63182377  0.63124111  1
  O  O299  1  0.27002334  0.24797119  0.13211788  1
  O  O300  1  0.25410800  0.25692794  0.62154124  1
  O  O301  1  0.26693071  0.76144828  0.12761483  1
  O  O302  1  0.25290572  0.74969088  0.61538130  1
  O  O303  1  0.75789903  0.26033424  0.11751821  1
  O  O304  1  0.76398700  0.25261119  0.61793532  1
  O  O305  1  0.74739634  0.76060359  0.12362758  1
  O  O306  1  0.75144643  0.75634994  0.62122852  1
  O  O307  1  0.24650862  0.24298478  0.37938734  1
  O  O308  1  0.24132199  0.24180530  0.87794378  1
  O  O309  1  0.24359357  0.74161548  0.37917340  1
  O  O310  1  0.24218730  0.74365356  0.87840855  1
  O  O311  1  0.75115554  0.25294778  0.37779068  1
  O  O312  1  0.74470812  0.24361610  0.87679878  1
  O  O313  1  0.74523648  0.74673810  0.38304329  1
  O  O314  1  0.73022662  0.75376950  0.87177536  1
  O  O315  1  0.01068752  0.12557674  0.00408005  1
  O  O316  1  0.00926977  0.11733488  0.49515195  1
  O  O317  1  -0.00294738  0.60798451  0.01121697  1
  O  O318  1  0.00307756  0.62050654  0.50903884  1
  O  O319  1  0.50347722  0.11957704  0.00783058  1
  O  O320  1  0.51521007  0.12867348  0.50491681  1
  O  O321  1  0.50187308  0.61486522  0.00650452  1
  O  O322  1  0.49766468  0.63263462  0.51972439  1
  O  O323  1  0.50094370  0.36877979  0.48727546  1
  O  O324  1  0.49651614  0.37879850  0.99488259  1
  O  O325  1  0.48919240  0.86814516  0.50405907  1
  O  O326  1  0.49039619  0.88636652  1.00898084  1
  O  O327  1  0.99041024  0.38345638  0.49799063  1
  O  O328  1  0.99404845  0.38604728  0.99518862  1
  O  O329  1  0.99247270  0.88158525  0.49395436  1
  O  O330  1  0.99480530  0.90105426  1.02799239  1
  O  O331  1  0.50419127  0.48564412  0.36890926  1
  O  O332  1  0.49285626  0.48836731  0.87958913  1
  O  O333  1  0.48864521  1.00355147  0.37340718  1
  O  O334  1  0.48874672  1.00937011  0.87966897  1
  O  O335  1  0.99383719  0.50171862  0.38157311  1
  O  O336  1  0.99277813  0.49345403  0.88046135  1
  O  O337  1  0.98697844  0.99226133  0.37300933  1
  O  O338  1  0.99245302  0.98695898  0.88101887  1
  O  O339  1  0.01576798  -0.00043100  0.17395407  1
  O  O340  1  0.00600958  0.00337683  0.61664468  1
  O  O341  1  0.01098685  0.50181386  0.11817853  1
  O  O342  1  0.00320298  0.50692171  0.61815015  1
  O  O343  1  0.49339630  0.01455164  0.11440246  1
  O  O344  1  0.51244389  -0.00151744  0.63206133  1
  O  O345  1  0.49619881  0.50841637  0.11710409  1
  O  O346  1  0.50193067  0.51361827  0.63286155  1
  O  O347  1  0.24038402  0.37450324  0.25528440  1
  O  O348  1  0.25393559  0.38703378  0.74009235  1
  O  O349  1  0.24912361  0.88167546  0.24494567  1
  O  O350  1  0.25116598  0.88639529  0.74873373  1
  O  O351  1  0.75734467  0.38924111  0.23595808  1
  O  O352  1  0.74049775  0.38156191  0.74916081  1
  O  O353  1  0.74370670  0.88805007  0.24271291  1
  O  O354  1  0.75402808  0.88531234  0.74091718  1
  O  O355  1  0.25858974  0.11858455  0.25591371  1
  O  O356  1  0.25039227  0.11180961  0.75956194  1
  O  O357  1  0.25766480  0.62862031  0.25559960  1
  O  O358  1  0.25856063  0.61203749  0.74666388  1
  O  O359  1  0.75948076  0.11710378  0.24253734  1
  O  O360  1  0.74823502  0.11412511  0.75498766  1
  O  O361  1  0.76044554  0.62089619  0.25119600  1
  O  O362  1  0.75734456  0.61631762  0.74603632  1
  O  O363  1  0.37335728  0.12030017  0.37139461  1
  O  O364  1  0.36786216  0.12212244  0.86897296  1
  O  O365  1  0.36789390  0.62695548  0.36722522  1
  O  O366  1  0.38648214  0.60916145  0.85495533  1
  O  O367  1  0.87604169  0.11658783  0.36477262  1
  O  O368  1  0.86779825  0.13509874  0.87070447  1
  O  O369  1  0.87101787  0.61985800  0.36693087  1
  O  O370  1  0.88307665  0.61689702  0.85954495  1
  O  O371  1  0.12406698  0.38181541  0.13307489  1
  O  O372  1  0.13311373  0.37878762  0.61929178  1
  O  O373  1  0.14277854  0.88377195  0.13029176  1
  O  O374  1  0.12559970  0.88631094  0.62828872  1
  O  O375  1  0.64126275  0.37492270  0.11519076  1
  O  O376  1  0.62412364  0.37272104  0.63630760  1
  O  O377  1  0.63751456  0.87269087  0.12954631  1
  O  O378  1  0.63334554  0.88607200  0.61849310  1
  O  O379  1  0.12028138  0.25312587  0.25208454  1
  O  O380  1  0.13799143  0.26103004  0.76889737  1
  O  O381  1  0.11768715  0.75780366  0.25037571  1
  O  O382  1  0.12782828  0.76763316  0.74458901  1
  O  O383  1  0.61313517  0.24637638  0.25003143  1
  O  O384  1  0.62219145  0.25409797  0.75296986  1
  O  O385  1  0.62555900  0.75090039  0.26702305  1
  O  O386  1  0.61080790  0.74696900  0.76323482  1
  O  O387  1  0.38697651  0.24779289  0.24184219  1
  O  O388  1  0.37565300  0.24527943  0.74260608  1
  O  O389  1  0.37783063  0.74226574  0.24580873  1
  O  O390  1  0.38089204  0.74080694  0.75134549  1
  O  O391  1  0.88050590  0.24753436  0.24264026  1
  O  O392  1  0.87385924  0.25595734  0.73612276  1
  O  O393  1  0.88113067  0.74027946  0.24911367  1
  O  O394  1  0.86682210  0.74371793  0.73969794  1
  O  O395  1  0.36598200  0.49576713  0.49169519  1
  O  O396  1  0.38657052  0.48728640  0.99631072  1
  O  O397  1  0.37186847  0.98578352  0.49539457  1
  O  O398  1  0.38588576  0.99813497  0.99158855  1
  O  O399  1  0.87776341  0.49764275  0.48897745  1
  O  O400  1  0.88063733  0.49930125  0.98954595  1
  O  O401  1  0.87713857  0.99695811  0.49228279  1
  O  O402  1  0.87212319  1.00142797  0.99069364  1
  O  O403  1  0.13193973  0.02058554  -0.00306619  1
  O  O404  1  0.11906110  0.00317343  0.50303183  1
  O  O405  1  0.11898171  0.49439470  0.00777569  1
  O  O406  1  0.12094499  0.50764441  0.50668047  1
  O  O407  1  0.61287636  0.00152504  -0.01017450  1
  O  O408  1  0.62738898  0.00890955  0.51368218  1
  O  O409  1  0.60935051  0.50663095  -0.01124690  1
  O  O410  1  0.64215245  0.50991440  0.50474413  1
  O  O411  1  0.38148219  0.36322924  0.11983758  1
  O  O412  1  0.36526813  0.36388854  0.62336928  1
  O  O413  1  0.37049316  0.87070944  0.12085882  1
  O  O414  1  0.36915632  0.87329568  0.61057734  1
  O  O415  1  0.87120178  0.36751298  0.11724146  1
  O  O416  1  0.87590687  0.36527289  0.61563955  1
  O  O417  1  0.85285849  0.86830241  0.13095475  1
  O  O418  1  0.86819736  0.86761418  0.62061698  1
  O  O419  1  0.13397593  0.12883422  0.38539136  1
  O  O420  1  0.13296487  0.13536035  0.88496817  1
  O  O421  1  0.13037653  0.63170593  0.37918873  1
  O  O422  1  0.12519982  0.62820720  0.87149120  1
  O  O423  1  0.62234787  0.12492434  0.38787553  1
  O  O424  1  0.62938761  0.13527692  0.87137775  1
  O  O425  1  0.63373368  0.63549661  0.37641622  1
  O  O426  1  0.61475191  0.62974362  0.88289006  1
