# generated using pymatgen
data_V85Zn86O256
_symmetry_space_group_name_H-M   'P 1'
_cell_length_a   16.94611245
_cell_length_b   16.93829655
_cell_length_c   16.94042492
_cell_angle_alpha   89.96899726
_cell_angle_beta   90.03376031
_cell_angle_gamma   89.91886632
_symmetry_Int_Tables_number   1
_chemical_formula_structural   V85Zn86O256
_chemical_formula_sum   'V85 Zn86 O256'
_cell_volume   4862.54396319
_cell_formula_units_Z   1
loop_
 _symmetry_equiv_pos_site_id
 _symmetry_equiv_pos_as_xyz
  1  'x, y, z'
loop_
 _atom_site_type_symbol
 _atom_site_label
 _atom_site_symmetry_multiplicity
 _atom_site_fract_x
 _atom_site_fract_y
 _atom_site_fract_z
 _atom_site_occupancy
  V  V0  1  0.63359116  0.00084871  0.13198729  1
  V  V1  1  0.12555942  0.87753244  0.75412016  1
  V  V2  1  0.12407513  0.12530223  0.49980526  1
  V  V3  1  -0.00003505  0.24127822  0.74898329  1
  V  V4  1  0.75122047  0.24993708  0.49287264  1
  V  V5  1  0.11925969  0.37768406  0.24639081  1
  V  V6  1  0.13023817  0.37434559  0.74642241  1
  V  V7  1  0.50924336  0.74549464  0.75594479  1
  V  V8  1  0.37568768  -0.00231439  0.88110443  1
  V  V9  1  0.63033709  0.87449617  0.75183535  1
  V  V10  1  0.12645673  0.25051196  0.87655501  1
  V  V11  1  0.49869778  0.74772342  0.23433077  1
  V  V12  1  0.73983321  0.74996812  0.00155422  1
  V  V13  1  0.25685448  0.00029658  0.25577792  1
  V  V14  1  0.75059385  0.87876012  0.62495587  1
  V  V15  1  0.86977758  -0.00062106  0.36126745  1
  V  V16  1  0.50569041  0.24955404  0.75483289  1
  V  V17  1  0.24982848  -0.00071866  0.75320245  1
  V  V18  1  0.25038794  0.12502030  0.88000355  1
  V  V19  1  0.87681373  0.23405342  0.12586225  1
  V  V20  1  0.50396570  0.62558476  0.61903798  1
  V  V21  1  0.36593240  0.25529559  0.62827552  1
  V  V22  1  0.00231030  0.38065965  0.87982621  1
  V  V23  1  -0.00243296  0.23302215  0.24532160  1
  V  V24  1  0.86078405  0.00728226  0.87288293  1
  V  V25  1  0.49413666  0.00005117  0.49591404  1
  V  V26  1  0.62440338  0.12497995  0.49439670  1
  V  V27  1  -0.00172469  0.87782634  0.87788863  1
  V  V28  1  0.62838189  0.37389059  0.25017840  1
  V  V29  1  -0.00486349  0.37678462  0.37014360  1
  V  V30  1  0.62525945  0.51193380  0.12571559  1
  V  V31  1  0.37086734  0.49855969  0.87415341  1
  V  V32  1  0.14023035  0.62612777  -0.00485286  1
  V  V33  1  0.37226160  0.62494385  0.75132564  1
  V  V34  1  0.49860916  0.87234097  0.37388112  1
  V  V35  1  0.37555299  0.37109956  0.00605276  1
  V  V36  1  0.75157144  0.12062418  0.35764397  1
  V  V37  1  0.50674358  0.87288358  0.87770682  1
  V  V38  1  0.37232088  0.87596831  0.49532071  1
  V  V39  1  0.62672511  0.12983790  -0.00108055  1
  V  V40  1  0.62599093  0.25416038  0.37101237  1
  V  V41  1  0.50379865  0.49880089  0.49483848  1
  V  V42  1  0.37579775  0.75277588  0.62658819  1
  V  V43  1  0.75227331  0.50001935  0.75121403  1
  V  V44  1  0.63471858  0.87498506  0.25425407  1
  V  V45  1  0.50111977  0.50750205  0.00187323  1
  V  V46  1  0.24059114  0.63170165  0.37789514  1
  V  V47  1  0.12161957  0.12464407  0.00993923  1
  V  V48  1  0.25136482  0.86412304  0.12128612  1
  V  V49  1  0.75483732  0.37770767  0.12282721  1
  V  V50  1  -0.00960182  0.63095159  0.11286661  1
  V  V51  1  0.62638843  0.50203448  0.62080648  1
  V  V52  1  0.37547404  0.63082199  0.23742946  1
  V  V53  1  0.87551473  0.86748001  0.00777662  1
  V  V54  1  0.74455128  0.61927188  0.38298732  1
  V  V55  1  0.87690176  0.37799455  0.49642129  1
  V  V56  1  -0.00215558  0.74950314  0.75004669  1
  V  V57  1  0.88021813  0.24148034  0.62269359  1
  V  V58  1  0.00609711  0.87169927  0.37829385  1
  V  V59  1  0.49840975  -0.00020909  0.00849263  1
  V  V60  1  0.00291110  0.62289194  0.62059627  1
  V  V61  1  -0.00831276  0.00650341  0.50435953  1
  V  V62  1  0.45081121  0.32120433  0.31599994  1
  V  V63  1  0.11959142  0.50184187  0.11753121  1
  V  V64  1  0.13082214  0.74565215  0.87559447  1
  V  V65  1  0.37533254  0.12609483  0.75197667  1
  V  V66  1  0.62689935  0.00168315  0.62968252  1
  V  V67  1  0.87319422  0.74982538  0.62275659  1
  V  V68  1  0.25366863  0.24853490  0.01188444  1
  V  V69  1  0.00244142  0.50258965  0.49372682  1
  V  V70  1  0.87563526  0.62475635  0.25907674  1
  V  V71  1  0.87677407  0.50279128  0.88405919  1
  V  V72  1  0.24976670  0.87757774  0.62732939  1
  V  V73  1  0.37022891  0.37737481  0.50595155  1
  V  V74  1  0.13144272  0.49677781  0.61849328  1
  V  V75  1  0.11638650  0.00732929  0.62974364  1
  V  V76  1  0.50839818  0.37281345  0.87638460  1
  V  V77  1  0.49836358  0.12648615  0.62541392  1
  V  V78  1  -0.00183745  0.00468385  0.00831104  1
  V  V79  1  0.00455420  0.74845681  0.25366564  1
  V  V80  1  0.75024862  0.25097602  -0.00537501  1
  V  V81  1  0.49246609  0.14207685  0.13009477  1
  V  V82  1  0.25020300  0.50329641  0.74717084  1
  V  V83  1  0.75130664  0.37629422  0.62085814  1
  V  V84  1  0.37767119  0.50797376  0.37216966  1
  Zn  Zn85  1  0.62183259  0.74392083  0.38322660  1
  Zn  Zn86  1  0.73834332  0.74478197  0.50363657  1
  Zn  Zn87  1  0.38019560  0.12513725  0.25453097  1
  Zn  Zn88  1  0.75727124  0.87413181  0.13377766  1
  Zn  Zn89  1  0.25995397  0.12259456  0.37973690  1
  Zn  Zn90  1  0.37923142  0.85045563  0.01717521  1
  Zn  Zn91  1  0.23371225  0.75459242  0.48815666  1
  Zn  Zn92  1  0.62955549  0.36981137  0.75177484  1
  Zn  Zn93  1  0.25042766  0.37651601  0.12687035  1
  Zn  Zn94  1  0.87090834  0.87568577  0.49775486  1
  Zn  Zn95  1  0.12840132  0.87196013  0.25295605  1
  Zn  Zn96  1  0.12446190  -0.00151716  0.13087886  1
  Zn  Zn97  1  0.86023371  0.12264285  0.75100779  1
  Zn  Zn98  1  0.24746043  0.50421048  0.24790698  1
  Zn  Zn99  1  0.62063054  0.63040624  -0.00660397  1
  Zn  Zn100  1  0.74455746  0.63512765  0.87029475  1
  Zn  Zn101  1  0.75685403  0.50074589  0.25159013  1
  Zn  Zn102  1  0.24409291  0.25343786  0.50212509  1
  Zn  Zn103  1  0.69058854  0.18453822  0.83368990  1
  Zn  Zn104  1  0.88416025  0.37661026  0.00483766  1
  Zn  Zn105  1  0.12046928  0.24674694  0.37681056  1
  Zn  Zn106  1  0.87588718  0.62143759  0.75066885  1
  Zn  Zn107  1  0.18686095  0.18552326  0.19223633  1
  Zn  Zn108  1  0.18691202  0.18544944  0.68821240  1
  Zn  Zn109  1  0.18467336  0.68589811  0.18902189  1
  Zn  Zn110  1  0.17444257  0.70057293  0.65906046  1
  Zn  Zn111  1  0.68329364  0.19209457  0.18086908  1
  Zn  Zn112  1  0.68957857  0.18876539  0.67302050  1
  Zn  Zn113  1  0.69254858  0.69370356  0.18761521  1
  Zn  Zn114  1  0.68793611  0.68470754  0.68550703  1
  Zn  Zn115  1  0.28976412  0.31162111  0.31755119  1
  Zn  Zn116  1  0.31234753  0.31514590  0.81679457  1
  Zn  Zn117  1  0.31295250  0.81215447  0.30895671  1
  Zn  Zn118  1  0.33058376  0.79361207  0.84556679  1
  Zn  Zn119  1  0.81548940  0.31095617  0.30786818  1
  Zn  Zn120  1  0.81972670  0.31867993  0.80987292  1
  Zn  Zn121  1  0.81744514  0.80362820  0.31684494  1
  Zn  Zn122  1  0.81253405  0.81544131  0.81553676  1
  Zn  Zn123  1  0.18784455  0.43989324  0.43177504  1
  Zn  Zn124  1  0.18885969  0.43957112  0.93737672  1
  Zn  Zn125  1  0.18601422  0.94225140  0.43918120  1
  Zn  Zn126  1  0.18700119  0.93498681  0.94344751  1
  Zn  Zn127  1  0.68854687  0.44145687  0.43322525  1
  Zn  Zn128  1  0.68890455  0.44203799  0.93879671  1
  Zn  Zn129  1  0.68586832  0.93600291  0.43940006  1
  Zn  Zn130  1  0.68683353  0.93759478  0.94377449  1
  Zn  Zn131  1  0.31240751  0.05713116  0.07116676  1
  Zn  Zn132  1  0.31075808  0.06324008  0.56410144  1
  Zn  Zn133  1  0.30930282  0.55943668  0.06193815  1
  Zn  Zn134  1  0.31238001  0.56560372  0.56010640  1
  Zn  Zn135  1  0.80999782  0.06147401  0.05766161  1
  Zn  Zn136  1  0.80844943  0.06350885  0.55862716  1
  Zn  Zn137  1  0.81217882  0.56630831  0.06384176  1
  Zn  Zn138  1  0.81810412  0.56078056  0.56203377  1
  Zn  Zn139  1  0.43538620  0.44873505  0.18149972  1
  Zn  Zn140  1  0.44086915  0.43579342  0.68650049  1
  Zn  Zn141  1  0.43563976  0.93498717  0.18894323  1
  Zn  Zn142  1  0.43982648  0.93730295  0.68975250  1
  Zn  Zn143  1  0.93803094  0.44355564  0.18380753  1
  Zn  Zn144  1  0.93995874  0.43309581  0.68836696  1
  Zn  Zn145  1  0.94207145  0.93607320  0.18908523  1
  Zn  Zn146  1  0.93482293  0.93979740  0.69082972  1
  Zn  Zn147  1  0.06615319  0.05381622  0.31671896  1
  Zn  Zn148  1  0.05960742  0.06395913  0.82107416  1
  Zn  Zn149  1  0.06086390  0.56156987  0.31010328  1
  Zn  Zn150  1  0.06270837  0.56273250  0.81103374  1
  Zn  Zn151  1  0.55882084  0.06108635  0.31152292  1
  Zn  Zn152  1  0.56144575  0.05802669  0.81427723  1
  Zn  Zn153  1  0.56219258  0.56306563  0.30876009  1
  Zn  Zn154  1  0.56601856  0.56008628  0.81223281  1
  Zn  Zn155  1  0.43118270  0.18484902  0.44165385  1
  Zn  Zn156  1  0.43929307  0.18706487  0.94068367  1
  Zn  Zn157  1  0.43476938  0.68844333  0.43701361  1
  Zn  Zn158  1  0.43855498  0.68515685  0.93600087  1
  Zn  Zn159  1  0.93732801  0.18427064  0.43174331  1
  Zn  Zn160  1  0.93719290  0.18893981  0.93793985  1
  Zn  Zn161  1  0.93537158  0.68802078  0.43813027  1
  Zn  Zn162  1  0.93371111  0.68876226  0.93375242  1
  Zn  Zn163  1  0.06168021  0.30867484  0.06437379  1
  Zn  Zn164  1  0.06043278  0.31352820  0.56422740  1
  Zn  Zn165  1  0.06807370  0.80857805  0.06517135  1
  Zn  Zn166  1  0.06140044  0.81914322  0.56181108  1
  Zn  Zn167  1  0.56707354  0.31831909  0.06250899  1
  Zn  Zn168  1  0.55934481  0.31632569  0.55987889  1
  Zn  Zn169  1  0.56745844  0.81754411  0.06510789  1
  Zn  Zn170  1  0.56326704  0.81202633  0.56210455  1
  O  O171  1  0.12794064  0.12383559  0.11256490  1
  O  O172  1  0.12718149  0.11394727  0.62030545  1
  O  O173  1  0.11875307  0.62221797  0.11142028  1
  O  O174  1  0.10942033  0.60889351  0.63242293  1
  O  O175  1  0.61490635  0.11905484  0.11803943  1
  O  O176  1  0.61766834  0.11852128  0.61523747  1
  O  O177  1  0.63188154  0.61447985  0.12265828  1
  O  O178  1  0.62019259  0.61022957  0.62731910  1
  O  O179  1  0.38221384  0.37925535  0.37438458  1
  O  O180  1  0.38387339  0.38121297  0.88345489  1
  O  O181  1  0.37966352  0.87040473  0.38898527  1
  O  O182  1  0.39247213  0.89244687  0.86111199  1
  O  O183  1  0.88667357  0.37078996  0.38002789  1
  O  O184  1  0.88673724  0.38292548  0.87804421  1
  O  O185  1  0.87923824  0.88510866  0.37735365  1
  O  O186  1  0.88177249  0.88447359  0.88378895  1
  O  O187  1  0.24622934  0.00006953  0.36123407  1
  O  O188  1  0.25831470  0.00265153  0.87407904  1
  O  O189  1  0.26255239  0.50803636  0.37169347  1
  O  O190  1  0.26378684  0.49609962  0.86628462  1
  O  O191  1  0.76130938  0.00492851  0.37967992  1
  O  O192  1  0.76234143  -0.00250494  0.88006731  1
  O  O193  1  0.75186415  0.51350529  0.37009030  1
  O  O194  1  0.76026765  0.49491404  0.86516401  1
  O  O195  1  0.23440951  0.49823865  0.12612770  1
  O  O196  1  0.23877065  0.50298046  0.62765604  1
  O  O197  1  0.24596515  0.99222969  0.13780245  1
  O  O198  1  0.24292622  0.99587663  0.63356281  1
  O  O199  1  0.74451059  0.49381414  0.12620858  1
  O  O200  1  0.74598806  0.49577631  0.62792836  1
  O  O201  1  0.73678122  0.99831065  0.12130581  1
  O  O202  1  0.73835106  0.99305518  0.62101257  1
  O  O203  1  0.00430398  0.37480234  0.25458025  1
  O  O204  1  0.00939540  0.36654149  0.75936316  1
  O  O205  1  0.00070410  0.86630856  0.25927213  1
  O  O206  1  0.00407699  0.87065514  0.75916474  1
  O  O207  1  0.50560830  0.37964655  0.25077920  1
  O  O208  1  0.50225372  0.36632741  0.75790378  1
  O  O209  1  0.50393988  0.86612428  0.25739339  1
  O  O210  1  0.51121359  0.86799344  0.75520131  1
  O  O211  1  0.50129532  0.12436767  0.23405885  1
  O  O212  1  0.49569021  0.13142868  0.74732498  1
  O  O213  1  0.49455761  0.64074704  0.25234695  1
  O  O214  1  0.49682725  0.63004037  0.74174565  1
  O  O215  1  1.00590358  0.13544384  0.25493805  1
  O  O216  1  0.99845955  0.13904018  0.75726632  1
  O  O217  1  0.99241451  0.62975811  0.24646672  1
  O  O218  1  0.99746640  0.63375628  0.74269002  1
  O  O219  1  0.36578401  0.25860993  -0.00595485  1
  O  O220  1  0.37786519  0.25994420  0.51273072  1
  O  O221  1  0.36357227  0.76266989  -0.04770596  1
  O  O222  1  0.37237376  0.75906321  0.51219508  1
  O  O223  1  0.86964308  0.25305103  0.00824919  1
  O  O224  1  0.87505935  0.25770696  0.50357391  1
  O  O225  1  0.87440212  0.76553260  -0.00135027  1
  O  O226  1  0.87416289  0.75366647  0.51444395  1
  O  O227  1  0.12213907  0.23926887  0.50480317  1
  O  O228  1  0.13219587  0.24364268  0.99580259  1
  O  O229  1  0.14399109  0.74702227  0.55375262  1
  O  O230  1  0.12210547  0.73686543  0.98978291  1
  O  O231  1  0.62872642  0.24744929  0.49193065  1
  O  O232  1  0.63579833  0.24285839  1.00681756  1
  O  O233  1  0.62394630  0.74637097  0.49891542  1
  O  O234  1  0.63538448  0.75252510  0.99930522  1
  O  O235  1  0.50195535  0.24018615  0.12014740  1
  O  O236  1  0.49369158  0.24663876  0.63632492  1
  O  O237  1  0.49953584  0.75560219  0.13522798  1
  O  O238  1  0.49095068  0.74813813  0.63473569  1
  O  O239  1  0.99215564  0.25053433  0.13675117  1
  O  O240  1  0.99062759  0.25527001  0.63516938  1
  O  O241  1  1.00371554  0.73615758  0.13286945  1
  O  O242  1  0.99211804  0.74338569  0.63105757  1
  O  O243  1  0.00033288  0.25631769  0.36182365  1
  O  O244  1  0.00705148  0.25706841  0.86854379  1
  O  O245  1  -0.00685894  0.76030968  0.37044210  1
  O  O246  1  0.00203849  0.75995452  0.86749992  1
  O  O247  1  0.50470578  0.25789036  0.37719104  1
  O  O248  1  0.49330027  0.25664949  0.86377147  1
  O  O249  1  0.49999918  0.76198146  0.37328673  1
  O  O250  1  0.50551399  0.75896459  0.86435460  1
  O  O251  1  0.23844434  0.12500187  0.50158122  1
  O  O252  1  0.24682746  0.13015244  0.99821574  1
  O  O253  1  0.25788038  0.62923572  0.48224067  1
  O  O254  1  0.23884854  0.62475272  0.99681032  1
  O  O255  1  0.74118435  0.13213610  0.49078929  1
  O  O256  1  0.73948540  0.13610472  1.00269317  1
  O  O257  1  0.75832992  0.62243204  0.48628434  1
  O  O258  1  0.75171923  0.64182053  1.00101526  1
  O  O259  1  0.25737488  0.36628166  -0.00151200  1
  O  O260  1  0.26595633  0.37504958  0.49087498  1
  O  O261  1  0.25318323  0.87974093  0.01673765  1
  O  O262  1  0.25676397  0.87625860  0.50709072  1
  O  O263  1  0.75001324  0.37028936  0.01140237  1
  O  O264  1  0.76028820  0.37139849  0.49840818  1
  O  O265  1  0.76038007  0.86861123  0.00225423  1
  O  O266  1  0.74939170  0.87262448  0.51450736  1
  O  O267  1  0.12326747  0.49360605  0.23945731  1
  O  O268  1  0.13269345  0.49363855  0.74468480  1
  O  O269  1  0.13474320  0.99502232  0.24883458  1
  O  O270  1  0.12712533  1.00035064  0.74810464  1
  O  O271  1  0.62659480  0.49103643  0.24240904  1
  O  O272  1  0.63403260  0.49317646  0.73979320  1
  O  O273  1  0.61837335  0.98865542  0.24291133  1
  O  O274  1  0.61704075  0.99195359  0.73754529  1
  O  O275  1  0.36120182  0.00024015  0.24791060  1
  O  O276  1  0.37188304  0.00892661  0.75591138  1
  O  O277  1  0.37426916  0.50936964  0.25689920  1
  O  O278  1  0.37004256  0.50282213  0.75220866  1
  O  O279  1  0.87664208  -0.00230435  0.26263948  1
  O  O280  1  0.87900016  0.00268669  0.76803895  1
  O  O281  1  0.87631677  0.51903732  0.24546216  1
  O  O282  1  0.86757589  0.49744197  0.75479038  1
  O  O283  1  0.11284274  0.37432550  0.36590236  1
  O  O284  1  0.12162219  0.37224170  0.86592793  1
  O  O285  1  0.10986487  0.87911980  0.37852293  1
  O  O286  1  0.11619554  0.86938802  0.87389577  1
  O  O287  1  0.63178568  0.36844504  0.36387862  1
  O  O288  1  0.61165433  0.37971229  0.87522513  1
  O  O289  1  0.61694537  0.87341648  0.36930229  1
  O  O290  1  0.61472576  0.88595432  0.86751988  1
  O  O291  1  0.38877855  0.12585776  0.12870429  1
  O  O292  1  0.38089813  0.13332067  0.63097864  1
  O  O293  1  0.37070285  0.61830469  0.13787807  1
  O  O294  1  0.38064253  0.63209111  0.63342352  1
  O  O295  1  0.87071756  0.13468803  0.12186052  1
  O  O296  1  0.86797966  0.13836366  0.62493299  1
  O  O297  1  0.88742587  0.62409368  0.13180250  1
  O  O298  1  0.88467309  0.63159275  0.62791957  1
  O  O299  1  0.24546015  0.25354350  0.11490109  1
  O  O300  1  0.26253795  0.24768312  0.62561893  1
  O  O301  1  0.24652778  0.76460508  0.13255011  1
  O  O302  1  0.27114580  0.76228087  0.64607546  1
  O  O303  1  0.75882535  0.25793476  0.11824583  1
  O  O304  1  0.75688398  0.25954717  0.61120661  1
  O  O305  1  0.75013433  0.75717653  0.10948743  1
  O  O306  1  0.75797220  0.75608672  0.62574992  1
  O  O307  1  0.23662536  0.24200643  0.38370909  1
  O  O308  1  0.24441336  0.24453626  0.88328677  1
  O  O309  1  0.24973335  0.73845306  0.37375229  1
  O  O310  1  0.22682045  0.74903838  0.85249033  1
  O  O311  1  0.74788187  0.24207718  0.37594964  1
  O  O312  1  0.75453000  0.26263362  0.88941265  1
  O  O313  1  0.74904992  0.73573537  0.38044686  1
  O  O314  1  0.75826552  0.75263763  0.89346549  1
  O  O315  1  0.00952721  0.11665802  -0.00682437  1
  O  O316  1  0.00438139  0.11317595  0.49767130  1
  O  O317  1  -0.00114740  0.63089123  0.01143805  1
  O  O318  1  -0.00559388  0.61401318  0.50680290  1
  O  O319  1  0.50341509  0.11902439  0.01200531  1
  O  O320  1  0.50438239  0.11776548  0.50477783  1
  O  O321  1  0.49973682  0.61182750  -0.00407255  1
  O  O322  1  0.48950649  0.61159156  0.50772239  1
  O  O323  1  0.48769531  0.38943430  0.50245187  1
  O  O324  1  0.49411858  0.38082751  0.99348140  1
  O  O325  1  0.49246982  0.88201203  0.49552565  1
  O  O326  1  0.49800898  0.88081743  0.99392294  1
  O  O327  1  0.99493921  0.37904806  0.49071102  1
  O  O328  1  1.00448945  0.37016443  0.98455408  1
  O  O329  1  0.99621483  0.88556496  0.49580459  1
  O  O330  1  0.99209132  0.87832697  0.99608363  1
  O  O331  1  0.48905235  0.50662267  0.38105503  1
  O  O332  1  0.49028607  0.49017031  0.87832314  1
  O  O333  1  0.50363079  0.98692513  0.38470178  1
  O  O334  1  0.49535475  0.99618957  0.88878906  1
  O  O335  1  1.00334043  0.49319928  0.38562766  1
  O  O336  1  0.99033511  0.49188000  0.86621439  1
  O  O337  1  0.98717279  0.99400403  0.38291280  1
  O  O338  1  0.99670071  0.98882015  0.88543201  1
  O  O339  1  0.00269561  -0.00305589  0.11223443  1
  O  O340  1  0.00516296  -0.00267506  0.61890642  1
  O  O341  1  0.01031497  0.51723345  0.12656273  1
  O  O342  1  0.00579909  0.50407237  0.61717567  1
  O  O343  1  0.50551906  0.00009352  0.11675864  1
  O  O344  1  0.50616479  0.00634044  0.61942499  1
  O  O345  1  0.51174677  0.49562891  0.11286284  1
  O  O346  1  0.50876676  0.50361249  0.61891276  1
  O  O347  1  0.23246405  0.37879202  0.24674994  1
  O  O348  1  0.24160389  0.38591581  0.75386699  1
  O  O349  1  0.24881048  0.88286045  0.24528808  1
  O  O350  1  0.24267651  0.88604352  0.74823797  1
  O  O351  1  0.74631167  0.37749555  0.23980997  1
  O  O352  1  0.75034238  0.38321060  0.74100574  1
  O  O353  1  0.73827081  0.86472706  0.25323760  1
  O  O354  1  0.73801105  0.87059873  0.74250285  1
  O  O355  1  0.25315989  0.11344632  0.25026177  1
  O  O356  1  0.25541281  0.12019532  0.75960165  1
  O  O357  1  0.25785763  0.62595039  0.25839525  1
  O  O358  1  0.25929911  0.61031626  0.74195954  1
  O  O359  1  0.74115273  0.12866095  0.25885981  1
  O  O360  1  0.74706409  0.13499690  0.75182737  1
  O  O361  1  0.76250333  0.62769639  0.25586049  1
  O  O362  1  0.75348244  0.61162663  0.74826572  1
  O  O363  1  0.37422664  0.12892722  0.36788465  1
  O  O364  1  0.37260247  0.11442799  0.87306201  1
  O  O365  1  0.36942751  0.62068797  0.36537536  1
  O  O366  1  0.38366449  0.61223037  0.85816860  1
  O  O367  1  0.86559397  0.11015011  0.37722401  1
  O  O368  1  0.87660376  0.11081102  0.87700383  1
  O  O369  1  0.86775594  0.62604926  0.36497257  1
  O  O370  1  0.87057899  0.61690431  0.87044922  1
  O  O371  1  0.11996591  0.38486897  0.12890929  1
  O  O372  1  0.11960519  0.38265655  0.63789515  1
  O  O373  1  0.13523025  0.87680953  0.12786147  1
  O  O374  1  0.12753019  0.89167607  0.63620510  1
  O  O375  1  0.63481066  0.38261299  0.13165696  1
  O  O376  1  0.63243964  0.38383856  0.62380604  1
  O  O377  1  0.62788541  0.88464245  0.13585427  1
  O  O378  1  0.62925383  0.88327008  0.63251895  1
  O  O379  1  0.11160719  0.25775222  0.24694072  1
  O  O380  1  0.12137289  0.25656596  0.75380783  1
  O  O381  1  0.10967964  0.74894903  0.25087225  1
  O  O382  1  0.10982485  0.75562980  0.74918139  1
  O  O383  1  0.62570107  0.26523487  0.25146653  1
  O  O384  1  0.61747841  0.24990083  0.75094401  1
  O  O385  1  0.61276690  0.75654918  0.25232139  1
  O  O386  1  0.61758167  0.75851425  0.74212034  1
  O  O387  1  0.38557001  0.26788200  0.26103663  1
  O  O388  1  0.38019027  0.24622742  0.74593955  1
  O  O389  1  0.39017164  0.74529203  0.25319915  1
  O  O390  1  0.38757159  0.74079218  0.75154412  1
  O  O391  1  0.88949869  0.25026117  0.24199451  1
  O  O392  1  0.88386939  0.25034044  0.74109029  1
  O  O393  1  0.88646663  0.73589592  0.25012512  1
  O  O394  1  0.88373843  0.75217973  0.74239512  1
  O  O395  1  0.37946495  0.49486641  0.49256840  1
  O  O396  1  0.37998298  0.49526953  0.99129565  1
  O  O397  1  0.38671231  0.99280085  0.50863588  1
  O  O398  1  0.38265242  0.99917502  0.99430446  1
  O  O399  1  0.88619269  0.48492152  0.50569855  1
  O  O400  1  0.87000310  0.49807385  0.98790920  1
  O  O401  1  0.88071587  0.99788424  0.49701099  1
  O  O402  1  0.88060088  0.99384958  0.99117409  1
  O  O403  1  0.11589093  0.00861205  -0.00075379  1
  O  O404  1  0.11618841  0.00584862  0.51118232  1
  O  O405  1  0.12639617  0.51379555  0.00250543  1
  O  O406  1  0.11646810  0.49014411  0.50866524  1
  O  O407  1  0.61715014  0.00623060  0.00941664  1
  O  O408  1  0.61337816  0.00213399  0.50875072  1
  O  O409  1  0.61689126  0.49879424  0.00899531  1
  O  O410  1  0.61555587  0.49453504  0.50614105  1
  O  O411  1  0.37164662  0.38337086  0.10999113  1
  O  O412  1  0.37755095  0.36810213  0.61806518  1
  O  O413  1  0.36048938  0.87599902  0.12621200  1
  O  O414  1  0.37402983  0.87105109  0.61792527  1
  O  O415  1  0.86914424  0.37204030  0.12344334  1
  O  O416  1  0.87120005  0.36591629  0.61603982  1
  O  O417  1  0.87418055  0.88448340  0.11106081  1
  O  O418  1  0.86531003  0.86956798  0.62794180  1
  O  O419  1  0.12328276  0.12172351  0.39145744  1
  O  O420  1  0.13240337  0.13094110  0.88497023  1
  O  O421  1  0.14238830  0.61577295  0.37143349  1
  O  O422  1  0.11541148  0.63039126  0.88791477  1
  O  O423  1  0.62869684  0.13117761  0.37693718  1
  O  O424  1  0.61447571  0.12336707  0.89266312  1
  O  O425  1  0.64126254  0.62405296  0.36736937  1
  O  O426  1  0.63278660  0.61501970  0.88060694  1
