# generated using pymatgen
data_V85Zn86O256
_symmetry_space_group_name_H-M   'P 1'
_cell_length_a   16.99298027
_cell_length_b   16.96527571
_cell_length_c   16.98750662
_cell_angle_alpha   89.96752756
_cell_angle_beta   89.96728956
_cell_angle_gamma   89.92258104
_symmetry_Int_Tables_number   1
_chemical_formula_structural   V85Zn86O256
_chemical_formula_sum   'V85 Zn86 O256'
_cell_volume   4897.33234405
_cell_formula_units_Z   1
loop_
 _symmetry_equiv_pos_site_id
 _symmetry_equiv_pos_as_xyz
  1  'x, y, z'
loop_
 _atom_site_type_symbol
 _atom_site_label
 _atom_site_symmetry_multiplicity
 _atom_site_fract_x
 _atom_site_fract_y
 _atom_site_fract_z
 _atom_site_occupancy
  V  V0  1  0.75253143  0.00199088  0.75301994  1
  V  V1  1  0.25571341  0.74847282  -0.00459660  1
  V  V2  1  0.75102698  0.00411415  0.24938010  1
  V  V3  1  0.76116426  0.50162761  0.74014630  1
  V  V4  1  0.24722809  0.49677492  0.74807614  1
  V  V5  1  0.87601614  -0.00073307  0.88162471  1
  V  V6  1  0.49622182  0.11231647  0.12676934  1
  V  V7  1  0.37388866  0.37663713  0.49976676  1
  V  V8  1  -0.00048118  0.12644599  0.12455864  1
  V  V9  1  0.50908340  0.24978547  0.75444319  1
  V  V10  1  0.24923655  0.62313334  0.86974923  1
  V  V11  1  0.12682053  0.62453888  0.49314822  1
  V  V12  1  0.49644893  0.24022007  0.25312578  1
  V  V13  1  0.01652885  0.37176463  0.36906322  1
  V  V14  1  0.61932794  0.87635802  0.76244114  1
  V  V15  1  0.61873436  0.37327319  0.25083731  1
  V  V16  1  0.25171956  0.74475917  0.49359689  1
  V  V17  1  -0.03369609  0.52141674  0.03432915  1
  V  V18  1  0.76050684  0.87233559  0.12148271  1
  V  V19  1  0.11966359  0.50801949  0.62433004  1
  V  V20  1  -0.00452143  0.50828920  0.50051344  1
  V  V21  1  0.87092899  0.37727249  -0.00592809  1
  V  V22  1  0.50008637  0.12714107  0.62486266  1
  V  V23  1  0.88165700  0.13289216  0.75230261  1
  V  V24  1  0.74342388  0.37672753  0.12621753  1
  V  V25  1  -0.02622792  0.86992216  0.35602388  1
  V  V26  1  0.49904709  0.37631673  0.37713853  1
  V  V27  1  0.50913793  0.36943541  0.88030329  1
  V  V28  1  0.50774604  0.50334027  0.51353513  1
  V  V29  1  0.50089058  0.00253146  0.49950937  1
  V  V30  1  0.75673255  0.61502410  0.87418804  1
  V  V31  1  0.38730097  0.87358980  -0.00912262  1
  V  V32  1  0.74941289  0.50093828  0.26070407  1
  V  V33  1  0.12293620  0.12437701  -0.00399858  1
  V  V34  1  0.11594448  0.36997894  0.74715398  1
  V  V35  1  0.49991185  0.50518889  0.00921447  1
  V  V36  1  0.25493383  0.52226344  0.25368336  1
  V  V37  1  -0.00044523  0.13102935  0.62198829  1
  V  V38  1  0.87652723  0.73831713  0.62345931  1
  V  V39  1  0.62461806  0.24939003  0.37720936  1
  V  V40  1  0.12819532  0.86852546  0.25396052  1
  V  V41  1  0.87498186  0.37780965  0.48873967  1
  V  V42  1  0.37812508  0.87593327  0.50043699  1
  V  V43  1  0.37501539  0.51746240  0.37464056  1
  V  V44  1  0.38174104  -0.00205284  0.87109874  1
  V  V45  1  0.38392574  0.62123115  0.74326191  1
  V  V46  1  0.75018521  0.87496572  0.63209899  1
  V  V47  1  0.24703779  0.25240902  -0.00137552  1
  V  V48  1  0.87536232  0.88804726  0.50861244  1
  V  V49  1  0.37478469  0.12827826  0.74859021  1
  V  V50  1  0.51260827  0.86688283  0.37756270  1
  V  V51  1  0.24943310  0.00025064  0.74636575  1
  V  V52  1  0.24208843  0.24992468  0.49466682  1
  V  V53  1  0.87462249  0.25446672  0.12820561  1
  V  V54  1  0.24737180  0.12566497  0.87176178  1
  V  V55  1  0.75252018  0.74995056  -0.00037589  1
  V  V56  1  0.11354066  0.24933863  0.87087330  1
  V  V57  1  -0.00481276  0.73534242  0.74496292  1
  V  V58  1  0.11933080  -0.00332081  0.12128012  1
  V  V59  1  0.24639031  0.37244405  0.62394094  1
  V  V60  1  0.62568198  0.12772291  0.50218315  1
  V  V61  1  0.25769855  -0.00044664  0.24678457  1
  V  V62  1  0.62612866  0.38747391  0.73858144  1
  V  V63  1  0.19453886  0.32474726  0.18320033  1
  V  V64  1  0.12335104  0.87188961  0.74498593  1
  V  V65  1  0.37219881  0.37071517  0.00743334  1
  V  V66  1  0.24885199  0.12437428  0.37350563  1
  V  V67  1  0.74304731  0.63331433  0.37442780  1
  V  V68  1  0.12446811  0.61856574  0.00043789  1
  V  V69  1  0.87520968  0.25931881  0.62785465  1
  V  V70  1  0.38079500  0.00085910  0.36399050  1
  V  V71  1  -0.00461068  0.38872555  0.87552474  1
  V  V72  1  0.74423191  0.13545428  0.87768992  1
  V  V73  1  0.88012887  0.12033111  0.25366527  1
  V  V74  1  0.25487411  0.87415689  0.11875615  1
  V  V75  1  0.12112946  0.00193619  0.61789647  1
  V  V76  1  0.62934750  0.86711805  0.25196824  1
  V  V77  1  0.75645718  0.12356506  0.37674100  1
  V  V78  1  -0.00406393  0.87410182  0.86846871  1
  V  V79  1  0.37627052  0.24524078  0.13004107  1
  V  V80  1  0.37469919  0.49234517  0.87520785  1
  V  V81  1  0.13428319  0.50277935  0.12882344  1
  V  V82  1  0.75000790  0.25775744  0.50617945  1
  V  V83  1  0.62350461  0.63568980  0.51690434  1
  V  V84  1  0.25114042  0.87321462  0.62163883  1
  Zn  Zn85  1  0.00033927  -0.00232661  -0.00327429  1
  Zn  Zn86  1  0.38000056  0.74097874  0.62144049  1
  Zn  Zn87  1  0.90714433  0.54253367  0.33814018  1
  Zn  Zn88  1  0.62894959  0.00177939  0.12114751  1
  Zn  Zn89  1  0.61769139  0.13052199  -0.00090677  1
  Zn  Zn90  1  0.49995866  0.75136068  0.75111141  1
  Zn  Zn91  1  0.62225822  0.62945935  0.00355170  1
  Zn  Zn92  1  0.73881978  0.25530480  -0.00243393  1
  Zn  Zn93  1  0.38438940  0.72982229  0.13076309  1
  Zn  Zn94  1  0.50607518  -0.00087760  -0.00671784  1
  Zn  Zn95  1  0.37340793  0.25014898  0.62500551  1
  Zn  Zn96  1  0.12339909  0.74856637  0.86961716  1
  Zn  Zn97  1  -0.00574877  0.00478063  0.48596368  1
  Zn  Zn98  1  0.61457375  0.51151107  0.13670122  1
  Zn  Zn99  1  0.61879187  0.74561159  0.87712647  1
  Zn  Zn100  1  0.50204656  0.72975258  0.24672003  1
  Zn  Zn101  1  0.91433757  0.83128043  0.03500519  1
  Zn  Zn102  1  0.01009194  0.25457394  0.25169538  1
  Zn  Zn103  1  0.62546898  0.00186913  0.62721956  1
  Zn  Zn104  1  0.11915893  0.12950818  0.48870103  1
  Zn  Zn105  1  0.12737443  0.74553630  0.36868204  1
  Zn  Zn106  1  0.74629670  0.75588973  0.49990483  1
  Zn  Zn107  1  0.19048249  0.16499659  0.18852625  1
  Zn  Zn108  1  0.18483025  0.18899980  0.68445652  1
  Zn  Zn109  1  0.19131466  0.68846957  0.17958639  1
  Zn  Zn110  1  0.18862217  0.68821457  0.68287488  1
  Zn  Zn111  1  0.68453240  0.18789077  0.18510460  1
  Zn  Zn112  1  0.68845979  0.19138724  0.69008020  1
  Zn  Zn113  1  0.68796455  0.68726009  0.18324703  1
  Zn  Zn114  1  0.69063789  0.68773855  0.69282102  1
  Zn  Zn115  1  0.31872395  0.31135302  0.31836546  1
  Zn  Zn116  1  0.31181668  0.31044909  0.81354018  1
  Zn  Zn117  1  0.31636864  0.81152765  0.31634232  1
  Zn  Zn118  1  0.31368053  0.80968391  0.81003716  1
  Zn  Zn119  1  0.81136574  0.31065293  0.31178674  1
  Zn  Zn120  1  0.81031749  0.31867559  0.80792863  1
  Zn  Zn121  1  0.79837313  0.82110644  0.32530661  1
  Zn  Zn122  1  0.81206102  0.80574373  0.81530778  1
  Zn  Zn123  1  0.19011739  0.44224296  0.43364744  1
  Zn  Zn124  1  0.18644070  0.43499219  0.93657454  1
  Zn  Zn125  1  0.19048809  0.94036872  0.43775729  1
  Zn  Zn126  1  0.18760902  0.93617511  0.93146984  1
  Zn  Zn127  1  0.68598479  0.43966591  0.44078412  1
  Zn  Zn128  1  0.68365610  0.43931382  0.93574940  1
  Zn  Zn129  1  0.69033050  0.94250969  0.44056259  1
  Zn  Zn130  1  0.69059253  0.94176021  0.94321384  1
  Zn  Zn131  1  0.31473052  0.06167006  0.05872672  1
  Zn  Zn132  1  0.31327234  0.06319826  0.55927280  1
  Zn  Zn133  1  0.30788237  0.55584337  0.05927866  1
  Zn  Zn134  1  0.31021606  0.55886838  0.56114274  1
  Zn  Zn135  1  0.81407179  0.06290660  0.06312844  1
  Zn  Zn136  1  0.81031109  0.06891675  0.56826559  1
  Zn  Zn137  1  0.79895532  0.55955892  0.06409245  1
  Zn  Zn138  1  0.80817090  0.56120185  0.55762183  1
  Zn  Zn139  1  0.43666118  0.56026303  0.18937243  1
  Zn  Zn140  1  0.43629643  0.43391707  0.68912681  1
  Zn  Zn141  1  0.43884023  0.87854208  0.18936453  1
  Zn  Zn142  1  0.43847225  0.93792533  0.68475032  1
  Zn  Zn143  1  0.93592582  0.44592495  0.18620924  1
  Zn  Zn144  1  0.93740286  0.43853384  0.68476405  1
  Zn  Zn145  1  0.94689368  0.80547729  0.19032363  1
  Zn  Zn146  1  0.93757039  0.94200969  0.68957854  1
  Zn  Zn147  1  0.06141596  0.05124447  0.30973225  1
  Zn  Zn148  1  0.06037112  0.06131394  0.80569265  1
  Zn  Zn149  1  0.07127217  0.56105453  0.31078413  1
  Zn  Zn150  1  0.06265827  0.56041609  0.81228150  1
  Zn  Zn151  1  0.56665723  0.06055378  0.31253943  1
  Zn  Zn152  1  0.56529528  0.06230573  0.81057137  1
  Zn  Zn153  1  0.56817785  0.56175407  0.32564657  1
  Zn  Zn154  1  0.56525553  0.56045725  0.82265509  1
  Zn  Zn155  1  0.43084125  0.18640814  0.43745836  1
  Zn  Zn156  1  0.43708587  0.18541904  0.93832827  1
  Zn  Zn157  1  0.44542851  0.68972302  0.44162887  1
  Zn  Zn158  1  0.43866438  0.68673695  0.92792776  1
  Zn  Zn159  1  0.93947579  0.19452617  0.43616352  1
  Zn  Zn160  1  0.93379137  0.19103374  0.94058015  1
  Zn  Zn161  1  0.93938657  0.69789012  0.35101403  1
  Zn  Zn162  1  0.93671920  0.68238949  0.92974678  1
  Zn  Zn163  1  0.05409590  0.31580037  0.05635266  1
  Zn  Zn164  1  0.05897052  0.31464331  0.55888579  1
  Zn  Zn165  1  0.07637337  0.80887400  0.05712729  1
  Zn  Zn166  1  0.05669379  0.80831557  0.55673147  1
  Zn  Zn167  1  0.56079724  0.30770951  0.06451753  1
  Zn  Zn168  1  0.56003183  0.31306849  0.56555641  1
  Zn  Zn169  1  0.57179999  0.81191001  0.06626783  1
  Zn  Zn170  1  0.56144034  0.81335641  0.57459303  1
  O  O171  1  0.11908230  0.11620858  0.11693543  1
  O  O172  1  0.11611799  0.11908061  0.62215163  1
  O  O173  1  0.12880604  0.61593810  0.11468287  1
  O  O174  1  0.12850928  0.61199192  0.61825555  1
  O  O175  1  0.61084525  0.12233054  0.12746997  1
  O  O176  1  0.61839322  0.12633601  0.62094308  1
  O  O177  1  0.62820513  0.62138073  0.11681759  1
  O  O178  1  0.62862316  0.62601021  0.61559071  1
  O  O179  1  0.38001256  0.38078145  0.38803401  1
  O  O180  1  0.38245121  0.37626986  0.88078318  1
  O  O181  1  0.38657638  0.88474598  0.38458302  1
  O  O182  1  0.36600907  0.88537949  0.87946982  1
  O  O183  1  0.87779223  0.36920380  0.38625207  1
  O  O184  1  0.88496177  0.36207515  0.88334344  1
  O  O185  1  0.86766510  0.88215996  0.40206264  1
  O  O186  1  0.88397849  0.88594108  0.86537688  1
  O  O187  1  0.26080603  0.00087866  0.36617104  1
  O  O188  1  0.25391749  0.00716114  0.86408560  1
  O  O189  1  0.25947618  0.49939560  0.36231152  1
  O  O190  1  0.25416955  0.50324295  0.86792075  1
  O  O191  1  0.74830102  0.01755684  0.37046169  1
  O  O192  1  0.75887415  0.00916600  0.86790286  1
  O  O193  1  0.74478254  0.50916459  0.37098224  1
  O  O194  1  0.74386353  0.50932525  0.86776087  1
  O  O195  1  0.24500256  0.49807410  0.14049820  1
  O  O196  1  0.23964937  0.49008335  0.62817397  1
  O  O197  1  0.24359914  0.99753194  0.12912175  1
  O  O198  1  0.24180984  0.99484313  0.62646449  1
  O  O199  1  0.74125861  0.48633584  0.13564914  1
  O  O200  1  0.75202403  0.50317353  0.64094977  1
  O  O201  1  0.75207209  0.99710429  0.13370677  1
  O  O202  1  0.75030148  0.99955622  0.64117228  1
  O  O203  1  -0.00403801  0.37748172  0.26585400  1
  O  O204  1  0.00998190  0.37865065  0.75741464  1
  O  O205  1  0.02317561  0.88004906  0.24911661  1
  O  O206  1  0.00560795  0.87139271  0.75432086  1
  O  O207  1  0.51163312  0.36089269  0.25878496  1
  O  O208  1  0.50688854  0.36948097  0.75660819  1
  O  O209  1  0.52059087  0.89384311  0.26679282  1
  O  O210  1  0.51841593  0.88700563  0.74910337  1
  O  O211  1  0.50238931  0.13461491  0.24782884  1
  O  O212  1  0.49737362  0.13254571  0.74538436  1
  O  O213  1  0.50343260  0.61845257  0.25689822  1
  O  O214  1  0.48390598  0.61396527  0.75495824  1
  O  O215  1  0.99597898  0.12772411  0.24538889  1
  O  O216  1  0.98807260  0.12579269  0.74176479  1
  O  O217  1  0.97986647  0.61702398  0.28439915  1
  O  O218  1  1.00345887  0.63616784  0.75285724  1
  O  O219  1  0.36581261  0.25121419  0.00524272  1
  O  O220  1  0.36532521  0.25986178  0.50171463  1
  O  O221  1  0.36674790  0.75691224  -0.00634422  1
  O  O222  1  0.36970852  0.75661630  0.50194913  1
  O  O223  1  0.87086788  0.25976008  0.01257427  1
  O  O224  1  0.86731298  0.25692073  0.50660082  1
  O  O225  1  0.85796132  0.74966094  -0.01874851  1
  O  O226  1  0.86808971  0.77016471  0.52046734  1
  O  O227  1  0.13854397  0.24982328  0.50262717  1
  O  O228  1  0.12826063  0.24588802  0.99256130  1
  O  O229  1  0.13320305  0.73999482  0.50479406  1
  O  O230  1  0.13905887  0.73588273  0.99337750  1
  O  O231  1  0.63197864  0.24828682  0.49838828  1
  O  O232  1  0.62657718  0.24405248  1.00224233  1
  O  O233  1  0.62471526  0.73974093  0.50923324  1
  O  O234  1  0.63783116  0.75260199  0.99619914  1
  O  O235  1  0.49087294  0.24112282  0.13535446  1
  O  O236  1  0.49565276  0.24298150  0.63306614  1
  O  O237  1  0.49213836  0.77907882  0.13636417  1
  O  O238  1  0.48896355  0.76098435  0.63910970  1
  O  O239  1  0.99207363  0.24836273  0.12909602  1
  O  O240  1  0.99307177  0.23849527  0.61825190  1
  O  O241  1  0.98562600  0.76209458  0.09914052  1
  O  O242  1  0.98506096  0.75473722  0.63119970  1
  O  O243  1  0.00309379  0.26470297  0.37108471  1
  O  O244  1  0.01111318  0.25917669  0.88365822  1
  O  O245  1  0.01517158  0.78007360  0.39236317  1
  O  O246  1  0.00067860  0.75655828  0.86392251  1
  O  O247  1  0.50177910  0.25337595  0.37127948  1
  O  O248  1  0.49277186  0.25689790  0.86556163  1
  O  O249  1  0.50035627  0.76530278  0.37331898  1
  O  O250  1  0.50472092  0.74743120  0.86385597  1
  O  O251  1  0.24807090  0.13283545  0.49199002  1
  O  O252  1  0.24220493  0.13114870  0.99223162  1
  O  O253  1  0.24200091  0.63426919  0.50766607  1
  O  O254  1  0.24673735  0.62947626  0.98864370  1
  O  O255  1  0.74748132  0.13515750  0.49468544  1
  O  O256  1  0.75527735  0.12743188  0.98409933  1
  O  O257  1  0.73515303  0.62712634  0.49797243  1
  O  O258  1  0.74883297  0.62907712  0.99077507  1
  O  O259  1  0.26005271  0.36504103  -0.00955924  1
  O  O260  1  0.25587199  0.36990192  0.50122765  1
  O  O261  1  0.25075838  0.86487719  0.00072647  1
  O  O262  1  0.25502280  0.87086419  0.50696459  1
  O  O263  1  0.75218613  0.37594698  0.00803213  1
  O  O264  1  0.75649939  0.36514186  0.49636586  1
  O  O265  1  0.75035037  0.86845278  0.00978550  1
  O  O266  1  0.75468459  0.87920660  0.51399511  1
  O  O267  1  0.14364575  0.50307548  0.24464005  1
  O  O268  1  0.12779919  0.49199419  0.74158909  1
  O  O269  1  0.13669283  0.99186755  0.23823003  1
  O  O270  1  0.12977660  0.99491955  0.73599893  1
  O  O271  1  0.63084140  0.48743198  0.25411509  1
  O  O272  1  0.62295324  0.48940524  0.74978142  1
  O  O273  1  0.64173043  1.00061748  0.24929454  1
  O  O274  1  0.63610812  0.99397109  0.75006804  1
  O  O275  1  0.37072814  -0.01493863  0.26023937  1
  O  O276  1  0.36845134  0.00580534  0.75336402  1
  O  O277  1  0.36217581  0.50038429  0.26016858  1
  O  O278  1  0.36722229  0.50349344  0.75410201  1
  O  O279  1  0.86340248  0.01923234  0.25002338  1
  O  O280  1  0.86953802  0.01196202  0.75801083  1
  O  O281  1  0.85288859  0.48464248  0.25551968  1
  O  O282  1  0.85995298  0.48891309  0.75070065  1
  O  O283  1  0.11506022  0.37650931  0.37655749  1
  O  O284  1  0.11634358  0.36903321  0.86842453  1
  O  O285  1  0.13802084  0.87759304  0.35603660  1
  O  O286  1  0.11860209  0.87349109  0.86114391  1
  O  O287  1  0.61909459  0.36780429  0.37233460  1
  O  O288  1  0.61147875  0.37632093  0.86698293  1
  O  O289  1  0.62318983  0.88180182  0.36951129  1
  O  O290  1  0.63208321  0.87950735  0.86304794  1
  O  O291  1  0.37821437  0.13646897  0.12141685  1
  O  O292  1  0.38174889  0.12526437  0.63145512  1
  O  O293  1  0.37129856  0.62085554  0.12126506  1
  O  O294  1  0.36799130  0.61984907  0.64042662  1
  O  O295  1  0.88164334  0.13357039  0.13003061  1
  O  O296  1  0.88174857  0.13478896  0.63253872  1
  O  O297  1  0.90305735  0.55892361  0.11132478  1
  O  O298  1  0.87029133  0.64045104  0.61691991  1
  O  O299  1  0.25238885  0.25200348  0.12687132  1
  O  O300  1  0.25178744  0.25587307  0.61602784  1
  O  O301  1  0.25522242  0.75929723  0.11221526  1
  O  O302  1  0.25442316  0.75971756  0.61589108  1
  O  O303  1  0.75591551  0.26192608  0.12683037  1
  O  O304  1  0.76015933  0.24479787  0.61559707  1
  O  O305  1  0.75381897  0.75841202  0.11530423  1
  O  O306  1  0.75976251  0.76025677  0.63050306  1
  O  O307  1  0.25679162  0.23719429  0.38141398  1
  O  O308  1  0.23790709  0.24339027  0.87748960  1
  O  O309  1  0.24787513  0.75783386  0.39001384  1
  O  O310  1  0.24746912  0.73965594  0.87747933  1
  O  O311  1  0.74434811  0.24210279  0.38330292  1
  O  O312  1  0.75597004  0.23739600  0.87384894  1
  O  O313  1  0.74359927  0.73912179  0.38061344  1
  O  O314  1  0.74324666  0.73726979  0.87686061  1
  O  O315  1  0.00595249  0.12385426  0.00571230  1
  O  O316  1  0.00095838  0.12227207  0.50400279  1
  O  O317  1  0.00976721  0.61162065  -0.01089878  1
  O  O318  1  0.01006132  0.60906031  0.49822253  1
  O  O319  1  0.49544680  0.11986101  0.01130942  1
  O  O320  1  0.50366961  0.12349484  0.50602110  1
  O  O321  1  0.49372725  0.60644615  -0.00652944  1
  O  O322  1  0.51279855  0.61492057  0.49962423  1
  O  O323  1  0.49300389  0.38285795  0.49886141  1
  O  O324  1  0.49105541  0.37626955  0.99430160  1
  O  O325  1  0.50124390  0.88413457  0.49556631  1
  O  O326  1  0.48862531  0.87950859  0.99969781  1
  O  O327  1  0.99375278  0.37969943  0.48895184  1
  O  O328  1  0.98696473  0.38864869  0.99587330  1
  O  O329  1  0.98257618  0.88427237  0.50905837  1
  O  O330  1  1.00706208  0.87862667  0.97986936  1
  O  O331  1  0.49163487  0.49149931  0.38629854  1
  O  O332  1  0.49186771  0.48754992  0.88432365  1
  O  O333  1  0.49584300  1.00044332  0.38384903  1
  O  O334  1  0.48472066  1.00816565  0.87229724  1
  O  O335  1  1.00027252  0.48633521  0.38540525  1
  O  O336  1  1.00317802  0.48914922  0.87847531  1
  O  O337  1  1.00063640  0.97465735  0.37182103  1
  O  O338  1  0.99270600  0.99342754  0.87066233  1
  O  O339  1  0.01548274  0.00412694  0.11955192  1
  O  O340  1  0.00691657  0.01325956  0.62565474  1
  O  O341  1  0.02701661  0.48106376  0.12141654  1
  O  O342  1  0.01090745  0.49062415  0.61433437  1
  O  O343  1  0.49484994  0.01084336  0.12902512  1
  O  O344  1  0.50165940  0.00991101  0.61723542  1
  O  O345  1  0.49634807  0.49159647  0.11170009  1
  O  O346  1  0.49217471  0.49696620  0.61077313  1
  O  O347  1  0.25031849  0.37583244  0.24891130  1
  O  O348  1  0.23920843  0.37816647  0.74593808  1
  O  O349  1  0.24591392  0.88280299  0.23806569  1
  O  O350  1  0.24476849  0.87808867  0.73928789  1
  O  O351  1  0.73691107  0.37552432  0.24726130  1
  O  O352  1  0.73406166  0.38782618  0.75748139  1
  O  O353  1  0.74635938  0.88666632  0.24755230  1
  O  O354  1  0.74637035  0.88512735  0.74909773  1
  O  O355  1  0.25730092  0.10765639  0.25620316  1
  O  O356  1  0.25406219  0.12078468  0.75151264  1
  O  O357  1  0.25160284  0.62111035  0.25218050  1
  O  O358  1  0.25121826  0.61617715  0.75470749  1
  O  O359  1  0.75554646  0.12463624  0.25770990  1
  O  O360  1  0.75852390  0.12170441  0.75906532  1
  O  O361  1  0.74156119  0.61708262  0.26531879  1
  O  O362  1  0.74308922  0.61016534  0.76037627  1
  O  O363  1  0.36407321  0.11065030  0.38005220  1
  O  O364  1  0.36629772  0.11908179  0.86752298  1
  O  O365  1  0.37813261  0.61621912  0.38494714  1
  O  O366  1  0.36295068  0.61408884  0.86620090  1
  O  O367  1  0.86782550  0.13618270  0.36616320  1
  O  O368  1  0.87144877  0.12193320  0.86784626  1
  O  O369  1  0.84953894  0.62692589  0.39256407  1
  O  O370  1  0.85603556  0.62321028  0.87306869  1
  O  O371  1  0.13733160  0.37737026  0.11641547  1
  O  O372  1  0.12693245  0.37802485  0.63212490  1
  O  O373  1  0.13803398  0.88048626  0.12726974  1
  O  O374  1  0.13166350  0.88173203  0.62496401  1
  O  O375  1  0.62853062  0.37384577  0.13643280  1
  O  O376  1  0.62126283  0.37446321  0.64040366  1
  O  O377  1  0.63985492  0.88257698  0.13619677  1
  O  O378  1  0.63886822  0.88106091  0.63482041  1
  O  O379  1  0.13379291  0.25884685  0.23308050  1
  O  O380  1  0.12716393  0.25874650  0.75811741  1
  O  O381  1  0.13448109  0.76363901  0.24798706  1
  O  O382  1  0.11617110  0.75550490  0.74511873  1
  O  O383  1  0.61844341  0.25340242  0.25819648  1
  O  O384  1  0.61377274  0.25941143  0.74846359  1
  O  O385  1  0.62598403  0.76491584  0.24817618  1
  O  O386  1  0.62861641  0.76863991  0.75061212  1
  O  O387  1  0.38486665  0.25454566  0.24240716  1
  O  O388  1  0.38317136  0.24425660  0.74745151  1
  O  O389  1  0.38750263  0.77871789  0.23969496  1
  O  O390  1  0.36949211  0.72947048  0.74976022  1
  O  O391  1  0.87458952  0.24367147  0.23839138  1
  O  O392  1  0.86911402  0.24499366  0.74008663  1
  O  O393  1  0.90275128  0.79296759  0.29001826  1
  O  O394  1  0.88282725  0.75539001  0.73592220  1
  O  O395  1  0.38081054  0.49464996  0.49431996  1
  O  O396  1  0.38045077  0.48686588  0.99530386  1
  O  O397  1  0.38265909  0.99467386  0.49355272  1
  O  O398  1  0.37196178  0.99178589  0.98540850  1
  O  O399  1  0.88312687  0.48977511  0.50705049  1
  O  O400  1  0.86892083  0.48464561  0.98960321  1
  O  O401  1  0.87414303  0.99267908  0.51206202  1
  O  O402  1  0.87879314  1.00437242  0.98548828  1
  O  O403  1  0.12750986  0.00623658  0.00419998  1
  O  O404  1  0.12213219  0.00163273  0.50936815  1
  O  O405  1  0.13813352  0.51084689  0.00873904  1
  O  O406  1  0.12255342  0.50531254  0.50620237  1
  O  O407  1  0.62198259  0.00973973  0.00268935  1
  O  O408  1  0.61894540  0.01074509  0.50389725  1
  O  O409  1  0.60495852  0.49349286  0.00236529  1
  O  O410  1  0.61130336  0.50247582  0.50346495  1
  O  O411  1  0.37457474  0.35679478  0.10954121  1
  O  O412  1  0.36657138  0.37557240  0.61415710  1
  O  O413  1  0.35959824  0.88850344  0.10545467  1
  O  O414  1  0.36193218  0.88109688  0.61921227  1
  O  O415  1  0.86635971  0.37052604  0.11902406  1
  O  O416  1  0.88377118  0.36212661  0.61476297  1
  O  O417  1  0.86361937  0.87943151  0.12897579  1
  O  O418  1  0.86300932  0.88027943  0.62553453  1
  O  O419  1  0.14187585  0.11210988  0.37225199  1
  O  O420  1  0.12558267  0.13174283  0.87441753  1
  O  O421  1  0.12815887  0.62746891  0.38915929  1
  O  O422  1  0.13654872  0.62193904  0.87915263  1
  O  O423  1  0.63224751  0.13236216  0.38298895  1
  O  O424  1  0.64258011  0.12268589  0.87131046  1
  O  O425  1  0.63728438  0.62163825  0.39373304  1
  O  O426  1  0.63371467  0.62467077  0.88431352  1
