# generated using pymatgen
data_V85Zn86O256
_symmetry_space_group_name_H-M   'P 1'
_cell_length_a   16.97130570
_cell_length_b   16.98022072
_cell_length_c   16.98570421
_cell_angle_alpha   90.04777098
_cell_angle_beta   90.00277368
_cell_angle_gamma   90.05785339
_symmetry_Int_Tables_number   1
_chemical_formula_structural   V85Zn86O256
_chemical_formula_sum   'V85 Zn86 O256'
_cell_volume   4894.87687061
_cell_formula_units_Z   1
loop_
 _symmetry_equiv_pos_site_id
 _symmetry_equiv_pos_as_xyz
  1  'x, y, z'
loop_
 _atom_site_type_symbol
 _atom_site_label
 _atom_site_symmetry_multiplicity
 _atom_site_fract_x
 _atom_site_fract_y
 _atom_site_fract_z
 _atom_site_occupancy
  V  V0  1  0.37210378  0.74816741  0.12227406  1
  V  V1  1  0.75856341  0.25397316  0.51077022  1
  V  V2  1  0.36195071  0.62572550  0.75365363  1
  V  V3  1  0.37323259  0.11713128  0.24602581  1
  V  V4  1  0.62395688  0.87720172  0.24840248  1
  V  V5  1  -0.00913354  0.12804691  0.62932556  1
  V  V6  1  0.87124817  0.74986220  0.12000829  1
  V  V7  1  0.76774802  0.12375625  0.37094289  1
  V  V8  1  0.87106867  0.62847696  0.25581467  1
  V  V9  1  0.50254065  0.62291741  0.12195339  1
  V  V10  1  0.12826769  0.12745799  0.00553737  1
  V  V11  1  0.62167992  0.01385501  0.12384965  1
  V  V12  1  0.76136705  0.00418607  0.25089770  1
  V  V13  1  0.87058749  0.87482778  -0.00122822  1
  V  V14  1  -0.00053620  0.87594298  0.87331831  1
  V  V15  1  0.12400507  0.74106925  0.88082063  1
  V  V16  1  0.50299780  -0.00050194  0.50247046  1
  V  V17  1  0.25202266  0.11978857  0.88017784  1
  V  V18  1  0.13481241  0.37869159  0.75354568  1
  V  V19  1  0.73922443  0.12639828  0.88346726  1
  V  V20  1  0.62858912  0.87857766  0.74572994  1
  V  V21  1  0.74669486  0.87275855  0.11918134  1
  V  V22  1  0.24686876  0.49965234  0.24564593  1
  V  V23  1  0.37091028  0.87575509  -0.00248592  1
  V  V24  1  0.75064409  0.00886525  0.74315954  1
  V  V25  1  0.50040696  0.74937618  0.24999669  1
  V  V26  1  0.87756447  0.50460970  0.38260743  1
  V  V27  1  0.00092883  0.38239727  0.37991475  1
  V  V28  1  0.62865619  0.75152906  0.88097401  1
  V  V29  1  0.87822859  0.50064619  0.87696265  1
  V  V30  1  0.37975793  0.24247847  0.63208151  1
  V  V31  1  0.24379238  0.36289691  0.61959172  1
  V  V32  1  0.00168940  0.00065457  0.00156397  1
  V  V33  1  0.74791388  0.74778345  0.48909942  1
  V  V34  1  0.87635561  0.37177196  0.00083354  1
  V  V35  1  0.36910521  0.24389190  0.12236970  1
  V  V36  1  0.12725766  -0.00298567  0.13857952  1
  V  V37  1  0.74936882  0.62702859  0.87133637  1
  V  V38  1  0.12504036  0.75626823  0.37041219  1
  V  V39  1  -0.00174072  0.75177733  0.74720955  1
  V  V40  1  0.62631333  0.12181469  0.50597827  1
  V  V41  1  0.24890493  0.36972475  0.11771708  1
  V  V42  1  0.50086897  0.00500460  0.00535165  1
  V  V43  1  0.37207607  0.49785580  0.37636953  1
  V  V44  1  0.13655892  0.50431364  0.63033360  1
  V  V45  1  0.00225277  0.75393729  0.24751685  1
  V  V46  1  -0.00706447  0.24880909  0.25307679  1
  V  V47  1  0.12075639  0.62222172  0.49714425  1
  V  V48  1  0.12430195  0.00031206  0.62665844  1
  V  V49  1  0.36830630  0.36227351  0.49700214  1
  V  V50  1  0.24485924  0.87613481  0.13859441  1
  V  V51  1  0.13482512  0.24957985  0.88005239  1
  V  V52  1  0.87273384  0.62590374  0.74742744  1
  V  V53  1  0.62544947  0.24331670  0.37614956  1
  V  V54  1  0.87254654  0.75597657  0.62140817  1
  V  V55  1  0.49942524  0.24181991  0.24221418  1
  V  V56  1  0.12836251  0.25411172  0.38436477  1
  V  V57  1  0.00311373  0.37748682  0.87945931  1
  V  V58  1  0.12069525  0.50411530  0.10759566  1
  V  V59  1  0.12482610  0.37457225  0.24845245  1
  V  V60  1  0.62525448  0.37285352  0.24999344  1
  V  V61  1  -0.00826267  0.12384316  0.13111154  1
  V  V62  1  0.38327947  0.37464478  0.00028615  1
  V  V63  1  0.37620275  0.87450381  0.50118374  1
  V  V64  1  0.13054319  0.13039644  0.50530944  1
  V  V65  1  0.62743405  0.49885035  0.12490758  1
  V  V66  1  0.24907111  0.12748407  0.37163730  1
  V  V67  1  0.63572283  0.62385879  0.00056651  1
  V  V68  1  0.37626454  0.75291136  0.62675308  1
  V  V69  1  0.25430500  0.00008184  0.75453145  1
  V  V70  1  0.24898493  0.75007857  0.50108667  1
  V  V71  1  0.87375318  0.88703420  0.49461128  1
  V  V72  1  0.74892060  0.50424167  0.25706216  1
  V  V73  1  0.37729168  0.48864250  0.86540341  1
  V  V74  1  0.37436227  0.62217521  0.24703033  1
  V  V75  1  0.36805743  -0.00270826  0.37349974  1
  V  V76  1  -0.00790466  0.24596736  0.75246510  1
  V  V77  1  -0.00046733  0.88364934  0.37223877  1
  V  V78  1  -0.00128264  0.61829280  0.61995551  1
  V  V79  1  0.87668428  0.01112950  0.87207580  1
  V  V80  1  0.74423489  0.48881573  0.74202711  1
  V  V81  1  0.49736077  0.37126907  0.37417996  1
  V  V82  1  0.49745447  0.88100764  0.87771365  1
  V  V83  1  0.75228978  0.37660840  0.12422583  1
  V  V84  1  0.50195744  0.74649109  0.75218472  1
  Zn  Zn85  1  0.87288859  0.24749386  0.12876492  1
  Zn  Zn86  1  0.86744574  0.38458172  0.51210023  1
  Zn  Zn87  1  0.60409576  0.35860754  0.74616717  1
  Zn  Zn88  1  0.74588232  0.88114704  0.62063253  1
  Zn  Zn89  1  0.50488801  0.62472574  0.61996809  1
  Zn  Zn90  1  0.24801950  0.62579935  0.37269889  1
  Zn  Zn91  1  0.24606995  0.61603950  0.88388655  1
  Zn  Zn92  1  0.50027933  0.87590781  0.37362469  1
  Zn  Zn93  1  0.62292697  0.61788734  0.49288011  1
  Zn  Zn94  1  0.24861614  0.87665489  0.62823905  1
  Zn  Zn95  1  0.50469730  0.49643209  -0.00555270  1
  Zn  Zn96  1  0.74019541  0.24505688  0.00297331  1
  Zn  Zn97  1  0.38755195  0.12667247  0.77074306  1
  Zn  Zn98  1  0.49951714  0.50120803  0.49991586  1
  Zn  Zn99  1  0.12429111  0.87510849  0.74924922  1
  Zn  Zn100  1  0.60315691  0.25840896  0.87723505  1
  Zn  Zn101  1  0.24105571  0.74656450  0.00379007  1
  Zn  Zn102  1  0.62937327  0.74511367  0.36982738  1
  Zn  Zn103  1  -0.00161012  0.00567670  0.49739646  1
  Zn  Zn104  1  0.62051517  0.49308275  0.61831603  1
  Zn  Zn105  1  0.51107968  0.12705357  0.63374690  1
  Zn  Zn106  1  0.00767865  0.62746638  0.11414820  1
  Zn  Zn107  1  0.18459796  0.18662160  0.19250527  1
  Zn  Zn108  1  0.18744965  0.18896337  0.69493535  1
  Zn  Zn109  1  0.18587992  0.68515297  0.18471604  1
  Zn  Zn110  1  0.18505220  0.69264021  0.68880273  1
  Zn  Zn111  1  0.69204628  0.18924708  0.19032038  1
  Zn  Zn112  1  0.68812472  0.19243521  0.69144396  1
  Zn  Zn113  1  0.69065732  0.68701578  0.18997169  1
  Zn  Zn114  1  0.68572692  0.68464057  0.68148564  1
  Zn  Zn115  1  0.30998476  0.30937721  0.30758477  1
  Zn  Zn116  1  0.44018269  0.30675492  0.81347137  1
  Zn  Zn117  1  0.31327707  0.81076611  0.31291576  1
  Zn  Zn118  1  0.31021261  0.81557280  0.81295360  1
  Zn  Zn119  1  0.81364775  0.31609346  0.31878610  1
  Zn  Zn120  1  0.80942565  0.31104663  0.81377757  1
  Zn  Zn121  1  0.81545568  0.82030382  0.30959335  1
  Zn  Zn122  1  0.81149330  0.81475595  0.81124154  1
  Zn  Zn123  1  0.18653946  0.43968803  0.43936331  1
  Zn  Zn124  1  0.19828301  0.43433668  0.93568547  1
  Zn  Zn125  1  0.18687273  0.93864046  0.43973242  1
  Zn  Zn126  1  0.18502500  0.93549349  0.94215843  1
  Zn  Zn127  1  0.68707380  0.43359247  0.43780079  1
  Zn  Zn128  1  0.68554706  0.43154267  0.93327318  1
  Zn  Zn129  1  0.68836714  0.93849098  0.43281493  1
  Zn  Zn130  1  0.68557924  0.94224522  0.93676542  1
  Zn  Zn131  1  0.31135840  0.05617848  0.06213750  1
  Zn  Zn132  1  0.30759967  0.06130850  0.55934771  1
  Zn  Zn133  1  0.31051834  0.56125851  0.05515221  1
  Zn  Zn134  1  0.31547943  0.56468173  0.56184660  1
  Zn  Zn135  1  0.81230328  0.05847948  0.06233046  1
  Zn  Zn136  1  0.81115308  0.06758416  0.56079110  1
  Zn  Zn137  1  0.84427608  0.58015443  0.04443895  1
  Zn  Zn138  1  0.80806468  0.56814270  0.56309153  1
  Zn  Zn139  1  0.43877692  0.43482237  0.18550408  1
  Zn  Zn140  1  0.43456838  0.43937677  0.67920169  1
  Zn  Zn141  1  0.43523322  0.93662600  0.18521542  1
  Zn  Zn142  1  0.44601920  0.95225025  0.69664547  1
  Zn  Zn143  1  0.93861582  0.43969551  0.19056165  1
  Zn  Zn144  1  0.93755148  0.43773326  0.69408427  1
  Zn  Zn145  1  0.93931020  0.93534027  0.18732284  1
  Zn  Zn146  1  0.93540913  0.94126487  0.68662597  1
  Zn  Zn147  1  0.06311220  0.06652339  0.31270904  1
  Zn  Zn148  1  0.06567283  0.06422836  0.81253674  1
  Zn  Zn149  1  0.05995167  0.56807192  0.30674193  1
  Zn  Zn150  1  0.05933174  0.56200524  0.80936367  1
  Zn  Zn151  1  0.55973885  0.06107303  0.31408574  1
  Zn  Zn152  1  0.56356077  0.06840266  0.81305542  1
  Zn  Zn153  1  0.56240399  0.56386691  0.31805328  1
  Zn  Zn154  1  0.55918915  0.55637904  0.81009413  1
  Zn  Zn155  1  0.43869745  0.18490365  0.43796666  1
  Zn  Zn156  1  0.43525244  0.18241275  0.94933455  1
  Zn  Zn157  1  0.43917256  0.68550811  0.43357250  1
  Zn  Zn158  1  0.43801185  0.68519229  0.93782592  1
  Zn  Zn159  1  0.94328939  0.19092844  0.44202041  1
  Zn  Zn160  1  0.94099208  0.19132043  0.94128652  1
  Zn  Zn161  1  0.93696236  0.69361447  0.43685908  1
  Zn  Zn162  1  0.93919895  0.68981481  0.93863351  1
  Zn  Zn163  1  0.06117018  0.31133510  0.06317113  1
  Zn  Zn164  1  0.02838267  0.33498598  0.58282819  1
  Zn  Zn165  1  0.06058360  0.81550682  0.06224392  1
  Zn  Zn166  1  0.06028921  0.81462824  0.55949969  1
  Zn  Zn167  1  0.56440985  0.30515474  0.06090530  1
  Zn  Zn168  1  0.56177688  0.31753961  0.56405725  1
  Zn  Zn169  1  0.56206776  0.81204396  0.06179311  1
  Zn  Zn170  1  0.56203500  0.81323467  0.56313227  1
  O  O171  1  0.11951860  0.11804117  0.12162049  1
  O  O172  1  0.12370442  0.12062292  0.61920819  1
  O  O173  1  0.12432611  0.60942563  0.12293249  1
  O  O174  1  0.12014973  0.62290823  0.61956932  1
  O  O175  1  0.62860026  0.11191096  0.13076825  1
  O  O176  1  0.62840914  0.12718395  0.60934117  1
  O  O177  1  0.62560116  0.62062585  0.11752211  1
  O  O178  1  0.62447151  0.61948098  0.61473575  1
  O  O179  1  0.37357987  0.37802905  0.37879386  1
  O  O180  1  0.37445337  0.38203029  0.88436487  1
  O  O181  1  0.37434484  0.88263368  0.37959131  1
  O  O182  1  0.38554924  0.86761003  0.88469153  1
  O  O183  1  0.88555508  0.38584325  0.38023544  1
  O  O184  1  0.88309973  0.37972798  0.87993349  1
  O  O185  1  0.88630986  0.87396736  0.38239639  1
  O  O186  1  0.88355651  0.87933322  0.87981372  1
  O  O187  1  0.26053059  0.00689787  0.37979554  1
  O  O188  1  0.23372171  0.00767107  0.86653409  1
  O  O189  1  0.25751126  0.49985185  0.36468601  1
  O  O190  1  0.27010103  0.50079626  0.87783553  1
  O  O191  1  0.74673044  0.01557516  0.36552057  1
  O  O192  1  0.75877474  0.00896030  0.87155761  1
  O  O193  1  0.76051221  0.48927931  0.36213758  1
  O  O194  1  0.75686456  0.51120508  0.86377028  1
  O  O195  1  0.24072737  0.49222056  0.12931741  1
  O  O196  1  0.23955235  0.49484169  0.62058659  1
  O  O197  1  0.24186662  0.98430054  0.12262345  1
  O  O198  1  0.24148788  0.99934861  0.63261365  1
  O  O199  1  0.74586061  0.48773203  0.13812047  1
  O  O200  1  0.75543300  0.50400368  0.64040863  1
  O  O201  1  0.73943199  0.99495907  0.13096021  1
  O  O202  1  0.75571522  1.00151016  0.63961480  1
  O  O203  1  0.00737378  0.36943756  0.25699995  1
  O  O204  1  0.01091729  0.36638574  0.76325596  1
  O  O205  1  -0.00487222  0.86272911  0.25657265  1
  O  O206  1  -0.00178364  0.87002671  0.75767434  1
  O  O207  1  0.50531488  0.36537065  0.25443886  1
  O  O208  1  0.49100130  0.38505348  0.75619935  1
  O  O209  1  0.50666099  0.86703340  0.24696081  1
  O  O210  1  0.50656225  0.87096294  0.75946836  1
  O  O211  1  0.48749919  0.13184672  0.25560252  1
  O  O212  1  0.48664566  0.08343219  0.73585792  1
  O  O213  1  0.49453049  0.63111670  0.24183028  1
  O  O214  1  0.49381544  0.63943223  0.75265884  1
  O  O215  1  1.00425225  0.13506730  0.24269883  1
  O  O216  1  1.00455186  0.13730330  0.74674635  1
  O  O217  1  0.99035868  0.63745543  0.24135258  1
  O  O218  1  0.99192999  0.63302970  0.74112402  1
  O  O219  1  0.37678242  0.25475983  0.01723188  1
  O  O220  1  0.37201136  0.25916539  0.49996925  1
  O  O221  1  0.37972093  0.75988535  0.00933977  1
  O  O222  1  0.36813707  0.75388857  0.50607938  1
  O  O223  1  0.87185584  0.26181510  0.00344441  1
  O  O224  1  0.86022794  0.25113406  0.49195339  1
  O  O225  1  0.87478754  0.76081127  0.01206166  1
  O  O226  1  0.86640601  0.76138611  0.50387393  1
  O  O227  1  0.12027519  0.24429967  0.48697670  1
  O  O228  1  0.11854762  0.23882392  0.99452665  1
  O  O229  1  0.13187454  0.74363647  0.49459491  1
  O  O230  1  0.11663303  0.75094857  0.98412719  1
  O  O231  1  0.63344768  0.24273552  0.49118466  1
  O  O232  1  0.62791472  0.25126716  0.99084770  1
  O  O233  1  0.64173398  0.75994478  0.49782902  1
  O  O234  1  0.62364167  0.74377222  0.98746671  1
  O  O235  1  0.49086682  0.25221069  0.13785328  1
  O  O236  1  0.48316598  0.24392706  0.61635065  1
  O  O237  1  0.49493866  0.74426418  0.13316032  1
  O  O238  1  0.49288214  0.75015910  0.63505087  1
  O  O239  1  0.99952188  0.24155739  0.13478479  1
  O  O240  1  1.01552967  0.23958427  0.64577985  1
  O  O241  1  0.99172110  0.75171832  0.13127621  1
  O  O242  1  0.98966311  0.74633157  0.62701319  1
  O  O243  1  0.00746445  0.25797681  0.36942684  1
  O  O244  1  0.00913346  0.25483381  0.86853345  1
  O  O245  1  0.00677840  0.75898760  0.36730126  1
  O  O246  1  0.00398851  0.75578403  0.86956079  1
  O  O247  1  0.50599026  0.25231393  0.36650541  1
  O  O248  1  0.49140672  0.22324209  0.86505267  1
  O  O249  1  0.49535819  0.75418669  0.35810780  1
  O  O250  1  0.50862410  0.75842393  0.86960119  1
  O  O251  1  0.23721395  0.12302956  0.48905844  1
  O  O252  1  0.23504787  0.11495448  0.99728590  1
  O  O253  1  0.24441430  0.63696852  0.49757994  1
  O  O254  1  0.25474751  0.63540151  0.99573505  1
  O  O255  1  0.74484750  0.12952604  0.48662257  1
  O  O256  1  0.75627294  0.12337492  0.98725607  1
  O  O257  1  0.75340294  0.64623461  0.49913546  1
  O  O258  1  0.74250781  0.62082739  0.99083168  1
  O  O259  1  0.26154648  0.37481180  0.01295285  1
  O  O260  1  0.25440589  0.37777272  0.50878443  1
  O  O261  1  0.25676299  0.86856673  0.00567647  1
  O  O262  1  0.25525000  0.86397491  0.50217198  1
  O  O263  1  0.75763149  0.37472283  0.01043672  1
  O  O264  1  0.75222577  0.35827599  0.49686992  1
  O  O265  1  0.75396694  0.88309878  0.01110778  1
  O  O266  1  0.75733895  0.87300006  0.50081012  1
  O  O267  1  0.13646141  0.49653940  0.24814624  1
  O  O268  1  0.12186781  0.49287231  0.74181248  1
  O  O269  1  0.12305920  1.00299173  0.23759995  1
  O  O270  1  0.12977243  1.00065630  0.73877846  1
  O  O271  1  0.63199337  0.49394551  0.24734926  1
  O  O272  1  0.64075582  0.50479741  0.74911873  1
  O  O273  1  0.62871624  0.99448055  0.24099992  1
  O  O274  1  0.64252525  0.99137888  0.75914822  1
  O  O275  1  0.37894088  0.00929565  0.25638220  1
  O  O276  1  0.35599815  -0.00182807  0.75061309  1
  O  O277  1  0.36318041  0.50022102  0.25187588  1
  O  O278  1  0.37510513  0.51086555  0.75985285  1
  O  O279  1  0.86026857  -0.00346262  0.24247115  1
  O  O280  1  0.86116166  -0.00759575  0.76048334  1
  O  O281  1  0.86834309  0.51047267  0.25494462  1
  O  O282  1  0.87057221  0.50620302  0.75858013  1
  O  O283  1  0.12568781  0.37034403  0.36648985  1
  O  O284  1  0.12284461  0.37013941  0.87254555  1
  O  O285  1  0.11882235  0.86243847  0.38197887  1
  O  O286  1  0.10948509  0.86878058  0.87573926  1
  O  O287  1  0.62097486  0.36018845  0.36821926  1
  O  O288  1  0.63129623  0.37109735  0.86079272  1
  O  O289  1  0.62331693  0.87314342  0.35849086  1
  O  O290  1  0.62253914  0.86654494  0.86937383  1
  O  O291  1  0.36263708  0.13010784  0.13558265  1
  O  O292  1  0.36692098  0.14180756  0.61509868  1
  O  O293  1  0.38122794  0.62827332  0.12863806  1
  O  O294  1  0.37262763  0.63855980  0.63412358  1
  O  O295  1  0.88825847  0.12485287  0.12052877  1
  O  O296  1  0.89203300  0.12452252  0.61831728  1
  O  O297  1  0.86104494  0.64107162  0.14151108  1
  O  O298  1  0.88260906  0.63400834  0.62638283  1
  O  O299  1  0.25675377  0.25834634  0.13463801  1
  O  O300  1  0.25300376  0.25928662  0.62670979  1
  O  O301  1  0.25179732  0.76003544  0.12491259  1
  O  O302  1  0.25555981  0.75345786  0.61753070  1
  O  O303  1  0.75420486  0.26222337  0.12756687  1
  O  O304  1  0.75397425  0.23888061  0.60832109  1
  O  O305  1  0.75672240  0.76385476  0.13147882  1
  O  O306  1  0.76215724  0.75519644  0.61796947  1
  O  O307  1  0.24019608  0.24136663  0.36930053  1
  O  O308  1  0.23486486  0.23683608  0.87737797  1
  O  O309  1  0.24234214  0.74861888  0.38114755  1
  O  O310  1  0.22865049  0.75558146  0.87420813  1
  O  O311  1  0.74352311  0.23835646  0.37554264  1
  O  O312  1  0.76137507  0.22837450  0.87504400  1
  O  O313  1  0.75249082  0.75920695  0.38662663  1
  O  O314  1  0.74368034  0.73684044  0.86842701  1
  O  O315  1  0.00844307  0.12007397  0.00988034  1
  O  O316  1  0.01262881  0.12586085  0.50776604  1
  O  O317  1  -0.04609648  0.61423866  0.01652650  1
  O  O318  1  0.00887333  0.63586856  0.50826277  1
  O  O319  1  0.49003711  0.10341566  0.00883082  1
  O  O320  1  0.50970986  0.11739312  0.49980854  1
  O  O321  1  0.51504018  0.62568630  0.00729021  1
  O  O322  1  0.49884047  0.62214192  0.50076239  1
  O  O323  1  0.48644737  0.37402324  0.48895544  1
  O  O324  1  0.48658009  0.37654146  1.01108023  1
  O  O325  1  0.49462985  0.87900468  0.49433548  1
  O  O326  1  0.49354030  0.87783069  0.99512963  1
  O  O327  1  1.01678942  0.38123108  0.47863300  1
  O  O328  1  0.99347852  0.36941107  0.98775533  1
  O  O329  1  0.99133880  0.87711746  0.48999313  1
  O  O330  1  0.99260401  0.88199184  0.99322069  1
  O  O331  1  0.48358310  0.48984891  0.36712870  1
  O  O332  1  0.48174540  0.50984168  0.87989008  1
  O  O333  1  0.48564834  0.99917416  0.38199806  1
  O  O334  1  0.51126644  0.98543379  0.88784196  1
  O  O335  1  0.98946950  0.49469545  0.36232938  1
  O  O336  1  0.99087137  0.49040072  0.86938464  1
  O  O337  1  1.00954598  0.98718214  0.37544997  1
  O  O338  1  0.99534982  0.99276786  0.87703135  1
  O  O339  1  0.00639961  0.00544116  0.12320507  1
  O  O340  1  0.00798383  0.01028528  0.62627744  1
  O  O341  1  0.01960841  0.49652902  0.13073556  1
  O  O342  1  0.01188618  0.51671861  0.62933173  1
  O  O343  1  0.51527075  -0.00830338  0.12188043  1
  O  O344  1  0.49536286  -0.00261306  0.60424249  1
  O  O345  1  0.50967239  0.50707884  0.12571971  1
  O  O346  1  0.49620269  0.50802919  0.61756608  1
  O  O347  1  0.24545871  0.38163318  0.23902059  1
  O  O348  1  0.23457527  0.37549946  0.73648448  1
  O  O349  1  0.25162875  0.87223154  0.23704233  1
  O  O350  1  0.24310998  0.88365432  0.74952296  1
  O  O351  1  0.74485581  0.37912389  0.24567206  1
  O  O352  1  0.75954179  0.39001304  0.74936660  1
  O  O353  1  0.74260736  0.88418717  0.24216553  1
  O  O354  1  0.74366853  0.88413518  0.74939149  1
  O  O355  1  0.25715734  0.12598562  0.26302845  1
  O  O356  1  0.24857939  0.11704701  0.76324318  1
  O  O357  1  0.25557722  0.61585200  0.24890352  1
  O  O358  1  0.25972998  0.63384593  0.75551303  1
  O  O359  1  0.75004106  0.12013227  0.26279579  1
  O  O360  1  0.75027646  0.11187023  0.76089302  1
  O  O361  1  0.75601302  0.61506508  0.25225679  1
  O  O362  1  0.75722862  0.62216455  0.75457759  1
  O  O363  1  0.36632457  0.11915080  0.37024629  1
  O  O364  1  0.35499315  0.12244215  0.88506574  1
  O  O365  1  0.37122022  0.61459656  0.36498537  1
  O  O366  1  0.37277082  0.62299001  0.86597956  1
  O  O367  1  0.86574448  0.12687858  0.37822566  1
  O  O368  1  0.87977614  0.11230161  0.87967154  1
  O  O369  1  0.88208375  0.62169539  0.36357602  1
  O  O370  1  0.86797172  0.61920100  0.86820296  1
  O  O371  1  0.13163286  0.38068247  0.12831950  1
  O  O372  1  0.12667543  0.38559966  0.62935729  1
  O  O373  1  0.13626780  0.88061715  0.12150787  1
  O  O374  1  0.12373908  0.88596826  0.62507716  1
  O  O375  1  0.63236629  0.37872998  0.13167577  1
  O  O376  1  0.62067289  0.37860664  0.63364051  1
  O  O377  1  0.63175984  0.87751524  0.13269112  1
  O  O378  1  0.62576616  0.86986905  0.64219543  1
  O  O379  1  0.11552063  0.25587800  0.25899142  1
  O  O380  1  0.12045133  0.25867078  0.76283401  1
  O  O381  1  0.11561898  0.74344262  0.25867826  1
  O  O382  1  0.11419343  0.75366374  0.75873375  1
  O  O383  1  0.61649329  0.25072666  0.25511738  1
  O  O384  1  0.62421416  0.24446065  0.76167841  1
  O  O385  1  0.61686586  0.75819535  0.24688761  1
  O  O386  1  0.61896667  0.75454524  0.75954322  1
  O  O387  1  0.38057822  0.24031368  0.24265517  1
  O  O388  1  0.37305375  0.24072789  0.73479014  1
  O  O389  1  0.38051196  0.74384098  0.24201446  1
  O  O390  1  0.38102516  0.74721734  0.74528441  1
  O  O391  1  0.88927960  0.25818251  0.25080582  1
  O  O392  1  0.89396706  0.25548289  0.75513969  1
  O  O393  1  0.88011670  0.74652965  0.24498347  1
  O  O394  1  0.87846222  0.74727799  0.74038853  1
  O  O395  1  0.37010459  0.49099819  0.48788048  1
  O  O396  1  0.37960595  0.48932455  0.99406573  1
  O  O397  1  0.37773234  0.99305203  0.49259738  1
  O  O398  1  0.38331557  0.98248937  1.00922486  1
  O  O399  1  0.86681288  0.50521603  0.48568903  1
  O  O400  1  0.86444699  0.48455484  0.98254458  1
  O  O401  1  0.87729689  0.99060189  0.50316536  1
  O  O402  1  0.88187287  0.99287178  0.99295829  1
  O  O403  1  0.11689991  0.00569015  0.00991936  1
  O  O404  1  0.12393543  0.00908044  0.51116608  1
  O  O405  1  0.12794260  0.49281002  0.00970844  1
  O  O406  1  0.12981123  0.51770065  0.50532170  1
  O  O407  1  0.61854613  -0.00548683  0.01686027  1
  O  O408  1  0.61597016  0.00933513  0.48789333  1
  O  O409  1  0.62629542  0.50664646  0.00599528  1
  O  O410  1  0.62029782  0.49824784  0.49713571  1
  O  O411  1  0.36696792  0.36716521  0.12191636  1
  O  O412  1  0.36361650  0.36216682  0.61636100  1
  O  O413  1  0.36266851  0.86856271  0.12139257  1
  O  O414  1  0.37573797  0.86353784  0.62287416  1
  O  O415  1  0.87051920  0.37801759  0.11712430  1
  O  O416  1  0.92152691  0.37250426  0.60802731  1
  O  O417  1  0.86659332  0.86930391  0.12054175  1
  O  O418  1  0.87562996  0.86947630  0.61512505  1
  O  O419  1  0.13123804  0.13200543  0.38116643  1
  O  O420  1  0.12614880  0.13083821  0.88699772  1
  O  O421  1  0.12337773  0.63554780  0.38133906  1
  O  O422  1  0.12257880  0.63780240  0.86969533  1
  O  O423  1  0.62669920  0.13448927  0.37912517  1
  O  O424  1  0.63915238  0.11865245  0.88078354  1
  O  O425  1  0.62272930  0.63303225  0.37805437  1
  O  O426  1  0.63130445  0.62948480  0.88067443  1
