# generated using pymatgen
data_V85Zn86O256
_symmetry_space_group_name_H-M   'P 1'
_cell_length_a   16.94541131
_cell_length_b   16.96475441
_cell_length_c   16.95279785
_cell_angle_alpha   89.97313674
_cell_angle_beta   90.04108887
_cell_angle_gamma   89.99186742
_symmetry_Int_Tables_number   1
_chemical_formula_structural   V85Zn86O256
_chemical_formula_sum   'V85 Zn86 O256'
_cell_volume   4873.49933690
_cell_formula_units_Z   1
loop_
 _symmetry_equiv_pos_site_id
 _symmetry_equiv_pos_as_xyz
  1  'x, y, z'
loop_
 _atom_site_type_symbol
 _atom_site_label
 _atom_site_symmetry_multiplicity
 _atom_site_fract_x
 _atom_site_fract_y
 _atom_site_fract_z
 _atom_site_occupancy
  V  V0  1  0.23434464  0.49578986  0.74622166  1
  V  V1  1  0.49761574  0.12651741  0.12562573  1
  V  V2  1  0.74844953  0.38635037  0.62915690  1
  V  V3  1  0.62402331  0.00091717  0.12633046  1
  V  V4  1  0.38882766  0.12690552  0.74508466  1
  V  V5  1  0.62426807  0.87319266  0.25314915  1
  V  V6  1  0.24513497  0.62443397  0.87494405  1
  V  V7  1  0.62520491  0.86838928  0.75435611  1
  V  V8  1  0.37239701  0.37961166  0.49858615  1
  V  V9  1  0.00122774  0.88474656  0.87872741  1
  V  V10  1  0.00095268  0.75021874  0.75206956  1
  V  V11  1  0.50027692  0.62599199  0.11867846  1
  V  V12  1  0.38156162  0.61431580  0.25505097  1
  V  V13  1  0.00179684  0.12573263  0.62168243  1
  V  V14  1  0.11703124  -0.00420477  0.12317386  1
  V  V15  1  0.74975319  0.75341701  -0.01527181  1
  V  V16  1  0.24792322  0.13363330  0.86724585  1
  V  V17  1  0.61900912  0.24822851  0.86825114  1
  V  V18  1  0.50576844  0.49913978  -0.00567946  1
  V  V19  1  0.12308030  0.25127622  0.36572903  1
  V  V20  1  0.49522354  0.37149324  0.86516949  1
  V  V21  1  0.37428699  0.75159231  0.12572700  1
  V  V22  1  0.87760969  0.75116739  0.62113769  1
  V  V23  1  0.00038552  0.49909725  -0.00122446  1
  V  V24  1  0.87961222  0.25422787  0.12839228  1
  V  V25  1  0.50167776  0.50172468  0.51814168  1
  V  V26  1  0.50212548  0.86293255  0.87334273  1
  V  V27  1  0.62250298  0.12418012  0.51295157  1
  V  V28  1  0.62431916  0.63047967  -0.01303754  1
  V  V29  1  0.87894854  0.61236762  0.75532671  1
  V  V30  1  -0.00136402  0.37621449  0.36261507  1
  V  V31  1  0.00637254  0.61582094  0.62559243  1
  V  V32  1  0.38497052  0.24749870  0.63068053  1
  V  V33  1  0.25272750  0.00120903  0.74836839  1
  V  V34  1  0.37271896  0.25221068  0.12467823  1
  V  V35  1  0.73971799  0.37683938  0.13386753  1
  V  V36  1  0.24686118  0.75081591  0.00125490  1
  V  V37  1  0.37620367  0.74828149  0.62761273  1
  V  V38  1  0.23859841  0.50083974  0.25136328  1
  V  V39  1  0.24501721  0.87592237  0.12939710  1
  V  V40  1  0.87624042  0.25003822  0.62395316  1
  V  V41  1  0.37458737  0.37490229  -0.00099209  1
  V  V42  1  0.12988286  0.12287758  0.48931480  1
  V  V43  1  0.50360728  0.00544396  0.51073401  1
  V  V44  1  0.49674393  -0.00013496  -0.00306095  1
  V  V45  1  0.74398270  0.00220410  0.74697695  1
  V  V46  1  0.24397506  0.24921404  -0.00221938  1
  V  V47  1  0.23607726  0.37554263  0.62657408  1
  V  V48  1  0.62948764  0.37908257  0.74799857  1
  V  V49  1  -0.00211345  0.74655695  0.25123902  1
  V  V50  1  0.75404343  0.60847489  0.86803675  1
  V  V51  1  0.74846204  0.24977859  0.50029153  1
  V  V52  1  0.12485119  0.87727772  0.74933581  1
  V  V53  1  0.12847480  0.61742924  0.50127420  1
  V  V54  1  0.50088709  0.25623133  0.25168516  1
  V  V55  1  0.37271313  0.00528268  0.37555666  1
  V  V56  1  0.62254922  0.25230785  0.37359127  1
  V  V57  1  0.74992393  0.87645445  0.12235366  1
  V  V58  1  0.87517961  0.37895707  -0.01011674  1
  V  V59  1  0.74994435  0.25229471  -0.00048378  1
  V  V60  1  0.00018422  -0.00252622  0.49535543  1
  V  V61  1  0.00181151  0.12915809  0.12556502  1
  V  V62  1  0.37255074  0.49758615  0.87323980  1
  V  V63  1  0.85932201  0.49985832  0.36265674  1
  V  V64  1  0.36837647  0.12658286  0.25279058  1
  V  V65  1  0.87660014  0.12475103  0.75013971  1
  V  V66  1  0.37311261  0.87631354  0.50108884  1
  V  V67  1  0.24503410  0.38017913  0.12438743  1
  V  V68  1  0.87268838  0.73959198  0.12617351  1
  V  V69  1  0.74542183  0.87980363  0.62135810  1
  V  V70  1  0.50255442  0.87458575  0.37467212  1
  V  V71  1  0.49818584  0.38514427  0.37791456  1
  V  V72  1  0.37732403  0.62584618  0.74842025  1
  V  V73  1  0.62347239  0.12623935  0.00077996  1
  V  V74  1  0.87632726  0.12658470  0.25059453  1
  V  V75  1  0.87272983  0.87387615  0.49685314  1
  V  V76  1  0.25190314  0.24735788  0.49245936  1
  V  V77  1  0.12639066  0.75278097  0.37071368  1
  V  V78  1  0.25310475  0.74918718  0.49960575  1
  V  V79  1  0.11941035  0.12087811  -0.00596133  1
  V  V80  1  0.87992983  0.88148629  0.00169366  1
  V  V81  1  0.12338570  0.62251567  0.01411138  1
  V  V82  1  0.75097197  0.12496430  0.87540724  1
  V  V83  1  0.24301565  -0.00052020  0.25336459  1
  V  V84  1  0.87608848  0.37900436  0.49943809  1
  Zn  Zn85  1  -0.00307435  0.61540441  0.13462728  1
  Zn  Zn86  1  0.24835964  0.87500063  0.62579704  1
  Zn  Zn87  1  0.87849278  0.00360037  0.87984693  1
  Zn  Zn88  1  0.37261004  0.87708537  -0.00276735  1
  Zn  Zn89  1  0.01897649  0.24891056  0.76185410  1
  Zn  Zn90  1  0.87423944  0.00270190  0.37213007  1
  Zn  Zn91  1  0.53836886  0.71020508  0.70615736  1
  Zn  Zn92  1  0.61925090  0.60920080  0.55330930  1
  Zn  Zn93  1  0.80548890  0.65446207  0.29946744  1
  Zn  Zn94  1  0.37523735  0.00038623  0.87339731  1
  Zn  Zn95  1  0.74990883  0.00304820  0.25146328  1
  Zn  Zn96  1  0.49890728  0.74948773  0.25343309  1
  Zn  Zn97  1  0.00453208  0.87712887  0.36584998  1
  Zn  Zn98  1  0.74607394  0.12383881  0.37291594  1
  Zn  Zn99  1  0.01181021  0.37416430  0.86541871  1
  Zn  Zn100  1  0.70545881  0.70323715  0.45294719  1
  Zn  Zn101  1  0.00444168  0.49784746  0.49797413  1
  Zn  Zn102  1  0.66589960  0.53155838  0.16512875  1
  Zn  Zn103  1  0.25960098  0.62053066  0.37867265  1
  Zn  Zn104  1  0.11584744  0.37441311  0.23971525  1
  Zn  Zn105  1  0.12680353  -0.00114665  0.62070970  1
  Zn  Zn106  1  0.12327839  0.75123115  0.87876179  1
  Zn  Zn107  1  0.18737647  0.18571525  0.18509691  1
  Zn  Zn108  1  0.19466147  0.18266549  0.67376223  1
  Zn  Zn109  1  0.18873756  0.68802172  0.19304947  1
  Zn  Zn110  1  0.18856841  0.68755330  0.68763684  1
  Zn  Zn111  1  0.68802286  0.19159967  0.18849071  1
  Zn  Zn112  1  0.68809067  0.19241859  0.68736283  1
  Zn  Zn113  1  0.68117361  0.69912775  0.17738395  1
  Zn  Zn114  1  0.71089320  0.67478939  0.66595342  1
  Zn  Zn115  1  0.31254062  0.31792288  0.31241337  1
  Zn  Zn116  1  0.17767675  0.30996431  0.80872919  1
  Zn  Zn117  1  0.31462381  0.81245620  0.31305282  1
  Zn  Zn118  1  0.31393664  0.81277815  0.81446683  1
  Zn  Zn119  1  0.81177953  0.31232679  0.31168387  1
  Zn  Zn120  1  0.81663150  0.30955305  0.81015868  1
  Zn  Zn121  1  0.81235064  0.82166068  0.31305664  1
  Zn  Zn122  1  0.81749909  0.81512362  0.80837099  1
  Zn  Zn123  1  0.18961142  0.43645154  0.43086800  1
  Zn  Zn124  1  0.18600825  0.44400832  0.94334236  1
  Zn  Zn125  1  0.18796754  0.93495721  0.43417890  1
  Zn  Zn126  1  0.18901786  0.94054641  0.93654277  1
  Zn  Zn127  1  0.68137090  0.43750931  0.44412392  1
  Zn  Zn128  1  0.68461399  0.43641197  0.93651479  1
  Zn  Zn129  1  0.68863568  0.94124006  0.43618121  1
  Zn  Zn130  1  0.68707636  0.93971156  0.93506871  1
  Zn  Zn131  1  0.30966123  0.06285206  0.06235933  1
  Zn  Zn132  1  0.31273029  0.06420606  0.56278449  1
  Zn  Zn133  1  0.31363900  0.56090172  0.06457851  1
  Zn  Zn134  1  0.31543757  0.56094446  0.56489729  1
  Zn  Zn135  1  0.81326857  0.06358452  0.06543383  1
  Zn  Zn136  1  0.81213805  0.06180844  0.56006863  1
  Zn  Zn137  1  0.81333191  0.55995408  0.05250760  1
  Zn  Zn138  1  0.81661264  0.56280444  0.56155427  1
  Zn  Zn139  1  0.48861806  0.46755021  0.21481143  1
  Zn  Zn140  1  0.42607621  0.42998097  0.69161291  1
  Zn  Zn141  1  0.43506415  0.93798804  0.18672746  1
  Zn  Zn142  1  0.43681794  0.93314376  0.68877401  1
  Zn  Zn143  1  0.93095207  0.43952114  0.18222745  1
  Zn  Zn144  1  0.94439946  0.43306344  0.68824848  1
  Zn  Zn145  1  0.93792210  0.93490909  0.18850101  1
  Zn  Zn146  1  0.93718174  0.94121340  0.68581936  1
  Zn  Zn147  1  0.05977495  0.06420012  0.30946523  1
  Zn  Zn148  1  0.06507221  0.06641134  0.80858719  1
  Zn  Zn149  1  0.05838901  0.56633889  0.31823126  1
  Zn  Zn150  1  0.06079606  0.55964595  0.81985400  1
  Zn  Zn151  1  0.56063602  0.06505872  0.31621752  1
  Zn  Zn152  1  0.56485660  0.05778075  0.81260915  1
  Zn  Zn153  1  0.62882502  0.56738420  0.31588678  1
  Zn  Zn154  1  0.58477451  0.57760789  0.78005719  1
  Zn  Zn155  1  0.43709009  0.18800183  0.43906709  1
  Zn  Zn156  1  0.43255498  0.18729758  0.93340737  1
  Zn  Zn157  1  0.52952652  0.68438236  0.43555623  1
  Zn  Zn158  1  0.43159185  0.68778199  0.93481417  1
  Zn  Zn159  1  0.94065286  0.19103937  0.43488549  1
  Zn  Zn160  1  0.94024881  0.19051509  0.93871941  1
  Zn  Zn161  1  0.93579278  0.68513112  0.43637449  1
  Zn  Zn162  1  0.93766299  0.69005590  0.93835375  1
  Zn  Zn163  1  0.06239136  0.31183955  0.05425498  1
  Zn  Zn164  1  0.06051870  0.30851290  0.55474534  1
  Zn  Zn165  1  0.06006128  0.80976949  0.06599265  1
  Zn  Zn166  1  0.06443702  0.80931206  0.56168073  1
  Zn  Zn167  1  0.56123377  0.31238538  0.05991320  1
  Zn  Zn168  1  0.56303126  0.31522141  0.56327938  1
  Zn  Zn169  1  0.56370007  0.81250557  0.05786301  1
  Zn  Zn170  1  0.56506865  0.82099681  0.56176918  1
  O  O171  1  0.11869508  0.11884539  0.11822846  1
  O  O172  1  0.11742916  0.12230145  0.60693164  1
  O  O173  1  0.12351678  0.63034387  0.11621277  1
  O  O174  1  0.11730743  0.63276688  0.61550389  1
  O  O175  1  0.61747819  0.12195070  0.12067341  1
  O  O176  1  0.62707441  0.13071714  0.61252957  1
  O  O177  1  0.61469161  0.62664364  0.10753487  1
  O  O178  1  0.60832849  0.62556243  0.67142725  1
  O  O179  1  0.38366747  0.36506209  0.38887075  1
  O  O180  1  0.38354480  0.38010670  0.88268110  1
  O  O181  1  0.37923059  0.88729742  0.38017839  1
  O  O182  1  0.38502918  0.87980877  0.87610339  1
  O  O183  1  0.87915339  0.38087751  0.37972796  1
  O  O184  1  0.87105259  0.36962502  0.88883969  1
  O  O185  1  0.88036304  0.87842162  0.38883857  1
  O  O186  1  0.88380382  0.87809083  0.88261197  1
  O  O187  1  0.25795765  -0.00495237  0.36400438  1
  O  O188  1  0.25196760  0.00929852  0.86351042  1
  O  O189  1  0.25405739  0.50073706  0.35655305  1
  O  O190  1  0.25379413  0.50679661  0.86838557  1
  O  O191  1  0.75528927  0.00649089  0.37082874  1
  O  O192  1  0.75362183  0.00896979  0.86773450  1
  O  O193  1  0.75851411  0.49156372  0.37777573  1
  O  O194  1  0.75445440  0.51053826  0.87911038  1
  O  O195  1  0.25525669  0.49106647  0.13658941  1
  O  O196  1  0.25435069  0.48393809  0.63139429  1
  O  O197  1  0.24236294  0.99393180  0.13166652  1
  O  O198  1  0.24790727  0.99940929  0.63617698  1
  O  O199  1  0.75204791  0.48208063  0.11244352  1
  O  O200  1  0.75604937  0.48478582  0.62601607  1
  O  O201  1  0.74056004  0.99478140  0.12503961  1
  O  O202  1  0.75836152  0.99033500  0.63380011  1
  O  O203  1  -0.00179504  0.37832520  0.25772719  1
  O  O204  1  -0.00520207  0.36039545  0.75032592  1
  O  O205  1  -0.00833965  0.85591012  0.25100442  1
  O  O206  1  0.00578540  0.87074168  0.75479641  1
  O  O207  1  0.48682685  0.36054338  0.26089181  1
  O  O208  1  0.50389655  0.37471753  0.76157313  1
  O  O209  1  0.50465089  0.87815478  0.25714897  1
  O  O210  1  0.51118878  0.88406286  0.76076234  1
  O  O211  1  0.48842115  0.13365947  0.24567978  1
  O  O212  1  0.48798491  0.11943117  0.75524719  1
  O  O213  1  0.49001083  0.63152618  0.23390450  1
  O  O214  1  0.48000936  0.62808259  0.76945154  1
  O  O215  1  0.99362755  0.12412017  0.23453759  1
  O  O216  1  0.99279989  0.12448589  0.73894320  1
  O  O217  1  1.00068709  0.63699381  0.24880392  1
  O  O218  1  0.99969224  0.63272314  0.74683248  1
  O  O219  1  0.36318306  0.25235252  0.00373372  1
  O  O220  1  0.36734861  0.25337370  0.50584332  1
  O  O221  1  0.36471114  0.75030565  0.01028059  1
  O  O222  1  0.36129245  0.75571225  0.50777981  1
  O  O223  1  0.86573424  0.25336188  0.00962218  1
  O  O224  1  0.86770104  0.25911880  0.50046221  1
  O  O225  1  0.86833304  0.76067413  0.00517407  1
  O  O226  1  0.88611777  0.76012815  0.51115924  1
  O  O227  1  0.13213645  0.24181785  0.48886054  1
  O  O228  1  0.13762011  0.23703895  1.00583876  1
  O  O229  1  0.13677175  0.74271317  0.49600560  1
  O  O230  1  0.12987225  0.74224360  0.99929754  1
  O  O231  1  0.63095170  0.24367548  0.49600179  1
  O  O232  1  0.63130832  0.24440857  0.99240363  1
  O  O233  1  0.60769049  0.73139915  0.51273740  1
  O  O234  1  0.63440663  0.73914760  0.99918950  1
  O  O235  1  0.49340239  0.24772987  0.13224794  1
  O  O236  1  0.48360188  0.25294919  0.61921323  1
  O  O237  1  0.49055932  0.74215005  0.11803510  1
  O  O238  1  0.48069100  0.76454104  0.62571359  1
  O  O239  1  0.99109791  0.24298279  0.11865795  1
  O  O240  1  0.99403253  0.23558771  0.61669348  1
  O  O241  1  0.98880400  0.74607065  0.13144714  1
  O  O242  1  0.99512809  0.74548450  0.63343072  1
  O  O243  1  0.01074353  0.26253100  0.37884590  1
  O  O244  1  -0.00106656  0.25762365  0.87577878  1
  O  O245  1  0.00716244  0.74918756  0.36900741  1
  O  O246  1  0.00206707  0.76062509  0.86737776  1
  O  O247  1  0.50470663  0.25378331  0.36934043  1
  O  O248  1  0.50802839  0.25952784  0.88480568  1
  O  O249  1  0.48918080  0.77018174  0.37212256  1
  O  O250  1  0.49736304  0.76331352  0.87964525  1
  O  O251  1  0.24113888  0.13287460  0.50043959  1
  O  O252  1  0.24495900  0.13110418  0.99144254  1
  O  O253  1  0.24740615  0.63035558  0.49867152  1
  O  O254  1  0.24209424  0.62810573  0.99591634  1
  O  O255  1  0.74313392  0.13270622  0.49765898  1
  O  O256  1  0.74608732  0.13516299  0.99771677  1
  O  O257  1  0.73458327  0.63713320  0.54900000  1
  O  O258  1  0.74523786  0.63163172  0.98614369  1
  O  O259  1  0.25352539  0.36789477  0.00529951  1
  O  O260  1  0.25551809  0.37051747  0.50448180  1
  O  O261  1  0.25035045  0.87006785  0.00900285  1
  O  O262  1  0.25538193  0.86835158  0.50144130  1
  O  O263  1  0.75367979  0.36401741  0.00122676  1
  O  O264  1  0.75471068  0.36713804  0.50742352  1
  O  O265  1  0.75463188  0.86965035  0.00164305  1
  O  O266  1  0.75866367  0.88040602  0.50906972  1
  O  O267  1  0.13650026  0.50123334  0.25115082  1
  O  O268  1  0.13571719  0.50927621  0.74876295  1
  O  O269  1  0.13689372  1.00687026  0.24265377  1
  O  O270  1  0.13270673  0.99387305  0.74624644  1
  O  O271  1  0.59580386  0.49296009  0.24299188  1
  O  O272  1  0.62962575  0.47717844  0.76178314  1
  O  O273  1  0.62129836  0.99480070  0.24101660  1
  O  O274  1  0.63947706  0.99636613  0.75137197  1
  O  O275  1  0.36784294  0.00743001  0.25542209  1
  O  O276  1  0.36834546  0.00767994  0.74864779  1
  O  O277  1  0.38051875  0.51250564  0.24340795  1
  O  O278  1  0.36432216  0.50580928  0.75653170  1
  O  O279  1  0.87432989  0.01159463  0.24763279  1
  O  O280  1  0.86743126  0.01133407  0.75076006  1
  O  O281  1  0.87038485  0.49606791  0.26329973  1
  O  O282  1  0.88362146  0.51403368  0.74619152  1
  O  O283  1  0.11574810  0.36937185  0.37020090  1
  O  O284  1  0.12741771  0.38063199  0.87579889  1
  O  O285  1  0.12211748  0.85791391  0.38142138  1
  O  O286  1  0.11979731  0.87549744  0.86579506  1
  O  O287  1  0.61426032  0.35998341  0.38522499  1
  O  O288  1  0.61760027  0.36447850  0.87290425  1
  O  O289  1  0.61610487  0.88282220  0.36536260  1
  O  O290  1  0.61495481  0.88210562  0.86756631  1
  O  O291  1  0.37932538  0.13097756  0.13157035  1
  O  O292  1  0.37006692  0.13745581  0.63018938  1
  O  O293  1  0.37959475  0.63446510  0.12666627  1
  O  O294  1  0.36941814  0.63333860  0.63733943  1
  O  O295  1  0.88231272  0.13218666  0.12934253  1
  O  O296  1  0.88230836  0.12810780  0.62893417  1
  O  O297  1  0.87173068  0.63717879  0.11518958  1
  O  O298  1  0.88649226  0.63524822  0.63331323  1
  O  O299  1  0.25550514  0.25256495  0.11722856  1
  O  O300  1  0.25537044  0.25903720  0.61059245  1
  O  O301  1  0.25377770  0.75831611  0.12295601  1
  O  O302  1  0.25584806  0.75246248  0.61741629  1
  O  O303  1  0.75521556  0.25711295  0.11636458  1
  O  O304  1  0.75779602  0.25203140  0.61263239  1
  O  O305  1  0.75584106  0.75866117  0.11193427  1
  O  O306  1  0.77194363  0.76875401  0.63974331  1
  O  O307  1  0.24288543  0.25805204  0.38602460  1
  O  O308  1  0.24989383  0.23849020  0.88222294  1
  O  O309  1  0.24601614  0.74692324  0.38109446  1
  O  O310  1  0.24806457  0.74226941  0.88297969  1
  O  O311  1  0.74247634  0.25098325  0.38476213  1
  O  O312  1  0.74293727  0.24383550  0.88239741  1
  O  O313  1  0.77477347  0.73687709  0.37436285  1
  O  O314  1  0.75679102  0.75026687  0.88354080  1
  O  O315  1  0.00835469  0.12430322  0.01084771  1
  O  O316  1  0.00377253  0.11468974  0.50205432  1
  O  O317  1  0.00723240  0.61803086  -0.00014223  1
  O  O318  1  0.01013148  0.62510461  0.50877531  1
  O  O319  1  0.50228684  0.11986803  0.00542960  1
  O  O320  1  0.50560817  0.11302949  0.49639125  1
  O  O321  1  0.50720461  0.62155780  -0.00484192  1
  O  O322  1  0.48892803  0.60260669  0.50851637  1
  O  O323  1  0.49051646  0.37743854  0.49678001  1
  O  O324  1  0.49616460  0.38350812  0.99559183  1
  O  O325  1  0.49506301  0.88830767  0.49319162  1
  O  O326  1  0.49948553  0.88405663  0.99259777  1
  O  O327  1  0.99035071  0.37663967  0.49187779  1
  O  O328  1  0.99180435  0.38466494  1.00119184  1
  O  O329  1  0.99698345  0.88718351  0.50268655  1
  O  O330  1  0.99220721  0.86965419  0.99116098  1
  O  O331  1  0.50034484  0.48420958  0.38783118  1
  O  O332  1  0.49260895  0.49071368  0.88376481  1
  O  O333  1  0.49069645  0.99348308  0.38033801  1
  O  O334  1  0.49948902  0.99828117  0.88841269  1
  O  O335  1  0.99184040  0.49032451  0.37802095  1
  O  O336  1  1.00001262  0.49644544  0.89173952  1
  O  O337  1  0.99798935  0.99683574  0.38085821  1
  O  O338  1  0.99906942  0.98839961  0.86843937  1
  O  O339  1  0.01297068  0.00426782  0.12956355  1
  O  O340  1  0.00212872  0.01103151  0.61658073  1
  O  O341  1  -0.00748347  0.50269386  0.10976558  1
  O  O342  1  -0.00305448  0.51300187  0.62018871  1
  O  O343  1  0.50334225  0.00465993  0.11500482  1
  O  O344  1  0.49399513  -0.00323290  0.60861706  1
  O  O345  1  0.49044900  0.51723779  0.10582784  1
  O  O346  1  0.49131330  0.48718989  0.61655380  1
  O  O347  1  0.24978195  0.38753959  0.24287007  1
  O  O348  1  0.24508522  0.37954726  0.73415428  1
  O  O349  1  0.25578304  0.88450356  0.23787111  1
  O  O350  1  0.24171854  0.88295159  0.75225687  1
  O  O351  1  0.75042386  0.36967465  0.23277659  1
  O  O352  1  0.74321154  0.36278621  0.73984804  1
  O  O353  1  0.74110125  0.87970822  0.24206900  1
  O  O354  1  0.74675047  0.88541707  0.74689135  1
  O  O355  1  0.26186074  0.11636079  0.24393165  1
  O  O356  1  0.25808259  0.11757473  0.75343821  1
  O  O357  1  0.26207695  0.61206521  0.24477841  1
  O  O358  1  0.25400344  0.61876814  0.75821752  1
  O  O359  1  0.76076654  0.12575739  0.24904132  1
  O  O360  1  0.75537717  0.12005801  0.75327903  1
  O  O361  1  0.71931648  0.61235118  0.23953042  1
  O  O362  1  0.76429821  0.62801756  0.76172659  1
  O  O363  1  0.37877019  0.11410131  0.36738100  1
  O  O364  1  0.36530839  0.12442829  0.86357450  1
  O  O365  1  0.37740159  0.63027041  0.35284730  1
  O  O366  1  0.35990584  0.61933233  0.87349083  1
  O  O367  1  0.87847950  0.13033595  0.35907453  1
  O  O368  1  0.86991996  0.12379865  0.86769891  1
  O  O369  1  0.87604385  0.60394888  0.37942151  1
  O  O370  1  0.86515016  0.63049488  0.86857753  1
  O  O371  1  0.13950639  0.36578392  0.12464081  1
  O  O372  1  0.13766454  0.37019333  0.61353360  1
  O  O373  1  0.13275720  0.88330188  0.12087197  1
  O  O374  1  0.12533781  0.87618221  0.63758625  1
  O  O375  1  0.63987752  0.36871447  0.11947174  1
  O  O376  1  0.63589859  0.36394672  0.63594495  1
  O  O377  1  0.62863723  0.88316668  0.12766955  1
  O  O378  1  0.63859727  0.87605402  0.63278568  1
  O  O379  1  0.13378539  0.25105015  0.26236612  1
  O  O380  1  0.13082341  0.22722853  0.75158935  1
  O  O381  1  0.11721007  0.74617262  0.26012278  1
  O  O382  1  0.11643701  0.75766189  0.75241944  1
  O  O383  1  0.61245725  0.24450120  0.25909304  1
  O  O384  1  0.62619305  0.25262401  0.76429052  1
  O  O385  1  0.61619941  0.76956393  0.24080370  1
  O  O386  1  0.63029987  0.76792021  0.75073268  1
  O  O387  1  0.37634790  0.24247862  0.24593205  1
  O  O388  1  0.37223232  0.24047388  0.73298914  1
  O  O389  1  0.37402966  0.74431178  0.23640608  1
  O  O390  1  0.36393104  0.74013326  0.74079770  1
  O  O391  1  0.87082738  0.24436835  0.23573103  1
  O  O392  1  0.87076304  0.23396580  0.74072001  1
  O  O393  1  0.87464033  0.74400674  0.24047641  1
  O  O394  1  0.89005294  0.74769780  0.74509369  1
  O  O395  1  0.37862082  0.48449911  0.50419675  1
  O  O396  1  0.37867353  0.49520520  0.99176532  1
  O  O397  1  0.38118841  0.99970354  0.49253587  1
  O  O398  1  0.38289679  0.99978253  0.99890080  1
  O  O399  1  0.87450372  0.48764693  0.49499071  1
  O  O400  1  0.88478466  0.49022230  0.99801501  1
  O  O401  1  0.88424345  0.99393224  0.49782744  1
  O  O402  1  0.87011017  0.98605738  1.00104074  1
  O  O403  1  0.13255451  0.01044231  0.01101146  1
  O  O404  1  0.11979101  0.00596586  0.49714239  1
  O  O405  1  0.11361150  0.50998664  0.00435259  1
  O  O406  1  0.12780636  0.51388429  0.49236351  1
  O  O407  1  0.61830692  0.00720522  0.00704195  1
  O  O408  1  0.61138965  0.00840701  0.49608485  1
  O  O409  1  0.61628056  0.51268864  -0.00790824  1
  O  O410  1  0.60804155  0.49627363  0.51112266  1
  O  O411  1  0.36150760  0.36460286  0.11565049  1
  O  O412  1  0.36426925  0.36165914  0.61871559  1
  O  O413  1  0.36752240  0.86816120  0.12171940  1
  O  O414  1  0.36868165  0.87006016  0.61843842  1
  O  O415  1  0.86581149  0.36724525  0.11469423  1
  O  O416  1  0.87033307  0.36824035  0.61605026  1
  O  O417  1  0.86918357  0.86820495  0.11805194  1
  O  O418  1  0.87392557  0.87220246  0.61498838  1
  O  O419  1  0.11762381  0.13332830  0.38272461  1
  O  O420  1  0.13314036  0.11596336  0.88643081  1
  O  O421  1  0.13013813  0.63512752  0.38414336  1
  O  O422  1  0.13531134  0.62624810  0.88376005  1
  O  O423  1  0.62368502  0.13744162  0.38366817  1
  O  O424  1  0.62941122  0.13027357  0.88140707  1
  O  O425  1  0.62447031  0.63219083  0.39980771  1
  O  O426  1  0.64362250  0.62495180  0.87288297  1
