# generated using pymatgen
data_V85Zn86O256
_symmetry_space_group_name_H-M   'P 1'
_cell_length_a   16.94126051
_cell_length_b   16.94976430
_cell_length_c   16.92979136
_cell_angle_alpha   89.92539817
_cell_angle_beta   89.96145812
_cell_angle_gamma   90.04275675
_symmetry_Int_Tables_number   1
_chemical_formula_structural   V85Zn86O256
_chemical_formula_sum   'V85 Zn86 O256'
_cell_volume   4861.38931876
_cell_formula_units_Z   1
loop_
 _symmetry_equiv_pos_site_id
 _symmetry_equiv_pos_as_xyz
  1  'x, y, z'
loop_
 _atom_site_type_symbol
 _atom_site_label
 _atom_site_symmetry_multiplicity
 _atom_site_fract_x
 _atom_site_fract_y
 _atom_site_fract_z
 _atom_site_occupancy
  V  V0  1  -0.00064745  0.12702539  0.64000037  1
  V  V1  1  0.25252790  0.62349660  0.37505186  1
  V  V2  1  0.62107768  0.87706539  0.24486308  1
  V  V3  1  0.37654096  0.25163748  0.12295547  1
  V  V4  1  0.74995468  0.12350539  0.87444486  1
  V  V5  1  0.87324421  0.49891977  0.87658165  1
  V  V6  1  0.75758671  0.74976247  0.00528259  1
  V  V7  1  0.25164601  0.24852895  0.50555037  1
  V  V8  1  0.49114013  0.73586376  0.24511660  1
  V  V9  1  0.12519304  0.63679534  -0.00681445  1
  V  V10  1  0.00120907  0.87533821  0.37598851  1
  V  V11  1  0.87424120  0.37134503  0.00179641  1
  V  V12  1  0.00216913  0.12671703  0.11527185  1
  V  V13  1  0.50154950  -0.00118623  0.50094144  1
  V  V14  1  0.11934131  0.50454489  0.12627292  1
  V  V15  1  0.74699145  0.49367096  0.74154015  1
  V  V16  1  0.50184121  0.37457170  0.86846172  1
  V  V17  1  0.87645848  0.12683482  0.25007755  1
  V  V18  1  0.12833231  0.88900590  0.74748526  1
  V  V19  1  0.87387339  0.62701238  0.74976100  1
  V  V20  1  0.01150433  0.74854501  0.75254987  1
  V  V21  1  0.13517698  0.00847703  0.12260269  1
  V  V22  1  0.75472157  -0.01185518  0.74867081  1
  V  V23  1  0.87189460  0.37500720  0.50478861  1
  V  V24  1  0.13594333  0.88172028  0.25294998  1
  V  V25  1  0.00235586  0.00084495  0.50864866  1
  V  V26  1  -0.00080756  0.62530361  0.62465078  1
  V  V27  1  0.49544939  0.62137233  0.63240960  1
  V  V28  1  0.25036900  0.37489185  0.12981095  1
  V  V29  1  0.12659690  0.38034837  0.24985439  1
  V  V30  1  0.87825304  0.00654952  0.87544741  1
  V  V31  1  0.62290879  0.75268591  0.37311352  1
  V  V32  1  0.24872152  0.50017458  0.75182862  1
  V  V33  1  0.25012399  0.12430936  0.37325844  1
  V  V34  1  0.62791031  0.38953603  0.24833267  1
  V  V35  1  0.86962484  0.62749180  0.24292350  1
  V  V36  1  0.00365798  0.87239489  0.87684350  1
  V  V37  1  0.50755510  0.75764252  0.74529223  1
  V  V38  1  0.37151538  -0.00032978  0.37223689  1
  V  V39  1  0.63271991  0.76234329  0.86902767  1
  V  V40  1  0.37349515  0.87456475  0.50189055  1
  V  V41  1  -0.00221719  0.37668723  0.37443407  1
  V  V42  1  0.49974380  0.37361315  0.37469026  1
  V  V43  1  0.12323706  0.12269612  0.50724219  1
  V  V44  1  0.25362121  0.87187864  0.11059633  1
  V  V45  1  0.37567755  0.50136538  0.86628213  1
  V  V46  1  0.49865099  0.49930879  0.50100908  1
  V  V47  1  0.37249403  0.74616874  0.63336019  1
  V  V48  1  0.37440862  0.12240327  0.24872633  1
  V  V49  1  0.00429588  0.37026385  0.86135117  1
  V  V50  1  0.87243773  0.87562292  0.50294485  1
  V  V51  1  0.36359642  0.11729475  0.74636747  1
  V  V52  1  0.61860637  0.23903566  0.87624953  1
  V  V53  1  -0.00294043  0.75382763  0.24252360  1
  V  V54  1  0.62590370  -0.01284378  0.63454369  1
  V  V55  1  0.24531004  0.88509604  0.62756695  1
  V  V56  1  0.87112863  0.75565037  0.62735797  1
  V  V57  1  0.36814354  0.49812440  0.37698043  1
  V  V58  1  0.76277565  0.87387593  0.12687884  1
  V  V59  1  0.75000236  0.00137307  0.24987961  1
  V  V60  1  0.74431630  0.38499776  0.12612810  1
  V  V61  1  0.87527287  0.00097917  0.37849661  1
  V  V62  1  0.50675123  0.12684961  0.10855882  1
  V  V63  1  0.75005605  0.25247487  0.50846317  1
  V  V64  1  0.87682587  0.24761334  0.63705808  1
  V  V65  1  0.62334220  0.62476589  0.50104537  1
  V  V66  1  -0.00012818  0.25042858  0.24826949  1
  V  V67  1  0.37733484  0.36775165  0.50789649  1
  V  V68  1  0.74992392  0.12587519  0.37680207  1
  V  V69  1  0.62649519  0.12435833  0.50588351  1
  V  V70  1  0.12193947  0.49602129  0.62997163  1
  V  V71  1  0.50488664  -0.02633682  -0.00083428  1
  V  V72  1  0.50891082  0.50571111  0.00522926  1
  V  V73  1  0.12296859  0.62422628  0.49943732  1
  V  V74  1  0.25071855  0.74880454  0.50191757  1
  V  V75  1  0.37266743  0.37910803  -0.00476099  1
  V  V76  1  0.24883735  0.63534418  0.87201916  1
  V  V77  1  0.74773399  0.75525755  0.50404406  1
  V  V78  1  0.50535211  0.24774060  0.25023886  1
  V  V79  1  0.24725860  0.11359737  0.89108335  1
  V  V80  1  0.74577755  0.62495078  0.87637271  1
  V  V81  1  0.12446769  0.25049276  0.37527123  1
  V  V82  1  0.24400579  0.36964501  0.62972937  1
  V  V83  1  0.86698727  0.50137752  0.37134015  1
  V  V84  1  0.30299491  0.55349629  0.20285284  1
  Zn  Zn85  1  0.62655670  0.25111472  0.37756598  1
  Zn  Zn86  1  0.74741228  0.62217156  0.37226105  1
  Zn  Zn87  1  -0.00066228  0.50123355  -0.00054600  1
  Zn  Zn88  1  0.63112940  0.00859880  0.11968716  1
  Zn  Zn89  1  0.62961540  0.36417778  0.74099910  1
  Zn  Zn90  1  0.12015061  0.24332161  0.87134826  1
  Zn  Zn91  1  0.74356810  0.24058541  0.00384764  1
  Zn  Zn92  1  0.00318379  0.00144402  -0.00047175  1
  Zn  Zn93  1  0.62802698  0.49264789  0.62093067  1
  Zn  Zn94  1  0.62817897  0.61811853  0.01476003  1
  Zn  Zn95  1  0.37154353  -0.01220106  0.87823057  1
  Zn  Zn96  1  0.88145948  0.87342851  0.00381142  1
  Zn  Zn97  1  0.37595668  0.76210783  0.11423083  1
  Zn  Zn98  1  0.49605609  0.87492354  0.37005962  1
  Zn  Zn99  1  0.87065490  0.24983341  0.12406934  1
  Zn  Zn100  1  -0.00376154  0.63111410  0.11963306  1
  Zn  Zn101  1  0.49831823  0.87149967  0.86966074  1
  Zn  Zn102  1  -0.00314187  0.50039974  0.49925346  1
  Zn  Zn103  1  0.49247911  0.12822663  0.62855709  1
  Zn  Zn104  1  0.48709539  0.24758593  0.74008242  1
  Zn  Zn105  1  0.12481139  0.74962814  0.37326869  1
  Zn  Zn106  1  0.23697852  0.24165929  0.00387006  1
  Zn  Zn107  1  0.18954652  0.18975128  0.18776852  1
  Zn  Zn108  1  0.18338195  0.17950897  0.69637395  1
  Zn  Zn109  1  0.18025142  0.69573727  0.18297051  1
  Zn  Zn110  1  0.18935120  0.68534834  0.68876629  1
  Zn  Zn111  1  0.68800701  0.19345969  0.18656310  1
  Zn  Zn112  1  0.68712383  0.18071792  0.69360573  1
  Zn  Zn113  1  0.69049259  0.68643781  0.18715499  1
  Zn  Zn114  1  0.68732736  0.68358820  0.68620342  1
  Zn  Zn115  1  0.31399867  0.31062071  0.31327721  1
  Zn  Zn116  1  0.27627481  0.28462168  0.79434308  1
  Zn  Zn117  1  0.31274349  0.81040876  0.31333977  1
  Zn  Zn118  1  0.31446254  0.81640931  0.81311948  1
  Zn  Zn119  1  0.80978779  0.31273067  0.31291800  1
  Zn  Zn120  1  0.80963068  0.31183996  0.81796631  1
  Zn  Zn121  1  0.81143205  0.81103729  0.31398134  1
  Zn  Zn122  1  0.81846823  0.81526590  0.81496723  1
  Zn  Zn123  1  0.18656154  0.43729196  0.44085928  1
  Zn  Zn124  1  0.18529233  0.43826341  0.94250053  1
  Zn  Zn125  1  0.18770512  0.93937485  0.44042487  1
  Zn  Zn126  1  0.18307902  0.93518774  0.93830350  1
  Zn  Zn127  1  0.68721876  0.43492982  0.43806833  1
  Zn  Zn128  1  0.68631218  0.43140041  0.93368836  1
  Zn  Zn129  1  0.68617398  0.93644417  0.43713464  1
  Zn  Zn130  1  0.68658492  0.93973005  0.94223776  1
  Zn  Zn131  1  0.32192279  0.05347963  0.06182379  1
  Zn  Zn132  1  0.31142003  0.06215490  0.56175432  1
  Zn  Zn133  1  0.34171751  0.60395694  0.02596641  1
  Zn  Zn134  1  0.31215733  0.56040734  0.56343713  1
  Zn  Zn135  1  0.81539588  0.06145729  0.05889753  1
  Zn  Zn136  1  0.81240447  0.06404664  0.57000592  1
  Zn  Zn137  1  0.81132538  0.56064636  0.06324839  1
  Zn  Zn138  1  0.81282485  0.56709589  0.55904289  1
  Zn  Zn139  1  0.44505247  0.43615521  0.18367775  1
  Zn  Zn140  1  0.43471436  0.43519603  0.68794163  1
  Zn  Zn141  1  0.43903061  0.94104713  0.18393789  1
  Zn  Zn142  1  0.43457241  0.94028387  0.68871745  1
  Zn  Zn143  1  0.93476023  0.44087041  0.18656892  1
  Zn  Zn144  1  0.93168711  0.43764780  0.68562011  1
  Zn  Zn145  1  0.94284610  0.94346232  0.18960709  1
  Zn  Zn146  1  0.93782972  0.93752966  0.69022641  1
  Zn  Zn147  1  0.06321511  0.06177140  0.31239035  1
  Zn  Zn148  1  0.06873278  0.06039586  0.81682560  1
  Zn  Zn149  1  0.05759675  0.56332786  0.31106384  1
  Zn  Zn150  1  0.06209175  0.55833218  0.81284212  1
  Zn  Zn151  1  0.56190186  0.06252135  0.31362943  1
  Zn  Zn152  1  0.55547422  0.06193698  0.81332808  1
  Zn  Zn153  1  0.55925278  0.56356007  0.31581573  1
  Zn  Zn154  1  0.56448416  0.56503788  0.81393754  1
  Zn  Zn155  1  0.43955919  0.18638466  0.44026611  1
  Zn  Zn156  1  0.42175935  0.19187234  0.92656160  1
  Zn  Zn157  1  0.43670052  0.68747886  0.43749526  1
  Zn  Zn158  1  0.44216128  0.69696964  0.93201463  1
  Zn  Zn159  1  0.93739587  0.18865708  0.44070037  1
  Zn  Zn160  1  0.93581995  0.19133914  0.93311695  1
  Zn  Zn161  1  0.93701798  0.68890290  0.43344377  1
  Zn  Zn162  1  0.93805303  0.68786192  0.93588690  1
  Zn  Zn163  1  0.06094585  0.31290343  0.05663557  1
  Zn  Zn164  1  0.05855780  0.31050887  0.56427775  1
  Zn  Zn165  1  0.06809273  0.81663823  0.06454148  1
  Zn  Zn166  1  0.06238309  0.81120136  0.56495792  1
  Zn  Zn167  1  0.56320409  0.31610534  0.05762245  1
  Zn  Zn168  1  0.56354148  0.30992348  0.57145536  1
  Zn  Zn169  1  0.58178038  0.77974169  0.07703026  1
  Zn  Zn170  1  0.56020460  0.81344873  0.56285654  1
  O  O171  1  0.12049928  0.11463675  0.13370129  1
  O  O172  1  0.11682813  0.13223304  0.61427775  1
  O  O173  1  0.12454823  0.62075781  0.11418168  1
  O  O174  1  0.11983092  0.61821171  0.61815090  1
  O  O175  1  0.60957959  0.12831998  0.12957425  1
  O  O176  1  0.62720360  0.11425803  0.61429217  1
  O  O177  1  0.61268476  0.66789631  0.11364225  1
  O  O178  1  0.61736238  0.62082016  0.61307405  1
  O  O179  1  0.37743795  0.38058083  0.38348712  1
  O  O180  1  0.38099969  0.38415859  0.88328152  1
  O  O181  1  0.37403283  0.88344640  0.38245109  1
  O  O182  1  0.38429128  0.87375337  0.87331435  1
  O  O183  1  0.87808613  0.38159997  0.38014663  1
  O  O184  1  0.87784918  0.38145477  0.88242484  1
  O  O185  1  0.88125507  0.88022795  0.38254562  1
  O  O186  1  0.88966945  0.88637142  0.87254565  1
  O  O187  1  0.26374033  0.00820012  0.38368714  1
  O  O188  1  0.25259409  0.00711138  0.88530980  1
  O  O189  1  0.25995585  0.50393935  0.37865238  1
  O  O190  1  0.25479306  0.49776426  0.86556256  1
  O  O191  1  0.75565840  0.00605911  0.37117960  1
  O  O192  1  0.75642856  0.00116045  0.86813402  1
  O  O193  1  0.76262714  0.50108040  0.37913832  1
  O  O194  1  0.75684664  0.50554863  0.86830518  1
  O  O195  1  0.24408128  0.49559928  0.13813514  1
  O  O196  1  0.24175377  0.49493989  0.63015619  1
  O  O197  1  0.24059378  0.99370013  0.12521142  1
  O  O198  1  0.24837602  0.98370956  0.61626221  1
  O  O199  1  0.74954901  0.48490240  0.12510288  1
  O  O200  1  0.75214193  0.50839388  0.63876496  1
  O  O201  1  0.74925113  0.99547243  0.13232632  1
  O  O202  1  0.74119480  1.00260216  0.63890826  1
  O  O203  1  0.00360449  0.36865202  0.25439065  1
  O  O204  1  -0.00740063  0.38003154  0.76302053  1
  O  O205  1  0.00526066  0.87141080  0.25743507  1
  O  O206  1  0.01078477  0.86854961  0.75191974  1
  O  O207  1  0.50682326  0.36769636  0.25389791  1
  O  O208  1  0.49558970  0.37042388  0.76004178  1
  O  O209  1  0.50960070  0.87602874  0.25106313  1
  O  O210  1  0.50209184  0.86022171  0.74152906  1
  O  O211  1  0.49272838  0.13253526  0.24726051  1
  O  O212  1  0.48650498  0.12581131  0.75019830  1
  O  O213  1  0.49884456  0.63711258  0.25323745  1
  O  O214  1  0.50550020  0.63121817  0.73595890  1
  O  O215  1  0.99611233  0.13277137  0.24517348  1
  O  O216  1  1.00889871  0.12099635  0.73890576  1
  O  O217  1  0.99138454  0.63709592  0.24940440  1
  O  O218  1  0.99390658  0.63093533  0.74661687  1
  O  O219  1  0.37977480  0.26837006  0.00729970  1
  O  O220  1  0.36417372  0.25702690  0.49299663  1
  O  O221  1  0.37175937  0.71374842  0.01345892  1
  O  O222  1  0.37163378  0.75676828  0.50764211  1
  O  O223  1  0.86917898  0.25919536  0.00066976  1
  O  O224  1  0.86849080  0.25705205  0.50594586  1
  O  O225  1  0.86282304  0.75410425  -0.00788252  1
  O  O226  1  0.86684118  0.75383512  0.50555513  1
  O  O227  1  0.12964262  0.24317364  0.49350536  1
  O  O228  1  0.12815714  0.26351996  0.98499595  1
  O  O229  1  0.12892300  0.73741924  0.49957214  1
  O  O230  1  0.12519923  0.73534684  1.00344444  1
  O  O231  1  0.63394746  0.24072586  0.50013888  1
  O  O232  1  0.62641999  0.25828749  0.98059532  1
  O  O233  1  0.62856611  0.74584158  0.49557541  1
  O  O234  1  0.64465420  0.74956956  0.98278261  1
  O  O235  1  0.49752967  0.24413697  0.13053948  1
  O  O236  1  0.49439117  0.24249986  0.62421301  1
  O  O237  1  0.48911404  0.75979935  0.14308688  1
  O  O238  1  0.49456585  0.74222628  0.62715616  1
  O  O239  1  0.99958754  0.24479088  0.13268826  1
  O  O240  1  0.98663754  0.24241354  0.62305237  1
  O  O241  1  1.00302864  0.75290149  0.13817741  1
  O  O242  1  0.99210868  0.74373654  0.63146325  1
  O  O243  1  0.00492132  0.25556267  0.36906311  1
  O  O244  1  -0.00119160  0.26513387  0.87138145  1
  O  O245  1  0.00304803  0.75989517  0.36864814  1
  O  O246  1  -0.00728604  0.75943460  0.86287991  1
  O  O247  1  0.50049207  0.25533795  0.36746182  1
  O  O248  1  0.50642005  0.25604994  0.87335503  1
  O  O249  1  0.50836901  0.75227849  0.36986030  1
  O  O250  1  0.51383631  0.74734850  0.86191008  1
  O  O251  1  0.24259881  0.13156784  0.49709246  1
  O  O252  1  0.25469353  0.12004999  0.99675840  1
  O  O253  1  0.24273458  0.62794958  0.49432520  1
  O  O254  1  0.23397565  0.61563146  0.98176209  1
  O  O255  1  0.74425202  0.12836119  0.49664370  1
  O  O256  1  0.75246358  0.12156219  0.98345606  1
  O  O257  1  0.74078146  0.63598175  0.49724425  1
  O  O258  1  0.74990432  0.63005896  0.99393275  1
  O  O259  1  0.25962899  0.38279146  0.01357136  1
  O  O260  1  0.25564779  0.36767277  0.50720848  1
  O  O261  1  0.24468437  0.87095085  0.01197471  1
  O  O262  1  0.25139218  0.86615581  0.50696642  1
  O  O263  1  0.75655107  0.37523098  0.00911917  1
  O  O264  1  0.75900133  0.36354835  0.49588974  1
  O  O265  1  0.75368051  0.86991470  0.01069594  1
  O  O266  1  0.75447502  0.86267493  0.49594852  1
  O  O267  1  0.11828033  0.49481903  0.23851797  1
  O  O268  1  0.13083010  0.50048400  0.73736738  1
  O  O269  1  0.11954246  0.99196357  0.23877261  1
  O  O270  1  0.12295082  0.98695279  0.74348166  1
  O  O271  1  0.61956982  0.48902703  0.25472719  1
  O  O272  1  0.64088359  0.50362823  0.74955142  1
  O  O273  1  0.63155092  0.99392806  0.24864005  1
  O  O274  1  0.63001003  1.00040596  0.73910660  1
  O  O275  1  0.38191591  0.01072205  0.26001722  1
  O  O276  1  0.38055966  0.00954046  0.75787933  1
  O  O277  1  0.37120162  0.49435093  0.25683880  1
  O  O278  1  0.36754520  0.50038348  0.75896651  1
  O  O279  1  0.87138028  0.00804799  0.25878072  1
  O  O280  1  0.86217083  -0.00283460  0.75454176  1
  O  O281  1  0.88083500  0.51602616  0.25841842  1
  O  O282  1  0.86481835  0.50649984  0.75464620  1
  O  O283  1  0.11963506  0.37232460  0.37071434  1
  O  O284  1  0.10253366  0.39142428  0.87721342  1
  O  O285  1  0.11790798  0.87769931  0.37040657  1
  O  O286  1  0.11477493  0.87919950  0.86168231  1
  O  O287  1  0.61830707  0.37254797  0.36786798  1
  O  O288  1  0.61678059  0.36645881  0.86530956  1
  O  O289  1  0.62332593  0.86888507  0.36500159  1
  O  O290  1  0.62542359  0.86403655  0.87419526  1
  O  O291  1  0.38588816  0.12933189  0.13220995  1
  O  O292  1  0.37138521  0.11540139  0.63977517  1
  O  O293  1  0.36006395  0.60680440  0.14248149  1
  O  O294  1  0.38373215  0.63334391  0.61693840  1
  O  O295  1  0.88468674  0.12510332  0.13278063  1
  O  O296  1  0.88435216  0.13861399  0.62189906  1
  O  O297  1  0.87633915  0.62202557  0.13891042  1
  O  O298  1  0.88097212  0.63497256  0.62767489  1
  O  O299  1  0.25701161  0.25788670  0.12100626  1
  O  O300  1  0.24308136  0.25588904  0.61248767  1
  O  O301  1  0.25287455  0.76932844  0.13436761  1
  O  O302  1  0.25748634  0.75152859  0.62071609  1
  O  O303  1  0.75190998  0.25936285  0.12036695  1
  O  O304  1  0.76079859  0.23867995  0.61529896  1
  O  O305  1  0.75419495  0.76098303  0.11712816  1
  O  O306  1  0.75858890  0.74457607  0.61678339  1
  O  O307  1  0.24432421  0.24548551  0.38484241  1
  O  O308  1  0.26783525  0.22571615  0.89251702  1
  O  O309  1  0.24762973  0.74004426  0.38210116  1
  O  O310  1  0.24864960  0.73296823  0.86240026  1
  O  O311  1  0.75029337  0.24183463  0.38727673  1
  O  O312  1  0.73947054  0.24043844  0.87494881  1
  O  O313  1  0.73598357  0.74900637  0.38172949  1
  O  O314  1  0.74927471  0.74283280  0.87543902  1
  O  O315  1  -0.00401154  0.12815081  0.01269656  1
  O  O316  1  0.00692678  0.11899694  0.50535943  1
  O  O317  1  0.01089908  0.62371761  -0.00163361  1
  O  O318  1  0.00743456  0.62477651  0.50365564  1
  O  O319  1  0.49628868  0.13658725  0.01084148  1
  O  O320  1  0.50730432  0.11309530  0.50091275  1
  O  O321  1  0.50599671  0.60721430  -0.01555190  1
  O  O322  1  0.50604319  0.62069087  0.50649325  1
  O  O323  1  0.49230054  0.37811615  0.49390736  1
  O  O324  1  0.49522507  0.38499530  0.98770207  1
  O  O325  1  0.49536124  0.88596051  0.49730382  1
  O  O326  1  0.50995552  0.87407642  1.00752637  1
  O  O327  1  0.98937914  0.37440114  0.49173058  1
  O  O328  1  0.98384818  0.38009042  0.99580605  1
  O  O329  1  0.99662060  0.88266017  0.49739660  1
  O  O330  1  1.00201214  0.87400634  0.99056466  1
  O  O331  1  0.48627366  0.49587713  0.38056177  1
  O  O332  1  0.49319477  0.49312703  0.87249287  1
  O  O333  1  0.49007581  0.99983993  0.38352049  1
  O  O334  1  0.50830470  0.98975689  0.89041920  1
  O  O335  1  0.98955611  0.49337223  0.37764868  1
  O  O336  1  0.98355847  0.49685214  0.87399744  1
  O  O337  1  0.99420071  0.99621509  0.38635225  1
  O  O338  1  0.99486276  0.99494514  0.87637986  1
  O  O339  1  0.01052329  0.01087501  0.12465268  1
  O  O340  1  -0.00843476  0.00878085  0.61438039  1
  O  O341  1  0.00640649  0.50608075  0.12239005  1
  O  O342  1  0.00536211  0.50535344  0.62315465  1
  O  O343  1  0.50419377  0.01288078  0.11587218  1
  O  O344  1  0.51212789  0.00157921  0.61919129  1
  O  O345  1  0.49850448  0.49732986  0.10442836  1
  O  O346  1  0.49761635  0.50649260  0.61837691  1
  O  O347  1  0.24489363  0.36782004  0.23852479  1
  O  O348  1  0.26173159  0.38670979  0.73324174  1
  O  O349  1  0.23741116  0.87578091  0.25590837  1
  O  O350  1  0.23463767  0.86742292  0.74330256  1
  O  O351  1  0.74094861  0.36925585  0.23813689  1
  O  O352  1  0.75198122  0.39164914  0.75501294  1
  O  O353  1  0.74609072  0.88075793  0.24656440  1
  O  O354  1  0.74990106  0.88892345  0.75530450  1
  O  O355  1  0.26663043  0.13446570  0.25561825  1
  O  O356  1  0.25795342  0.11539417  0.76124700  1
  O  O357  1  0.24459261  0.62306111  0.25620829  1
  O  O358  1  0.24233398  0.61097659  0.76022332  1
  O  O359  1  0.75476894  0.12232323  0.25629844  1
  O  O360  1  0.74513647  0.10942266  0.76547504  1
  O  O361  1  0.76410129  0.63209371  0.25402427  1
  O  O362  1  0.75658397  0.61833063  0.75714281  1
  O  O363  1  0.37142603  0.11954982  0.36924433  1
  O  O364  1  0.36538358  0.10987640  0.87114983  1
  O  O365  1  0.36120050  0.61660658  0.38101339  1
  O  O366  1  0.35716765  0.61511686  0.87798448  1
  O  O367  1  0.87052905  0.12046373  0.37161425  1
  O  O368  1  0.87090423  0.11364359  0.87457449  1
  O  O369  1  0.87316916  0.61720397  0.36869026  1
  O  O370  1  0.86541644  0.61795516  0.87079203  1
  O  O371  1  0.13226527  0.38421635  0.12836294  1
  O  O372  1  0.13245615  0.38415579  0.61506052  1
  O  O373  1  0.13575572  0.88481818  0.13354447  1
  O  O374  1  0.13131052  0.86832432  0.63719578  1
  O  O375  1  0.63546609  0.37129567  0.13171034  1
  O  O376  1  0.62708433  0.38034748  0.62860491  1
  O  O377  1  0.63805216  0.87242404  0.13805937  1
  O  O378  1  0.62691076  0.88933551  0.61878093  1
  O  O379  1  0.11937877  0.25758367  0.25560876  1
  O  O380  1  0.16380577  0.26332951  0.76705764  1
  O  O381  1  0.11541719  0.76190982  0.25361558  1
  O  O382  1  0.11328603  0.75105226  0.74540169  1
  O  O383  1  0.61384074  0.25483271  0.25404844  1
  O  O384  1  0.62230745  0.24783893  0.76203050  1
  O  O385  1  0.61552049  0.75737524  0.25925822  1
  O  O386  1  0.61998935  0.74452209  0.75494155  1
  O  O387  1  0.38717230  0.24655257  0.24430006  1
  O  O388  1  0.37062511  0.22612068  0.75957796  1
  O  O389  1  0.38958729  0.75264614  0.25405650  1
  O  O390  1  0.38349514  0.74847498  0.73687249  1
  O  O391  1  0.88236242  0.24357245  0.25048398  1
  O  O392  1  0.86660251  0.25573699  0.73503854  1
  O  O393  1  0.88283809  0.73789249  0.25869030  1
  O  O394  1  0.88066673  0.74617801  0.74226673  1
  O  O395  1  0.37805340  0.49068249  0.49358045  1
  O  O396  1  0.38466577  0.49653387  0.98768994  1
  O  O397  1  0.38386415  0.99594342  0.49550642  1
  O  O398  1  0.40132668  0.99878186  1.00148581  1
  O  O399  1  0.87456711  0.49137312  0.49558807  1
  O  O400  1  0.87371587  0.49445190  0.99095803  1
  O  O401  1  0.87911959  0.99513011  0.49834549  1
  O  O402  1  0.88128191  0.99447515  0.98994702  1
  O  O403  1  0.12142462  -0.00352727  0.01944624  1
  O  O404  1  0.11483569  0.01081410  0.49678824  1
  O  O405  1  0.12218909  0.50629918  0.01397443  1
  O  O406  1  0.12378534  0.51015025  0.50911705  1
  O  O407  1  0.61135486  -0.00118162  0.00590419  1
  O  O408  1  0.62019023  0.00417631  0.50663901  1
  O  O409  1  0.61411076  0.49934117  -0.00694684  1
  O  O410  1  0.61835023  0.50860602  0.49744872  1
  O  O411  1  0.36846629  0.37331671  0.12049759  1
  O  O412  1  0.36523180  0.37957702  0.61189573  1
  O  O413  1  0.35691813  0.88229831  0.12910155  1
  O  O414  1  0.36688955  0.86755370  0.62092313  1
  O  O415  1  0.86463730  0.37486910  0.11992800  1
  O  O416  1  0.87917507  0.36346489  0.61358222  1
  O  O417  1  0.86664406  0.88195256  0.12816200  1
  O  O418  1  0.88044068  0.86269983  0.61980663  1
  O  O419  1  0.13047743  0.12959787  0.38242236  1
  O  O420  1  0.14213316  0.12338665  0.87471215  1
  O  O421  1  0.13448446  0.62108556  0.38230400  1
  O  O422  1  0.13087994  0.61867385  0.88432984  1
  O  O423  1  0.63069270  0.12431652  0.38782512  1
  O  O424  1  0.62798381  0.13440020  0.87406726  1
  O  O425  1  0.62407591  0.63275647  0.38506503  1
  O  O426  1  0.63933085  0.63062182  0.87490809  1
