# generated using pymatgen
data_V85Zn86O256
_symmetry_space_group_name_H-M   'P 1'
_cell_length_a   16.91006752
_cell_length_b   16.90768847
_cell_length_c   16.90549030
_cell_angle_alpha   89.97374386
_cell_angle_beta   90.00739718
_cell_angle_gamma   89.99286047
_symmetry_Int_Tables_number   1
_chemical_formula_structural   V85Zn86O256
_chemical_formula_sum   'V85 Zn86 O256'
_cell_volume   4833.45074282
_cell_formula_units_Z   1
loop_
 _symmetry_equiv_pos_site_id
 _symmetry_equiv_pos_as_xyz
  1  'x, y, z'
loop_
 _atom_site_type_symbol
 _atom_site_label
 _atom_site_symmetry_multiplicity
 _atom_site_fract_x
 _atom_site_fract_y
 _atom_site_fract_z
 _atom_site_occupancy
  V  V0  1  0.88189033  0.12278986  0.75513049  1
  V  V1  1  0.87323167  0.50272527  0.87262972  1
  V  V2  1  0.13937708  0.87743838  0.74862942  1
  V  V3  1  0.61999574  0.63300546  -0.01014325  1
  V  V4  1  0.36956361  0.13356210  0.74985912  1
  V  V5  1  0.75954471  -0.00690177  0.75388135  1
  V  V6  1  0.13439264  -0.00492462  0.62839519  1
  V  V7  1  0.62741298  0.86820308  0.75204293  1
  V  V8  1  0.75294089  0.12543335  0.37601033  1
  V  V9  1  0.62402805  0.87584181  0.24986404  1
  V  V10  1  -0.00011734  0.00009313  0.00174903  1
  V  V11  1  0.25321309  0.37708669  0.12001471  1
  V  V12  1  0.00255451  0.50597489  0.50024999  1
  V  V13  1  0.12652148  0.50244704  0.12679323  1
  V  V14  1  0.87680893  0.24937705  0.12524976  1
  V  V15  1  0.87122300  0.37652073  0.50200554  1
  V  V16  1  0.87486549  0.75018817  0.61655338  1
  V  V17  1  0.63160003  0.75130701  0.37986300  1
  V  V18  1  0.75522600  0.12015915  0.87929254  1
  V  V19  1  0.49682322  0.87433177  0.37840523  1
  V  V20  1  0.75340159  0.51061641  0.24850397  1
  V  V21  1  0.75044057  0.25288491  0.50144126  1
  V  V22  1  0.87880809  0.25442830  0.63170969  1
  V  V23  1  0.74933706  0.50094425  0.74313341  1
  V  V24  1  0.87593187  0.50601441  0.37186339  1
  V  V25  1  0.37660528  0.25260368  0.11760477  1
  V  V26  1  0.25700566  0.36122340  0.62367151  1
  V  V27  1  0.50415861  0.36945122  0.85468861  1
  V  V28  1  0.12360859  0.37114739  0.74686251  1
  V  V29  1  0.37375995  0.49496586  0.87750857  1
  V  V30  1  0.62500972  0.50006381  0.12266376  1
  V  V31  1  0.49643773  0.38543977  0.37242105  1
  V  V32  1  0.37224119  -0.00145064  0.37553488  1
  V  V33  1  0.37473297  0.12205917  0.24910262  1
  V  V34  1  0.63225456  0.62852892  0.50077697  1
  V  V35  1  0.75196451  0.87194960  0.61810812  1
  V  V36  1  0.87714014  0.87791364  0.48840560  1
  V  V37  1  0.12588959  0.62806749  0.00333841  1
  V  V38  1  0.37334928  0.75414687  0.12418056  1
  V  V39  1  0.62349780  0.12503390  -0.00407016  1
  V  V40  1  0.36633404  -0.00271006  0.87334380  1
  V  V41  1  0.36970423  0.87090424  0.51802388  1
  V  V42  1  0.24474926  0.75323607  0.50851817  1
  V  V43  1  0.37215780  0.62770732  0.74806400  1
  V  V44  1  0.36705371  0.37060226  0.49091065  1
  V  V45  1  0.00005586  0.37225867  0.87142930  1
  V  V46  1  0.00083226  0.75099578  0.74648375  1
  V  V47  1  -0.00842946  0.88043274  0.87381545  1
  V  V48  1  0.12509239  0.76625365  0.36759884  1
  V  V49  1  0.49961052  0.24951099  0.24930872  1
  V  V50  1  0.49946087  0.74992779  0.25192641  1
  V  V51  1  0.49374423  0.63106832  0.62273739  1
  V  V52  1  0.76230292  0.74929891  -0.00310236  1
  V  V53  1  0.49709739  0.00000002  0.50514046  1
  V  V54  1  0.01021207  0.12074571  0.12733103  1
  V  V55  1  -0.00025862  0.12536578  0.62677252  1
  V  V56  1  0.12776098  0.50466098  0.62227148  1
  V  V57  1  0.62230990  0.50006695  0.62541621  1
  V  V58  1  0.49721063  0.62475359  0.12375112  1
  V  V59  1  0.24294721  0.62209282  0.38106091  1
  V  V60  1  0.75079614  0.37579301  0.12436741  1
  V  V61  1  0.69059575  0.33145431  0.68219625  1
  V  V62  1  0.62479562  -0.00175033  0.12028647  1
  V  V63  1  0.49948395  0.74990691  0.75539161  1
  V  V64  1  0.50578128  0.88027895  0.88294507  1
  V  V65  1  0.49826913  0.13589166  0.63367079  1
  V  V66  1  0.49834267  0.11884161  0.11742128  1
  V  V67  1  -0.00311747  -0.00138365  0.49073856  1
  V  V68  1  0.13122515  0.25233944  0.38022601  1
  V  V69  1  0.37327822  0.61879509  0.25731312  1
  V  V70  1  0.12641297  0.75173142  0.87610585  1
  V  V71  1  -0.01159540  0.62850295  0.13770230  1
  V  V72  1  0.62299166  0.12352030  0.49910769  1
  V  V73  1  0.75357337  -0.00000134  0.25259658  1
  V  V74  1  0.12394918  0.37529148  0.25016858  1
  V  V75  1  0.49795226  0.48672372  -0.00046511  1
  V  V76  1  0.87677710  0.12362228  0.25581594  1
  V  V77  1  0.62384134  0.25189634  0.37371236  1
  V  V78  1  -0.00802062  0.76554868  0.25284007  1
  V  V79  1  0.25130214  0.24901313  -0.00354152  1
  V  V80  1  0.12112516  0.24712325  0.87366229  1
  V  V81  1  0.23720323  -0.00151004  0.24845696  1
  V  V82  1  0.23642433  0.88027962  0.12662957  1
  V  V83  1  -0.00018312  0.50195021  -0.00028017  1
  V  V84  1  0.13404724  0.12973895  0.50322013  1
  Zn  Zn85  1  0.62454977  -0.00419479  0.62609336  1
  Zn  Zn86  1  0.87523572  0.37554775  0.00040887  1
  Zn  Zn87  1  0.25398542  0.49782420  0.25616780  1
  Zn  Zn88  1  0.25376471  0.12862649  0.37895066  1
  Zn  Zn89  1  0.74968102  0.25063565  -0.00152298  1
  Zn  Zn90  1  0.62502261  0.25149484  0.86069010  1
  Zn  Zn91  1  0.24586922  0.11887333  0.87144446  1
  Zn  Zn92  1  0.00045130  0.37473402  0.37608498  1
  Zn  Zn93  1  0.87524088  0.62634738  0.74549873  1
  Zn  Zn94  1  0.00137852  0.25024281  0.25207926  1
  Zn  Zn95  1  0.62574296  0.37669403  0.25055471  1
  Zn  Zn96  1  0.87502423  0.88119550  0.00359005  1
  Zn  Zn97  1  0.74279367  0.62779615  0.86847450  1
  Zn  Zn98  1  0.24989211  0.62240488  0.87657840  1
  Zn  Zn99  1  0.75592320  0.63168315  0.37423672  1
  Zn  Zn100  1  0.37785234  0.88422494  0.00436845  1
  Zn  Zn101  1  0.12818020  0.12028527  0.00416868  1
  Zn  Zn102  1  0.75698228  0.86506548  0.12786392  1
  Zn  Zn103  1  0.25116611  0.75348710  0.00097703  1
  Zn  Zn104  1  0.49203385  0.50473354  0.49604426  1
  Zn  Zn105  1  0.00415494  0.62803400  0.62053699  1
  Zn  Zn106  1  0.25082044  0.49941051  0.74878019  1
  Zn  Zn107  1  0.19102267  0.18996058  0.19177870  1
  Zn  Zn108  1  0.18637635  0.18653296  0.69052385  1
  Zn  Zn109  1  0.18680139  0.69091135  0.19158433  1
  Zn  Zn110  1  0.18771630  0.68587809  0.69029795  1
  Zn  Zn111  1  0.68756201  0.18753115  0.18649102  1
  Zn  Zn112  1  0.69088913  0.16773179  0.68594839  1
  Zn  Zn113  1  0.68570398  0.68780477  0.18268633  1
  Zn  Zn114  1  0.68814380  0.68885038  0.68535804  1
  Zn  Zn115  1  0.31146918  0.31124842  0.30921122  1
  Zn  Zn116  1  0.31428301  0.31424693  0.81226312  1
  Zn  Zn117  1  0.31028085  0.81265229  0.31234609  1
  Zn  Zn118  1  0.31526559  0.81019523  0.81358626  1
  Zn  Zn119  1  0.81307984  0.31704971  0.31123128  1
  Zn  Zn120  1  0.81711942  0.30619689  0.81868589  1
  Zn  Zn121  1  0.81369997  0.81354524  0.30879728  1
  Zn  Zn122  1  0.81289963  0.80542709  0.81393844  1
  Zn  Zn123  1  0.18912456  0.43830140  0.44016157  1
  Zn  Zn124  1  0.18760756  0.43629172  0.93848779  1
  Zn  Zn125  1  0.18818368  0.93988994  0.44098154  1
  Zn  Zn126  1  0.18436894  0.93599075  0.94184759  1
  Zn  Zn127  1  0.68702247  0.44015598  0.43840215  1
  Zn  Zn128  1  0.68471228  0.43789543  0.93498274  1
  Zn  Zn129  1  0.68833897  0.93840078  0.43642290  1
  Zn  Zn130  1  0.68879277  0.93666321  0.93765132  1
  Zn  Zn131  1  0.31278625  0.05979099  0.05726779  1
  Zn  Zn132  1  0.31525205  0.06374708  0.56716129  1
  Zn  Zn133  1  0.31383993  0.56390437  0.06180079  1
  Zn  Zn134  1  0.31205884  0.55782570  0.55903742  1
  Zn  Zn135  1  0.81717917  0.05838248  0.06561655  1
  Zn  Zn136  1  0.81392005  0.05997468  0.56468717  1
  Zn  Zn137  1  0.81087817  0.56550200  0.05825161  1
  Zn  Zn138  1  0.81290722  0.56307633  0.56326405  1
  Zn  Zn139  1  0.43636932  0.43717104  0.18656086  1
  Zn  Zn140  1  0.43303783  0.44169880  0.68277668  1
  Zn  Zn141  1  0.43621072  0.93792847  0.18799729  1
  Zn  Zn142  1  0.43612406  0.94129815  0.69355113  1
  Zn  Zn143  1  0.93832400  0.44021349  0.18805058  1
  Zn  Zn144  1  0.93915672  0.43744081  0.68772475  1
  Zn  Zn145  1  0.93449932  0.93910999  0.18369814  1
  Zn  Zn146  1  0.94168306  0.93627718  0.68380754  1
  Zn  Zn147  1  0.06347062  0.06604897  0.31544206  1
  Zn  Zn148  1  0.06298310  0.05874750  0.81311042  1
  Zn  Zn149  1  0.06642717  0.56312861  0.31568518  1
  Zn  Zn150  1  0.06328840  0.56264845  0.81007491  1
  Zn  Zn151  1  0.56164612  0.06216639  0.31193208  1
  Zn  Zn152  1  0.56524357  0.05598363  0.81136914  1
  Zn  Zn153  1  0.56676420  0.56497625  0.31024804  1
  Zn  Zn154  1  0.55950197  0.55639256  0.80890668  1
  Zn  Zn155  1  0.43512043  0.19026620  0.43939599  1
  Zn  Zn156  1  0.43843575  0.18814985  0.93275987  1
  Zn  Zn157  1  0.43363095  0.69004232  0.43972557  1
  Zn  Zn158  1  0.43689012  0.68756744  0.93548183  1
  Zn  Zn159  1  0.94336003  0.18946238  0.43890366  1
  Zn  Zn160  1  0.93824260  0.18620006  0.94157454  1
  Zn  Zn161  1  0.94195402  0.68968324  0.43442219  1
  Zn  Zn162  1  0.94155118  0.68477535  0.93472841  1
  Zn  Zn163  1  0.06272390  0.31134455  0.06083355  1
  Zn  Zn164  1  0.05976818  0.31422804  0.56257517  1
  Zn  Zn165  1  0.05553898  0.81151908  0.06563905  1
  Zn  Zn166  1  0.06522258  0.81442832  0.55780107  1
  Zn  Zn167  1  0.56595273  0.30889652  0.06085853  1
  Zn  Zn168  1  0.55221414  0.31108907  0.55345247  1
  Zn  Zn169  1  0.56509420  0.81090938  0.06317792  1
  Zn  Zn170  1  0.56080042  0.81100617  0.56540782  1
  O  O171  1  0.11308036  0.13408645  0.12722900  1
  O  O172  1  0.11814423  0.11855464  0.62317409  1
  O  O173  1  0.12090738  0.62157035  0.12011192  1
  O  O174  1  0.12426790  0.60895246  0.63052458  1
  O  O175  1  0.61802194  0.11881666  0.11894945  1
  O  O176  1  0.61303220  0.11770043  0.61891486  1
  O  O177  1  0.61559799  0.61901806  0.11444779  1
  O  O178  1  0.61840613  0.62026478  0.61816875  1
  O  O179  1  0.37866773  0.37313287  0.38114038  1
  O  O180  1  0.38730332  0.38540100  0.86999361  1
  O  O181  1  0.38021952  0.88129308  0.38053893  1
  O  O182  1  0.38343758  0.88373829  0.87497256  1
  O  O183  1  0.87662766  0.38466750  0.38313132  1
  O  O184  1  0.88287591  0.38312559  0.87623807  1
  O  O185  1  0.86645346  0.87569649  0.38928818  1
  O  O186  1  0.88874792  0.86713414  0.87773767  1
  O  O187  1  0.25633378  0.00179342  0.36820353  1
  O  O188  1  0.26146917  -0.00204756  0.87622339  1
  O  O189  1  0.24636361  0.51698784  0.37651470  1
  O  O190  1  0.25978798  0.49843370  0.87427099  1
  O  O191  1  0.74161594  0.00985948  0.36139501  1
  O  O192  1  0.74846072  0.00958621  0.86810954  1
  O  O193  1  0.75585778  0.50140706  0.36514953  1
  O  O194  1  0.75627283  0.49985412  0.86347213  1
  O  O195  1  0.24578946  0.49182751  0.12445469  1
  O  O196  1  0.24156795  0.48955822  0.62477511  1
  O  O197  1  0.25493799  0.98874602  0.13137987  1
  O  O198  1  0.23322564  1.00224834  0.62083439  1
  O  O199  1  0.74760973  0.49581398  0.12916791  1
  O  O200  1  0.74368485  0.49892946  0.63465755  1
  O  O201  1  0.74007965  1.00366105  0.13722535  1
  O  O202  1  0.74914729  0.99112835  0.63507314  1
  O  O203  1  0.01351147  0.37520026  0.24973937  1
  O  O204  1  0.00758352  0.37791063  0.76231697  1
  O  O205  1  -0.00199850  0.86466435  0.24774273  1
  O  O206  1  0.00626239  0.86661592  0.75576045  1
  O  O207  1  0.49930625  0.36829977  0.25586367  1
  O  O208  1  0.49927277  0.37727818  0.75590295  1
  O  O209  1  0.50528386  0.87109936  0.25710847  1
  O  O210  1  0.50782362  0.86870445  0.75499403  1
  O  O211  1  0.49499408  0.12971674  0.23995045  1
  O  O212  1  0.49704778  0.11961860  0.73863189  1
  O  O213  1  0.49257207  0.63041155  0.24621322  1
  O  O214  1  0.49535507  0.63206099  0.74560725  1
  O  O215  1  0.99280082  0.12580289  0.24520255  1
  O  O216  1  0.98873556  0.11890687  0.74457479  1
  O  O217  1  1.00294976  0.62435358  0.23963192  1
  O  O218  1  1.00048145  0.63973223  0.74791486  1
  O  O219  1  0.36866311  0.24516180  0.00958092  1
  O  O220  1  0.38091541  0.26960915  0.50128210  1
  O  O221  1  0.37376723  0.74825346  0.01336942  1
  O  O222  1  0.35976360  0.76036208  0.49612439  1
  O  O223  1  0.87169586  0.25168426  0.01304081  1
  O  O224  1  0.87010207  0.25471753  0.50952453  1
  O  O225  1  0.86399001  0.74331008  -0.00158805  1
  O  O226  1  0.88471613  0.76061074  0.50840453  1
  O  O227  1  0.11959637  0.24153534  0.49460802  1
  O  O228  1  0.13309210  0.24795228  0.99132019  1
  O  O229  1  0.13522738  0.75461248  0.48698891  1
  O  O230  1  0.12313614  0.74436453  0.99327558  1
  O  O231  1  0.63059451  0.24417335  0.49476452  1
  O  O232  1  0.62989466  0.23477210  1.00023279  1
  O  O233  1  0.61882001  0.74253940  0.49150257  1
  O  O234  1  0.62369337  0.73517920  0.99741395  1
  O  O235  1  0.49328263  0.24353491  0.12797202  1
  O  O236  1  0.50258845  0.23428170  0.62315123  1
  O  O237  1  0.49399935  0.74510347  0.13118329  1
  O  O238  1  0.50337729  0.73896297  0.63706343  1
  O  O239  1  0.99201778  0.24418190  0.12672265  1
  O  O240  1  0.99209283  0.23629021  0.62115166  1
  O  O241  1  1.00557750  0.73888165  0.14124136  1
  O  O242  1  0.99676549  0.75120734  0.63011866  1
  O  O243  1  0.01298172  0.25445636  0.37277872  1
  O  O244  1  0.00823847  0.25992767  0.88233082  1
  O  O245  1  0.01513870  0.74603939  0.36534585  1
  O  O246  1  0.00950943  0.75521510  0.86805996  1
  O  O247  1  0.50491487  0.25697449  0.36868697  1
  O  O248  1  0.50322149  0.26538869  0.87604866  1
  O  O249  1  0.50688742  0.75535952  0.37039573  1
  O  O250  1  0.49470230  0.76247267  0.86358591  1
  O  O251  1  0.23803254  0.12123761  0.50212430  1
  O  O252  1  0.24727924  0.13541623  0.99639473  1
  O  O253  1  0.25788947  0.63717256  0.48759112  1
  O  O254  1  0.23703718  0.62819229  1.00060958  1
  O  O255  1  0.74556381  0.12993738  0.49693259  1
  O  O256  1  0.74524266  0.12265056  0.99353885  1
  O  O257  1  0.73590062  0.62188535  0.49840196  1
  O  O258  1  0.73704504  0.63095627  0.99608878  1
  O  O259  1  0.24481529  0.36467546  0.01181340  1
  O  O260  1  0.25804464  0.37408262  0.50850160  1
  O  O261  1  0.25428381  0.87476722  0.01343348  1
  O  O262  1  0.25577967  0.86365078  0.49882461  1
  O  O263  1  0.75107097  0.37603489  0.01131318  1
  O  O264  1  0.76202179  0.36994977  0.49683775  1
  O  O265  1  0.75117211  0.85994311  -0.00422601  1
  O  O266  1  0.75800743  0.88500427  0.51139184  1
  O  O267  1  0.13015315  0.49277726  0.24506480  1
  O  O268  1  0.12649469  0.48759612  0.74435955  1
  O  O269  1  0.13790543  1.00619899  0.25334796  1
  O  O270  1  0.12201677  0.99311378  0.73764110  1
  O  O271  1  0.63302831  0.49883157  0.24071128  1
  O  O272  1  0.63155319  0.50143009  0.73524723  1
  O  O273  1  0.62896179  0.99596701  0.24169690  1
  O  O274  1  0.63707164  0.98674801  0.74811164  1
  O  O275  1  0.37194549  0.00592357  0.25769101  1
  O  O276  1  0.37969968  0.00989900  0.76507349  1
  O  O277  1  0.37287343  0.51426463  0.24516291  1
  O  O278  1  0.37509130  0.51047142  0.75770521  1
  O  O279  1  0.86514576  0.01079987  0.24844191  1
  O  O280  1  0.86690392  0.00406641  0.74580746  1
  O  O281  1  0.86689076  0.49523068  0.25976214  1
  O  O282  1  0.86771014  0.50157669  0.75371221  1
  O  O283  1  0.12694219  0.37089433  0.36775924  1
  O  O284  1  0.11989139  0.36853300  0.86830434  1
  O  O285  1  0.12944988  0.86535726  0.37340593  1
  O  O286  1  0.11882397  0.86810825  0.86776966  1
  O  O287  1  0.61617907  0.36935853  0.37483220  1
  O  O288  1  0.60984186  0.37402969  0.87429320  1
  O  O289  1  0.61771471  0.86929258  0.37233988  1
  O  O290  1  0.61373308  0.87859543  0.86854856  1
  O  O291  1  0.38266288  0.12843800  0.12684399  1
  O  O292  1  0.38581784  0.12011548  0.63860517  1
  O  O293  1  0.37847869  0.63313627  0.13272129  1
  O  O294  1  0.38302255  0.61840678  0.63261458  1
  O  O295  1  0.88032822  0.13265440  0.13621141  1
  O  O296  1  0.88082064  0.13121646  0.63181884  1
  O  O297  1  0.89048335  0.62070004  0.12267776  1
  O  O298  1  0.87875609  0.63588920  0.62382858  1
  O  O299  1  0.25723082  0.25516999  0.11788189  1
  O  O300  1  0.24420224  0.26293896  0.62483521  1
  O  O301  1  0.25662167  0.76185551  0.12746259  1
  O  O302  1  0.23982637  0.74506992  0.60727695  1
  O  O303  1  0.75733837  0.25879084  0.12564737  1
  O  O304  1  0.75259865  0.25569655  0.62356136  1
  O  O305  1  0.74011282  0.74879000  0.10370760  1
  O  O306  1  0.76038916  0.76087581  0.62774858  1
  O  O307  1  0.23743989  0.24742636  0.37060314  1
  O  O308  1  0.24292105  0.25295410  0.88292612  1
  O  O309  1  0.23972744  0.74545160  0.37755055  1
  O  O310  1  0.23797293  0.74895014  0.87877677  1
  O  O311  1  0.74410642  0.24616318  0.37933314  1
  O  O312  1  0.74574082  0.23620224  0.87699427  1
  O  O313  1  0.73576814  0.75004508  0.36928206  1
  O  O314  1  0.74936759  0.74374046  0.88800234  1
  O  O315  1  0.00290241  0.12011895  0.01034134  1
  O  O316  1  0.00683395  0.11654034  0.50789883  1
  O  O317  1  0.00965771  0.62328171  0.00978682  1
  O  O318  1  -0.00192021  0.61061288  0.50078370  1
  O  O319  1  0.50716796  0.12869698  0.00915748  1
  O  O320  1  0.49977152  0.11797790  0.50982232  1
  O  O321  1  0.50755945  0.61840819  0.00181542  1
  O  O322  1  0.50437563  0.62531356  0.50724264  1
  O  O323  1  0.48979415  0.37943755  0.48817244  1
  O  O324  1  0.50265913  0.38491024  1.00049341  1
  O  O325  1  0.49233008  0.88105320  0.49848211  1
  O  O326  1  0.49988715  0.86883920  0.98572477  1
  O  O327  1  0.98731715  0.38302386  0.49950856  1
  O  O328  1  1.00099103  0.38376951  0.98977606  1
  O  O329  1  0.99352330  0.89047979  0.50429639  1
  O  O330  1  1.00070699  0.88063269  0.99180662  1
  O  O331  1  0.50428108  0.48870324  0.37182777  1
  O  O332  1  0.49526363  0.48812493  0.87977904  1
  O  O333  1  0.49427598  0.99685403  0.38685100  1
  O  O334  1  0.49458441  0.98447901  0.87086983  1
  O  O335  1  0.99439067  0.49754828  0.38130909  1
  O  O336  1  0.99343046  0.49472249  0.87796102  1
  O  O337  1  1.00314673  1.00586931  0.39189677  1
  O  O338  1  1.00193794  0.98872275  0.88000484  1
  O  O339  1  -0.00056700  0.01129573  0.11879426  1
  O  O340  1  0.00628050  0.01100725  0.61854945  1
  O  O341  1  0.00625438  0.51000674  0.12115690  1
  O  O342  1  0.00782036  0.49989308  0.61835255  1
  O  O343  1  0.50927675  0.00915016  0.12927750  1
  O  O344  1  0.50031579  0.00403699  0.61511414  1
  O  O345  1  0.50261537  0.50488862  0.11738138  1
  O  O346  1  0.50739678  0.51180136  0.62510228  1
  O  O347  1  0.24191967  0.37587502  0.23877291  1
  O  O348  1  0.24558654  0.37589186  0.73820616  1
  O  O349  1  0.25623825  0.88449320  0.23673215  1
  O  O350  1  0.23870216  0.86887093  0.75105172  1
  O  O351  1  0.74867167  0.38482489  0.23812490  1
  O  O352  1  0.75456573  0.38094313  0.74995577  1
  O  O353  1  0.74249963  0.88330260  0.24942681  1
  O  O354  1  0.74658139  0.87690207  0.74657071  1
  O  O355  1  0.25950440  0.11655214  0.24914530  1
  O  O356  1  0.26430526  0.12586159  0.75074209  1
  O  O357  1  0.25677325  0.62566927  0.26104745  1
  O  O358  1  0.25811822  0.62202439  0.75432218  1
  O  O359  1  0.75660138  0.12071787  0.25480224  1
  O  O360  1  0.76111585  0.11238540  0.75644708  1
  O  O361  1  0.74598823  0.61470612  0.24970804  1
  O  O362  1  0.75216078  0.61665374  0.75030832  1
  O  O363  1  0.37505201  0.11841309  0.37008787  1
  O  O364  1  0.37582732  0.11563570  0.86587850  1
  O  O365  1  0.36243150  0.63509003  0.36580007  1
  O  O366  1  0.37518649  0.61452943  0.86823133  1
  O  O367  1  0.87116703  0.13467333  0.36347350  1
  O  O368  1  0.86878872  0.13094742  0.86644385  1
  O  O369  1  0.87211383  0.61101294  0.38436353  1
  O  O370  1  0.87595760  0.61189359  0.87053836  1
  O  O371  1  0.13105576  0.37960579  0.13089300  1
  O  O372  1  0.13098981  0.37900114  0.63103590  1
  O  O373  1  0.13803664  0.87200141  0.12371452  1
  O  O374  1  0.11896232  0.88832001  0.63212873  1
  O  O375  1  0.63314537  0.38111649  0.12539345  1
  O  O376  1  0.62180926  0.38195557  0.61767722  1
  O  O377  1  0.62727528  0.88353887  0.12927708  1
  O  O378  1  0.63425856  0.87419957  0.63135207  1
  O  O379  1  0.12426615  0.25894368  0.25704685  1
  O  O380  1  0.12742758  0.26218058  0.75746993  1
  O  O381  1  0.11739672  0.75049439  0.26180214  1
  O  O382  1  0.11983136  0.75624327  0.75552155  1
  O  O383  1  0.61856889  0.25206037  0.25516911  1
  O  O384  1  0.64019428  0.25816494  0.73956621  1
  O  O385  1  0.61862644  0.75532484  0.25534458  1
  O  O386  1  0.61947354  0.76053915  0.74867731  1
  O  O387  1  0.37785382  0.24189628  0.23820805  1
  O  O388  1  0.37762070  0.23274266  0.75852498  1
  O  O389  1  0.37943471  0.74405227  0.24110361  1
  O  O390  1  0.38254105  0.73725077  0.75383144  1
  O  O391  1  0.87659633  0.24580255  0.24090504  1
  O  O392  1  0.87032127  0.23871136  0.73981964  1
  O  O393  1  0.89274831  0.74706932  0.26111349  1
  O  O394  1  0.88404432  0.75093106  0.73811148  1
  O  O395  1  0.37779148  0.48113328  0.50422652  1
  O  O396  1  0.38597242  0.50666245  0.99069307  1
  O  O397  1  0.37887825  0.99371800  0.49616118  1
  O  O398  1  0.37878189  1.00230549  0.98101061  1
  O  O399  1  0.87877908  0.49210385  0.49677307  1
  O  O400  1  0.88028420  0.49926369  0.99018269  1
  O  O401  1  0.88862975  0.99580988  0.50470474  1
  O  O402  1  0.89096166  1.00263583  0.99822438  1
  O  O403  1  0.11001180  0.00529874  -0.00618954  1
  O  O404  1  0.11633522  0.00507399  0.51003951  1
  O  O405  1  0.11944188  0.50768901  0.00482243  1
  O  O406  1  0.11473837  0.49088741  0.50985117  1
  O  O407  1  0.63087161  0.00923437  0.01145132  1
  O  O408  1  0.61455981  0.00535753  0.50028610  1
  O  O409  1  0.61777698  0.50809293  0.00445469  1
  O  O410  1  0.62101932  0.50746225  0.50993625  1
  O  O411  1  0.36592089  0.36478603  0.12906601  1
  O  O412  1  0.36202617  0.37437536  0.61959211  1
  O  O413  1  0.37299872  0.86756735  0.12279836  1
  O  O414  1  0.37790559  0.87800450  0.61719173  1
  O  O415  1  0.86989022  0.36846859  0.12430007  1
  O  O416  1  0.88052489  0.36353846  0.61950231  1
  O  O417  1  0.86862591  0.87812391  0.11802279  1
  O  O418  1  0.86962866  0.86958598  0.61789579  1
  O  O419  1  0.12723564  0.13339982  0.38644523  1
  O  O420  1  0.12618401  0.13714161  0.87043859  1
  O  O421  1  0.13965699  0.63429898  0.37297161  1
  O  O422  1  0.12382989  0.63249872  0.88367824  1
  O  O423  1  0.62839784  0.13214467  0.38050919  1
  O  O424  1  0.63023527  0.12546170  0.88046901  1
  O  O425  1  0.62459574  0.63371649  0.38330597  1
  O  O426  1  0.62189711  0.61625122  0.88689114  1
