# generated using pymatgen
data_V85Zn86O256
_symmetry_space_group_name_H-M   'P 1'
_cell_length_a   16.92455707
_cell_length_b   16.91865559
_cell_length_c   16.92444943
_cell_angle_alpha   89.96605204
_cell_angle_beta   89.94991278
_cell_angle_gamma   89.97718400
_symmetry_Int_Tables_number   1
_chemical_formula_structural   V85Zn86O256
_chemical_formula_sum   'V85 Zn86 O256'
_cell_volume   4846.15649428
_cell_formula_units_Z   1
loop_
 _symmetry_equiv_pos_site_id
 _symmetry_equiv_pos_as_xyz
  1  'x, y, z'
loop_
 _atom_site_type_symbol
 _atom_site_label
 _atom_site_symmetry_multiplicity
 _atom_site_fract_x
 _atom_site_fract_y
 _atom_site_fract_z
 _atom_site_occupancy
  V  V0  1  0.12108640  0.87268394  0.75532940  1
  V  V1  1  0.37337057  0.25002370  0.62795860  1
  V  V2  1  0.49591685  0.11971489  0.61841949  1
  V  V3  1  0.37484393  0.12825815  0.25194010  1
  V  V4  1  0.24868777  0.38779461  0.62974106  1
  V  V5  1  0.24650359  0.37427965  0.12188198  1
  V  V6  1  0.62580490  -0.00002345  0.12533992  1
  V  V7  1  0.38087024  0.00215204  0.38511791  1
  V  V8  1  0.37277213  0.87877178  -0.00072442  1
  V  V9  1  0.24896705  0.87769008  0.62640069  1
  V  V10  1  0.12257651  0.25044979  0.36721912  1
  V  V11  1  0.12563108  0.87588012  0.25204577  1
  V  V12  1  0.00613354  0.50453488  -0.00117849  1
  V  V13  1  0.62985684  0.25395991  0.37686297  1
  V  V14  1  0.37564246  0.11911595  0.75887847  1
  V  V15  1  0.87991608  0.74170336  0.62126123  1
  V  V16  1  0.75179751  0.75641198  0.49485240  1
  V  V17  1  0.11956719  0.12797777  0.51090817  1
  V  V18  1  0.62656328  0.49807487  0.62491210  1
  V  V19  1  0.62511588  0.61409828  0.01499987  1
  V  V20  1  0.49987488  0.12405001  0.12475884  1
  V  V21  1  0.62573317  0.63097530  0.49782223  1
  V  V22  1  0.87396256  -0.00830565  0.87703245  1
  V  V23  1  0.87620411  0.75429966  0.11522213  1
  V  V24  1  0.75240334  0.87636211  0.11372481  1
  V  V25  1  0.26384399  0.61897830  0.85943578  1
  V  V26  1  0.62627694  0.12942153  0.49923979  1
  V  V27  1  0.75813612  0.87741300  0.61991267  1
  V  V28  1  0.49632223  0.50269340  0.49345999  1
  V  V29  1  0.24745966  0.73854220  0.00108898  1
  V  V30  1  0.88784404  0.24695978  0.12856787  1
  V  V31  1  0.25033992  0.12866698  0.37854031  1
  V  V32  1  0.12665449  0.38110327  0.75239147  1
  V  V33  1  0.62875997  0.73691608  0.87653946  1
  V  V34  1  -0.00269294  0.00170306  0.50792342  1
  V  V35  1  0.62613199  0.86991428  0.25143770  1
  V  V36  1  0.49508126  0.74623616  0.75308164  1
  V  V37  1  0.87615097  0.49550680  0.37689007  1
  V  V38  1  0.12305776  0.73674221  0.87842511  1
  V  V39  1  -0.00386753  -0.00163878  0.00832134  1
  V  V40  1  0.88932514  0.13333645  0.74673079  1
  V  V41  1  0.50613850  0.87725106  0.38100803  1
  V  V42  1  -0.00388790  0.37157937  0.87030927  1
  V  V43  1  0.24725416  0.25237652  0.50080311  1
  V  V44  1  0.25135440  0.24845845  -0.00438618  1
  V  V45  1  0.88933035  0.12761764  0.25009236  1
  V  V46  1  0.75046965  0.00314169  0.74716827  1
  V  V47  1  0.49623094  0.00030158  -0.00339825  1
  V  V48  1  -0.00455563  0.87376072  0.38157055  1
  V  V49  1  0.62415670  0.87517516  0.74983370  1
  V  V50  1  -0.00013072  0.75024834  0.24909251  1
  V  V51  1  0.74761418  0.63011368  0.37248145  1
  V  V52  1  0.24922723  0.87700292  0.12438923  1
  V  V53  1  0.62444699  0.12691083  -0.00608078  1
  V  V54  1  0.88478212  0.24975374  0.61358037  1
  V  V55  1  0.26338756  0.61724764  0.37458155  1
  V  V56  1  0.74744811  0.37555566  0.12552814  1
  V  V57  1  0.37534348  0.37916716  0.49933583  1
  V  V58  1  0.62069490  -0.00182400  0.61776705  1
  V  V59  1  0.75259568  0.36660289  0.61172236  1
  V  V60  1  0.50225992  0.25169151  0.25193790  1
  V  V61  1  0.12044311  0.24514320  0.86987254  1
  V  V62  1  0.12783232  0.50762515  0.12373135  1
  V  V63  1  0.37460411  0.74716262  0.62658437  1
  V  V64  1  0.75128030  0.24876080  0.00029328  1
  V  V65  1  0.25156944  -0.00274230  0.76168116  1
  V  V66  1  0.62635580  0.36646777  0.75602476  1
  V  V67  1  0.38156605  0.48422266  0.86971985  1
  V  V68  1  0.49806476  0.62390032  0.62912657  1
  V  V69  1  0.49326541  0.74625546  0.25225409  1
  V  V70  1  0.87790545  0.62483050  0.24557401  1
  V  V71  1  0.25041641  0.75196552  0.49972362  1
  V  V72  1  0.75226397  0.12905222  0.37554681  1
  V  V73  1  -0.00230122  0.37266777  0.37287313  1
  V  V74  1  0.74822598  0.13095982  0.87003048  1
  V  V75  1  0.87376230  -0.00222076  0.37958649  1
  V  V76  1  0.49646603  0.87792136  0.87548785  1
  V  V77  1  0.74439574  0.50117722  0.24436507  1
  V  V78  1  0.25163828  0.00047038  0.25277242  1
  V  V79  1  0.12558168  0.74780743  0.37592231  1
  V  V80  1  0.87161565  0.50857302  0.87724273  1
  V  V81  1  0.74988540  0.50567224  0.75209773  1
  V  V82  1  0.11867653  0.62481681  0.50451261  1
  V  V83  1  0.37692043  0.25734577  0.11790367  1
  V  V84  1  -0.00429327  0.49980095  0.50810404  1
  Zn  Zn85  1  0.50674953  0.24550692  0.75053652  1
  Zn  Zn86  1  0.00092854  0.74265515  0.74765657  1
  Zn  Zn87  1  0.49112509  0.61578406  0.13122237  1
  Zn  Zn88  1  0.11835682  0.00513121  0.63204285  1
  Zn  Zn89  1  0.49305823  0.48542619  0.01311595  1
  Zn  Zn90  1  0.38232996  0.88042008  0.50417508  1
  Zn  Zn91  1  0.11902650  0.50912149  0.63438028  1
  Zn  Zn92  1  0.11695275  0.12726764  0.00842352  1
  Zn  Zn93  1  0.11640880  0.00726986  0.13063721  1
  Zn  Zn94  1  0.11883962  0.37525119  0.24584950  1
  Zn  Zn95  1  0.49939064  0.37968219  0.37419048  1
  Zn  Zn96  1  0.24842826  0.11944367  0.87885491  1
  Zn  Zn97  1  0.88398409  0.61964500  0.74477265  1
  Zn  Zn98  1  0.62266533  0.38059083  0.24906637  1
  Zn  Zn99  1  0.00777621  0.62933087  0.11951108  1
  Zn  Zn100  1  0.50430848  0.36158258  0.88547304  1
  Zn  Zn101  1  0.75371589  0.74736986  -0.00796196  1
  Zn  Zn102  1  0.75173416  0.00071727  0.24855719  1
  Zn  Zn103  1  -0.00723146  0.86901475  0.87841973  1
  Zn  Zn104  1  0.87472264  0.37559182  -0.00071931  1
  Zn  Zn105  1  0.37281083  0.74319341  0.12846765  1
  Zn  Zn106  1  0.26006689  0.50985736  0.24472471  1
  Zn  Zn107  1  0.18677054  0.18614127  0.18557066  1
  Zn  Zn108  1  0.18807387  0.19113617  0.69155678  1
  Zn  Zn109  1  0.19198494  0.68710539  0.19033823  1
  Zn  Zn110  1  0.18514838  0.68818588  0.68882014  1
  Zn  Zn111  1  0.69154059  0.18752362  0.18834217  1
  Zn  Zn112  1  0.69193219  0.18803953  0.68204469  1
  Zn  Zn113  1  0.68752040  0.69291765  0.18656725  1
  Zn  Zn114  1  0.68751110  0.68843152  0.68587664  1
  Zn  Zn115  1  0.32697256  0.34396282  0.29689076  1
  Zn  Zn116  1  0.30942661  0.30919218  0.80961165  1
  Zn  Zn117  1  0.31473689  0.81454666  0.31762414  1
  Zn  Zn118  1  0.31217796  0.80957136  0.81551200  1
  Zn  Zn119  1  0.81450396  0.31309441  0.31095759  1
  Zn  Zn120  1  0.81164885  0.31473177  0.80876800  1
  Zn  Zn121  1  0.81230268  0.81436968  0.30759158  1
  Zn  Zn122  1  0.80926625  0.80953516  0.80449304  1
  Zn  Zn123  1  0.18307879  0.43837580  0.43986760  1
  Zn  Zn124  1  0.19066914  0.43885437  0.93691655  1
  Zn  Zn125  1  0.18552653  0.94039187  0.43987126  1
  Zn  Zn126  1  0.17944019  0.93459376  0.94078933  1
  Zn  Zn127  1  0.68646102  0.44170309  0.43510530  1
  Zn  Zn128  1  0.68771510  0.43749911  0.93746312  1
  Zn  Zn129  1  0.68700984  0.94152893  0.43703810  1
  Zn  Zn130  1  0.68466332  0.93879001  0.93455133  1
  Zn  Zn131  1  0.30972810  0.06477184  0.06333479  1
  Zn  Zn132  1  0.30760839  0.06234592  0.56608493  1
  Zn  Zn133  1  0.32018970  0.56070696  0.05826784  1
  Zn  Zn134  1  0.31164522  0.56581078  0.56029168  1
  Zn  Zn135  1  0.81652909  0.06409376  0.06198964  1
  Zn  Zn136  1  0.81311007  0.06928768  0.56075371  1
  Zn  Zn137  1  0.80954088  0.56538913  0.05879885  1
  Zn  Zn138  1  0.80958863  0.55928318  0.56088025  1
  Zn  Zn139  1  0.43246951  0.44639706  0.19033913  1
  Zn  Zn140  1  0.43703599  0.44084398  0.69249864  1
  Zn  Zn141  1  0.43638652  0.93535004  0.18975741  1
  Zn  Zn142  1  0.43675180  0.93709978  0.68842882  1
  Zn  Zn143  1  0.93726433  0.43610934  0.18601082  1
  Zn  Zn144  1  0.93455624  0.43080392  0.69031783  1
  Zn  Zn145  1  0.93406121  0.93639317  0.19238456  1
  Zn  Zn146  1  0.93568069  0.93466159  0.69209909  1
  Zn  Zn147  1  0.06507667  0.06217470  0.31897716  1
  Zn  Zn148  1  0.06082322  0.05919282  0.81797644  1
  Zn  Zn149  1  0.06730755  0.55976648  0.31149978  1
  Zn  Zn150  1  0.05987198  0.56390428  0.81256180  1
  Zn  Zn151  1  0.56358606  0.06112331  0.31221071  1
  Zn  Zn152  1  0.56187253  0.06334369  0.81016513  1
  Zn  Zn153  1  0.56441869  0.56581245  0.31353864  1
  Zn  Zn154  1  0.55742495  0.55551887  0.81225244  1
  Zn  Zn155  1  0.43919096  0.19113116  0.43990460  1
  Zn  Zn156  1  0.43977498  0.19284072  0.93440561  1
  Zn  Zn157  1  0.44002845  0.69536381  0.43784244  1
  Zn  Zn158  1  0.43740565  0.68572733  0.94443481  1
  Zn  Zn159  1  0.93988176  0.18762701  0.43784704  1
  Zn  Zn160  1  0.93627412  0.18382735  0.93677100  1
  Zn  Zn161  1  0.93440111  0.68535056  0.43836433  1
  Zn  Zn162  1  0.93924438  0.68359788  0.93541947  1
  Zn  Zn163  1  0.06531921  0.31772248  0.05335019  1
  Zn  Zn164  1  0.06129496  0.31915135  0.56015262  1
  Zn  Zn165  1  0.06251615  0.81929934  0.05969684  1
  Zn  Zn166  1  0.06381949  0.81594076  0.56255762  1
  Zn  Zn167  1  0.56672450  0.31255871  0.06381086  1
  Zn  Zn168  1  0.56205912  0.31164856  0.56582697  1
  Zn  Zn169  1  0.56232135  0.80869067  0.06351992  1
  Zn  Zn170  1  0.56520099  0.81165184  0.56186741  1
  O  O171  1  0.12636531  0.11931027  0.12294179  1
  O  O172  1  0.12943775  0.12553029  0.61532143  1
  O  O173  1  0.12764239  0.61285336  0.12814239  1
  O  O174  1  0.13114764  0.62569871  0.61033786  1
  O  O175  1  0.62066271  0.11855858  0.11935717  1
  O  O176  1  0.61920853  0.11990469  0.61794409  1
  O  O177  1  0.62180921  0.62838937  0.11707666  1
  O  O178  1  0.61833456  0.62030478  0.61761818  1
  O  O179  1  0.38202249  0.35815494  0.39826503  1
  O  O180  1  0.37362512  0.38144842  0.87034788  1
  O  O181  1  0.38396647  0.88606371  0.37884495  1
  O  O182  1  0.38779878  0.86987986  0.88204259  1
  O  O183  1  0.87996237  0.38666237  0.37189251  1
  O  O184  1  0.88185471  0.38067515  0.87470043  1
  O  O185  1  0.88297183  0.88488436  0.36981388  1
  O  O186  1  0.86867285  0.88820200  0.86479972  1
  O  O187  1  0.25669698  0.00691948  0.37166054  1
  O  O188  1  0.24632033  -0.00331700  0.86503381  1
  O  O189  1  0.24600941  0.51598199  0.38173613  1
  O  O190  1  0.26014767  0.51298130  0.87842704  1
  O  O191  1  0.75864648  0.00766451  0.37369020  1
  O  O192  1  0.75457277  0.00965139  0.87002245  1
  O  O193  1  0.75892640  0.50851534  0.36907066  1
  O  O194  1  0.75987651  0.49162522  0.86479995  1
  O  O195  1  0.24544029  0.49078031  0.12125416  1
  O  O196  1  0.24723754  0.49052631  0.62072470  1
  O  O197  1  0.25237846  0.98877702  0.13339357  1
  O  O198  1  0.24657786  0.98736028  0.63259725  1
  O  O199  1  0.75978616  0.49015082  0.13354329  1
  O  O200  1  0.74725795  0.48932936  0.63040383  1
  O  O201  1  0.74557733  0.99418509  0.12516197  1
  O  O202  1  0.74479696  0.99448690  0.62507109  1
  O  O203  1  0.00156151  0.38201605  0.26556729  1
  O  O204  1  0.00714681  0.37652847  0.76283188  1
  O  O205  1  0.00567677  0.87160431  0.26142515  1
  O  O206  1  0.00781791  0.86810082  0.75361422  1
  O  O207  1  0.50361271  0.36111317  0.25288394  1
  O  O208  1  0.51968024  0.37399732  0.74109237  1
  O  O209  1  0.50731817  0.87084910  0.25810353  1
  O  O210  1  0.50476378  0.86822832  0.75639680  1
  O  O211  1  0.49599125  0.13362223  0.24620814  1
  O  O212  1  0.49213049  0.12133523  0.73728856  1
  O  O213  1  0.50634898  0.64302487  0.25451830  1
  O  O214  1  0.50615484  0.63155612  0.73723406  1
  O  O215  1  0.98847010  0.12294770  0.25962098  1
  O  O216  1  0.98746711  0.12146947  0.74973520  1
  O  O217  1  0.99315540  0.63055129  0.24844346  1
  O  O218  1  0.99854207  0.62851550  0.74671218  1
  O  O219  1  0.36647871  0.24132615  0.00852053  1
  O  O220  1  0.36976562  0.25305743  0.51374429  1
  O  O221  1  0.36583019  0.76252070  0.00142242  1
  O  O222  1  0.36950774  0.75675603  0.50952364  1
  O  O223  1  0.86564797  0.24637273  0.00976408  1
  O  O224  1  0.87267469  0.24050641  0.51456706  1
  O  O225  1  0.87373353  0.74341652  0.01115833  1
  O  O226  1  0.86349958  0.74790983  0.50849621  1
  O  O227  1  0.12850496  0.24474445  0.49630876  1
  O  O228  1  0.13138135  0.24817568  0.98735966  1
  O  O229  1  0.12925856  0.74521101  0.49567338  1
  O  O230  1  0.13556417  0.75893380  0.98982428  1
  O  O231  1  0.61953383  0.23817014  0.49325581  1
  O  O232  1  0.63845005  0.23446321  1.00757261  1
  O  O233  1  0.63485524  0.73828850  0.50488027  1
  O  O234  1  0.62450252  0.74531349  0.98648337  1
  O  O235  1  0.49479206  0.24303136  0.13193342  1
  O  O236  1  0.49104458  0.24071173  0.62891396  1
  O  O237  1  0.49863229  0.75368806  0.14193515  1
  O  O238  1  0.49493857  0.74535733  0.63151298  1
  O  O239  1  0.98575990  0.25647769  0.11577590  1
  O  O240  1  0.98433091  0.25888196  0.62185373  1
  O  O241  1  0.99465164  0.75111059  0.12926366  1
  O  O242  1  0.98138919  0.75861300  0.61918139  1
  O  O243  1  0.00855216  0.26076897  0.38269133  1
  O  O244  1  0.00709176  0.25881500  0.88224612  1
  O  O245  1  0.00266623  0.75670534  0.37157085  1
  O  O246  1  0.00926752  0.75071502  0.87597126  1
  O  O247  1  0.51215369  0.24814370  0.36871198  1
  O  O248  1  0.49905067  0.25011821  0.86224997  1
  O  O249  1  0.49917934  0.76237615  0.36450939  1
  O  O250  1  0.50742081  0.75432973  0.86848408  1
  O  O251  1  0.24259577  0.13112057  0.49716487  1
  O  O252  1  0.24729378  0.13454058  0.99713023  1
  O  O253  1  0.24302256  0.63350777  0.49265671  1
  O  O254  1  0.25198778  0.63732124  0.99369368  1
  O  O255  1  0.74087742  0.12317590  0.48629578  1
  O  O256  1  0.74491877  0.12873019  0.99158615  1
  O  O257  1  0.74403709  0.63175671  0.49204598  1
  O  O258  1  0.73203746  0.63049009  1.00232704  1
  O  O259  1  0.24467789  0.36021358  0.00852625  1
  O  O260  1  0.25600473  0.37169266  0.50761396  1
  O  O261  1  0.25555513  0.87252300  0.00695906  1
  O  O262  1  0.24828389  0.87028863  0.51054291  1
  O  O263  1  0.75101853  0.36499690  0.00557432  1
  O  O264  1  0.74777428  0.38186286  0.51342379  1
  O  O265  1  0.74391793  0.87244280  0.01028117  1
  O  O266  1  0.74178446  0.86561650  0.50551063  1
  O  O267  1  0.13426872  0.49713619  0.24003830  1
  O  O268  1  0.12258086  0.48684758  0.75067583  1
  O  O269  1  0.13284523  0.99235566  0.25515279  1
  O  O270  1  0.13068346  0.99166286  0.74973015  1
  O  O271  1  0.64044129  0.50041969  0.25647574  1
  O  O272  1  0.63120625  0.49156673  0.74323694  1
  O  O273  1  0.62541456  0.99234284  0.24008896  1
  O  O274  1  0.63073842  0.99702750  0.73770090  1
  O  O275  1  0.37042519  0.00696284  0.25993011  1
  O  O276  1  0.36451041  0.00718541  0.74389071  1
  O  O277  1  0.35582368  0.45436031  0.26830353  1
  O  O278  1  0.37913337  0.50371832  0.76797203  1
  O  O279  1  0.87445753  0.00873206  0.26221633  1
  O  O280  1  0.86829673  0.01087455  0.75226399  1
  O  O281  1  0.86872188  0.50901246  0.25555372  1
  O  O282  1  0.86656494  0.49842331  0.75619443  1
  O  O283  1  0.11914210  0.36674474  0.37372819  1
  O  O284  1  0.11970980  0.37021622  0.86929841  1
  O  O285  1  0.11952510  0.86820054  0.37117362  1
  O  O286  1  0.12736167  0.86442055  0.86403176  1
  O  O287  1  0.62274652  0.36728956  0.37387179  1
  O  O288  1  0.62899326  0.37524483  0.85846391  1
  O  O289  1  0.61820203  0.88509832  0.36442595  1
  O  O290  1  0.61429390  0.86746460  0.87009537  1
  O  O291  1  0.38079596  0.13217866  0.13239481  1
  O  O292  1  0.38021860  0.12985319  0.62853454  1
  O  O293  1  0.37556494  0.62966754  0.12589635  1
  O  O294  1  0.38232685  0.63852310  0.61994657  1
  O  O295  1  0.87184800  0.13704832  0.13501359  1
  O  O296  1  0.86838124  0.13682744  0.63709122  1
  O  O297  1  0.87518363  0.63221790  0.13509112  1
  O  O298  1  0.86848519  0.63862352  0.62209170  1
  O  O299  1  0.25801863  0.25103287  0.11519983  1
  O  O300  1  0.25588697  0.25770832  0.61932896  1
  O  O301  1  0.24730754  0.76100816  0.11854306  1
  O  O302  1  0.25750431  0.75837179  0.62356221  1
  O  O303  1  0.75966723  0.25340436  0.11814367  1
  O  O304  1  0.75638009  0.26147786  0.62235315  1
  O  O305  1  0.75852684  0.75924712  0.12292692  1
  O  O306  1  0.75513442  0.75764272  0.61641172  1
  O  O307  1  0.24181189  0.24579931  0.38515787  1
  O  O308  1  0.24259740  0.24670775  0.88085037  1
  O  O309  1  0.24470612  0.74611026  0.38181364  1
  O  O310  1  0.24505207  0.74143930  0.88128618  1
  O  O311  1  0.73898937  0.24490468  0.37053410  1
  O  O312  1  0.75718110  0.23872776  0.88302744  1
  O  O313  1  0.75818763  0.74288247  0.38226582  1
  O  O314  1  0.73259142  0.75533996  0.87216151  1
  O  O315  1  -0.00122583  0.10525350  -0.00858037  1
  O  O316  1  0.00874410  0.11476205  0.49623000  1
  O  O317  1  -0.00223639  0.61007626  0.00210471  1
  O  O318  1  0.00784423  0.61593139  0.49398086  1
  O  O319  1  0.50717785  0.12081198  0.00319147  1
  O  O320  1  0.50590098  0.12612574  0.51152503  1
  O  O321  1  0.51624953  0.62813260  0.00316886  1
  O  O322  1  0.50647391  0.62387796  0.50698462  1
  O  O323  1  0.49422351  0.38614537  0.50514010  1
  O  O324  1  0.50574392  0.37271387  0.99787322  1
  O  O325  1  0.50312337  0.87135216  0.48653775  1
  O  O326  1  0.49335727  0.87765724  0.99426708  1
  O  O327  1  1.00441531  0.38843059  0.48557423  1
  O  O328  1  0.99639962  0.38563170  0.98794096  1
  O  O329  1  1.00539066  0.88255507  0.48741407  1
  O  O330  1  0.99937241  0.88976658  0.99402065  1
  O  O331  1  0.50526380  0.50083214  0.38913850  1
  O  O332  1  0.49160239  0.48844003  0.87584430  1
  O  O333  1  0.49130992  0.99287277  0.37084077  1
  O  O334  1  0.50629428  0.98955240  0.88224946  1
  O  O335  1  0.99255915  0.49677426  0.38028265  1
  O  O336  1  0.99256243  0.49363813  0.88143431  1
  O  O337  1  0.99390097  0.99257901  0.38427649  1
  O  O338  1  0.98866085  0.99334433  0.87956999  1
  O  O339  1  -0.00622905  -0.00589168  0.11284014  1
  O  O340  1  -0.00175314  -0.00966002  0.61179696  1
  O  O341  1  0.00833944  0.50001245  0.11749248  1
  O  O342  1  -0.00346694  0.49089534  0.61180470  1
  O  O343  1  0.50462035  0.00446291  0.11849145  1
  O  O344  1  0.50879420  0.00514467  0.62666528  1
  O  O345  1  0.50054952  0.50144407  0.12700896  1
  O  O346  1  0.50440823  0.50903619  0.61807748  1
  O  O347  1  0.23594519  0.35740361  0.22742137  1
  O  O348  1  0.24109958  0.37135128  0.74016231  1
  O  O349  1  0.24625796  0.87813109  0.24462828  1
  O  O350  1  0.24600949  0.87904168  0.74525771  1
  O  O351  1  0.75205877  0.38527771  0.24394537  1
  O  O352  1  0.74096523  0.38108468  0.74014000  1
  O  O353  1  0.74127135  0.87809900  0.24125158  1
  O  O354  1  0.74175157  0.88206032  0.73935940  1
  O  O355  1  0.25754495  0.12202306  0.25909125  1
  O  O356  1  0.25693186  0.11367303  0.74925147  1
  O  O357  1  0.25020668  0.62642480  0.26891755  1
  O  O358  1  0.25188082  0.62788809  0.76108879  1
  O  O359  1  0.75661152  0.12281467  0.26199630  1
  O  O360  1  0.75164620  0.12094867  0.75577451  1
  O  O361  1  0.75573021  0.62267685  0.25445959  1
  O  O362  1  0.74966606  0.60873690  0.74183024  1
  O  O363  1  0.37222233  0.12124112  0.37273960  1
  O  O364  1  0.37286744  0.12460963  0.86124543  1
  O  O365  1  0.36192299  0.62854706  0.38538108  1
  O  O366  1  0.36501123  0.63127869  0.87196875  1
  O  O367  1  0.86848036  0.12247411  0.37001619  1
  O  O368  1  0.86799930  0.11858769  0.86175145  1
  O  O369  1  0.86740746  0.62007981  0.36353108  1
  O  O370  1  0.87412991  0.61223285  0.87128953  1
  O  O371  1  0.12916801  0.38432057  0.12322270  1
  O  O372  1  0.13275238  0.37631098  0.63327437  1
  O  O373  1  0.13209021  0.88146059  0.13402337  1
  O  O374  1  0.13297388  0.87305372  0.63803416  1
  O  O375  1  0.64363176  0.36443283  0.13237722  1
  O  O376  1  0.63634130  0.37826033  0.62812201  1
  O  O377  1  0.63132939  0.88079439  0.12958992  1
  O  O378  1  0.63078496  0.88209851  0.62854601  1
  O  O379  1  0.12489732  0.24576759  0.26526519  1
  O  O380  1  0.12820798  0.25957730  0.76295518  1
  O  O381  1  0.11879226  0.75561412  0.25557495  1
  O  O382  1  0.12487496  0.75623924  0.75927682  1
  O  O383  1  0.61848826  0.24767672  0.25871276  1
  O  O384  1  0.62890718  0.26310521  0.74247734  1
  O  O385  1  0.61763953  0.76446144  0.24802989  1
  O  O386  1  0.61611577  0.75333544  0.75704466  1
  O  O387  1  0.38407442  0.24720737  0.24473906  1
  O  O388  1  0.37048637  0.23883785  0.73771698  1
  O  O389  1  0.38990983  0.75895039  0.25052008  1
  O  O390  1  0.38828718  0.75537165  0.74372926  1
  O  O391  1  0.87420627  0.24360208  0.23734131  1
  O  O392  1  0.87181732  0.23712483  0.74408769  1
  O  O393  1  0.88130346  0.74309740  0.24213130  1
  O  O394  1  0.87183030  0.74571320  0.73348371  1
  O  O395  1  0.38419498  0.49170803  0.50788692  1
  O  O396  1  0.38021689  0.50837088  0.97651381  1
  O  O397  1  0.36997551  1.00060268  0.48934970  1
  O  O398  1  0.37908568  0.98756357  1.00436810  1
  O  O399  1  0.88180971  0.50915245  0.48696910  1
  O  O400  1  0.87925757  0.49766247  0.99265183  1
  O  O401  1  0.88156317  1.00790043  0.48850804  1
  O  O402  1  0.88142144  1.00329275  0.98888195  1
  O  O403  1  0.10995359  0.00118204  0.00210553  1
  O  O404  1  0.11641762  0.00935513  0.50384996  1
  O  O405  1  0.11697523  0.49533493  0.00743129  1
  O  O406  1  0.11427937  0.50898705  0.50329314  1
  O  O407  1  0.62024462  0.00939809  0.00605071  1
  O  O408  1  0.62771673  0.01138997  0.51054151  1
  O  O409  1  0.62476354  0.51290255  -0.00282031  1
  O  O410  1  0.62015386  0.51197237  0.50572711  1
  O  O411  1  0.36626438  0.36060710  0.12508257  1
  O  O412  1  0.36903639  0.36842035  0.62229586  1
  O  O413  1  0.36639087  0.87166376  0.11849585  1
  O  O414  1  0.36865503  0.86638406  0.62436826  1
  O  O415  1  0.86742753  0.36256916  0.12423618  1
  O  O416  1  0.86237407  0.36164499  0.63000518  1
  O  O417  1  0.86488799  0.86559248  0.13225600  1
  O  O418  1  0.86142017  0.86827239  0.62755206  1
  O  O419  1  0.13025171  0.13177324  0.38707365  1
  O  O420  1  0.12680343  0.13317721  0.87521941  1
  O  O421  1  0.12941963  0.63265228  0.38487580  1
  O  O422  1  0.13713265  0.63351144  0.87269934  1
  O  O423  1  0.63111851  0.12872850  0.38143073  1
  O  O424  1  0.63443987  0.11967262  0.88245873  1
  O  O425  1  0.63920364  0.62360030  0.38258966  1
  O  O426  1  0.61920177  0.63562587  0.87470863  1
