# generated using pymatgen
data_V85Zn86O256
_symmetry_space_group_name_H-M   'P 1'
_cell_length_a   16.94290018
_cell_length_b   16.94994926
_cell_length_c   16.94308435
_cell_angle_alpha   89.94814149
_cell_angle_beta   90.00263630
_cell_angle_gamma   89.96441307
_symmetry_Int_Tables_number   1
_chemical_formula_structural   V85Zn86O256
_chemical_formula_sum   'V85 Zn86 O256'
_cell_volume   4865.73402579
_cell_formula_units_Z   1
loop_
 _symmetry_equiv_pos_site_id
 _symmetry_equiv_pos_as_xyz
  1  'x, y, z'
loop_
 _atom_site_type_symbol
 _atom_site_label
 _atom_site_symmetry_multiplicity
 _atom_site_fract_x
 _atom_site_fract_y
 _atom_site_fract_z
 _atom_site_occupancy
  V  V0  1  0.75448160  0.62037510  0.87370889  1
  V  V1  1  0.87445439  0.62437069  0.25694535  1
  V  V2  1  0.12460782  0.24712767  0.37797460  1
  V  V3  1  0.63751581  0.73481582  0.38449746  1
  V  V4  1  0.37560132  0.13001233  0.74861004  1
  V  V5  1  0.87039789  0.87584168  0.50360642  1
  V  V6  1  0.62158650  0.49957481  0.12325925  1
  V  V7  1  0.50145136  0.75424408  0.25693297  1
  V  V8  1  0.62534050  -0.00025594  0.12448297  1
  V  V9  1  0.25404917  0.62229559  0.87097660  1
  V  V10  1  0.49575305  0.12898652  0.12318892  1
  V  V11  1  0.49278610  0.24978971  0.24710434  1
  V  V12  1  0.11858402  0.25734712  0.87807094  1
  V  V13  1  0.87537701  0.62163756  0.74920871  1
  V  V14  1  0.88234866  0.37555645  -0.00652987  1
  V  V15  1  0.12987955  0.50122414  0.62983437  1
  V  V16  1  0.74786484  0.25166312  -0.00925061  1
  V  V17  1  0.25440183  0.37187732  0.62879885  1
  V  V18  1  0.25177020  0.75072834  -0.00552480  1
  V  V19  1  0.62433615  0.24667441  0.37479751  1
  V  V20  1  0.00016170  0.87272677  0.37571661  1
  V  V21  1  0.62351533  0.87567609  0.26152004  1
  V  V22  1  0.38249703  0.49634888  0.89056331  1
  V  V23  1  0.25842988  0.24790052  0.00745358  1
  V  V24  1  0.87850692  0.00330991  0.37010468  1
  V  V25  1  0.75308041  0.00227647  0.24955722  1
  V  V26  1  0.74944866  0.87434646  0.12525630  1
  V  V27  1  0.49753420  0.62170256  0.11738123  1
  V  V28  1  0.24530903  0.62700811  0.38859917  1
  V  V29  1  -0.00743731  0.37413325  0.37940494  1
  V  V30  1  0.24960515  0.12546129  0.87762769  1
  V  V31  1  0.12334668  0.75170870  0.86984335  1
  V  V32  1  0.74869545  0.01130366  0.74324822  1
  V  V33  1  0.51866386  0.25128872  0.75287055  1
  V  V34  1  0.25050217  0.24848452  0.50315485  1
  V  V35  1  0.62170706  0.87727499  0.74579364  1
  V  V36  1  0.87248671  0.24560737  0.13007153  1
  V  V37  1  0.36782434  0.86832082  0.48779440  1
  V  V38  1  0.87138743  0.24572336  0.63474368  1
  V  V39  1  0.37585873  -0.00423425  0.87008022  1
  V  V40  1  0.87158670  0.01079793  0.87103806  1
  V  V41  1  0.50289212  0.51535240  0.50560544  1
  V  V42  1  0.12268688  0.37526337  0.24878512  1
  V  V43  1  0.37327530  0.49890841  0.37198902  1
  V  V44  1  0.75024810  0.50402613  0.25649514  1
  V  V45  1  0.50238255  -0.00043778  -0.00293777  1
  V  V46  1  0.37734996  0.87542741  -0.00397048  1
  V  V47  1  0.74916158  0.87449685  0.62568476  1
  V  V48  1  0.37176577  0.62735063  0.24895167  1
  V  V49  1  0.12573708  -0.00201617  0.12654023  1
  V  V50  1  0.25803273  -0.00214773  0.25343967  1
  V  V51  1  -0.00108990  -0.00062361  0.00034034  1
  V  V52  1  0.00122664  0.12472075  0.63618504  1
  V  V53  1  0.62753130  0.12763078  -0.00999736  1
  V  V54  1  0.25705891  0.12048905  0.37764666  1
  V  V55  1  0.37709169  0.75063139  0.12214120  1
  V  V56  1  0.62417336  0.11730929  0.50941802  1
  V  V57  1  0.75207177  0.37579274  0.12538801  1
  V  V58  1  0.49923336  0.37537013  0.37666442  1
  V  V59  1  0.00169438  0.50068217  -0.00084163  1
  V  V60  1  0.82166867  0.69579907  0.56775221  1
  V  V61  1  0.01228484  0.49624453  0.50078270  1
  V  V62  1  0.49407568  -0.01390364  0.49486672  1
  V  V63  1  0.01202713  0.63111512  0.61963097  1
  V  V64  1  0.75740756  0.25043272  0.50116154  1
  V  V65  1  0.26787087  0.49772955  0.75102748  1
  V  V66  1  0.49795708  0.73145261  0.74562344  1
  V  V67  1  0.25086190  0.87545935  0.12353104  1
  V  V68  1  0.12456278  0.12452458  0.00306009  1
  V  V69  1  -0.00473643  0.12149296  0.13456627  1
  V  V70  1  0.12267315  0.88221187  0.74104366  1
  V  V71  1  0.75394232  0.12567067  0.36826536  1
  V  V72  1  0.87360524  0.87501986  -0.00219635  1
  V  V73  1  0.51433538  0.36927248  0.88056027  1
  V  V74  1  -0.00390072  0.75203575  0.74649889  1
  V  V75  1  0.12015137  0.62727983  0.00679175  1
  V  V76  1  0.24453351  0.00299554  0.74014218  1
  V  V77  1  0.12766855  0.74688214  0.38936801  1
  V  V78  1  0.87878247  0.74200763  0.12410914  1
  V  V79  1  0.25740859  0.37194167  0.12964464  1
  V  V80  1  0.00506165  0.74341758  0.24687107  1
  V  V81  1  0.82344792  0.42812267  0.55351432  1
  V  V82  1  0.00512251  0.00286404  0.50504510  1
  V  V83  1  -0.00290731  0.24683464  0.25188437  1
  V  V84  1  0.62708857  0.62670626  0.00162950  1
  Zn  Zn85  1  0.24500824  0.50159330  0.24919033  1
  Zn  Zn86  1  0.37664236  0.12274392  0.25013091  1
  Zn  Zn87  1  0.50429682  0.12390923  0.62553455  1
  Zn  Zn88  1  0.88136731  0.49615332  0.86871217  1
  Zn  Zn89  1  0.37883370  0.24992420  0.62719914  1
  Zn  Zn90  1  0.25009904  0.87430582  0.61538567  1
  Zn  Zn91  1  0.12871337  0.11885816  0.50764919  1
  Zn  Zn92  1  0.62732292  0.75201035  0.87495601  1
  Zn  Zn93  1  0.86990431  0.50084390  0.38198022  1
  Zn  Zn94  1  0.12700641  0.87169905  0.25166352  1
  Zn  Zn95  1  0.50209066  0.87210285  0.86853171  1
  Zn  Zn96  1  0.37689266  0.74797919  0.62310327  1
  Zn  Zn97  1  -0.01190164  0.25452088  0.76189952  1
  Zn  Zn98  1  0.66865031  0.47360783  0.68183459  1
  Zn  Zn99  1  0.62475206  0.37437968  0.24866748  1
  Zn  Zn100  1  0.12060617  0.37916737  0.75793596  1
  Zn  Zn101  1  -0.00200758  0.87761099  0.87246623  1
  Zn  Zn102  1  0.74941572  0.13824616  0.86032014  1
  Zn  Zn103  1  0.75085534  0.75002278  -0.00033014  1
  Zn  Zn104  1  0.12159395  0.50478432  0.12758281  1
  Zn  Zn105  1  0.38074096  0.37038383  0.00879704  1
  Zn  Zn106  1  0.37527389  0.37406972  0.50200691  1
  Zn  Zn107  1  0.18701562  0.18623594  0.19035468  1
  Zn  Zn108  1  0.18337161  0.18694534  0.69072804  1
  Zn  Zn109  1  0.18975274  0.69101329  0.18847213  1
  Zn  Zn110  1  0.22595166  0.66571847  0.65605519  1
  Zn  Zn111  1  0.68274977  0.18703092  0.18578039  1
  Zn  Zn112  1  0.68925037  0.31283837  0.68028908  1
  Zn  Zn113  1  0.68889378  0.68857088  0.19034750  1
  Zn  Zn114  1  0.68005163  0.68254909  0.69430962  1
  Zn  Zn115  1  0.31174973  0.30959883  0.31332649  1
  Zn  Zn116  1  0.31168303  0.31458897  0.81822221  1
  Zn  Zn117  1  0.31139267  0.81142313  0.31483316  1
  Zn  Zn118  1  0.29520269  0.79627878  0.77901650  1
  Zn  Zn119  1  0.81194523  0.31320233  0.31039161  1
  Zn  Zn120  1  0.80359248  0.33058407  0.80653521  1
  Zn  Zn121  1  0.81259247  0.81242392  0.31346386  1
  Zn  Zn122  1  0.80957399  0.80964661  0.81269443  1
  Zn  Zn123  1  0.18728687  0.43507776  0.43701061  1
  Zn  Zn124  1  0.19132825  0.43750321  0.94357677  1
  Zn  Zn125  1  0.18648476  0.93586229  0.43524128  1
  Zn  Zn126  1  0.18801034  0.93732626  0.93216555  1
  Zn  Zn127  1  0.67906245  0.43299569  0.44026750  1
  Zn  Zn128  1  0.69139706  0.44327170  0.93945044  1
  Zn  Zn129  1  0.68762456  0.93797452  0.43895059  1
  Zn  Zn130  1  0.68895853  0.93898009  0.93175887  1
  Zn  Zn131  1  0.31507767  0.06129146  0.06279678  1
  Zn  Zn132  1  0.32106903  0.05913445  0.56169840  1
  Zn  Zn133  1  0.30490449  0.56106438  0.06334118  1
  Zn  Zn134  1  0.32802520  0.55769288  0.56275793  1
  Zn  Zn135  1  0.81149799  0.06378680  0.06018980  1
  Zn  Zn136  1  0.81417410  0.06518122  0.56265072  1
  Zn  Zn137  1  0.81352860  0.56133578  0.06377779  1
  Zn  Zn138  1  0.67120359  0.58672662  0.54306696  1
  Zn  Zn139  1  0.43831584  0.43815139  0.18961511  1
  Zn  Zn140  1  0.47585913  0.45574672  0.70844515  1
  Zn  Zn141  1  0.43937745  0.93754859  0.18686780  1
  Zn  Zn142  1  0.43798572  0.94005105  0.67409310  1
  Zn  Zn143  1  0.93983088  0.44008031  0.18282850  1
  Zn  Zn144  1  0.94661132  0.43600703  0.69280133  1
  Zn  Zn145  1  0.93809513  0.93114327  0.18900317  1
  Zn  Zn146  1  0.93196121  0.93873765  0.68640798  1
  Zn  Zn147  1  0.06961301  0.06074205  0.31441253  1
  Zn  Zn148  1  0.06075076  0.06626670  0.81476751  1
  Zn  Zn149  1  0.06129677  0.56259968  0.31299027  1
  Zn  Zn150  1  0.06496815  0.56252061  0.81338046  1
  Zn  Zn151  1  0.56275800  0.06243981  0.31474051  1
  Zn  Zn152  1  0.56537624  0.06108389  0.80819382  1
  Zn  Zn153  1  0.56106389  0.56384780  0.31027887  1
  Zn  Zn154  1  0.56689184  0.56189416  0.81736766  1
  Zn  Zn155  1  0.43692931  0.18630736  0.43815211  1
  Zn  Zn156  1  0.43977097  0.18758536  0.93362725  1
  Zn  Zn157  1  0.43612964  0.69267735  0.43378303  1
  Zn  Zn158  1  0.43991429  0.68775237  0.92901936  1
  Zn  Zn159  1  0.93745853  0.18471190  0.44167958  1
  Zn  Zn160  1  0.93615294  0.18649818  0.94499006  1
  Zn  Zn161  1  0.94475781  0.68198057  0.43455541  1
  Zn  Zn162  1  0.94008166  0.68645881  0.93656335  1
  Zn  Zn163  1  0.06310464  0.31234047  0.06361381  1
  Zn  Zn164  1  0.06346114  0.31137387  0.56844738  1
  Zn  Zn165  1  0.06179976  0.81254120  0.06140431  1
  Zn  Zn166  1  0.06208068  0.81690226  0.56346805  1
  Zn  Zn167  1  0.56512838  0.31128521  0.06123925  1
  Zn  Zn168  1  0.56148390  0.31541408  0.56351523  1
  Zn  Zn169  1  0.56222457  0.81213805  0.06474971  1
  Zn  Zn170  1  0.56244688  0.80708673  0.56344945  1
  O  O171  1  0.11738523  0.11816138  0.12151744  1
  O  O172  1  0.10708106  0.13002750  0.62479862  1
  O  O173  1  0.13421404  0.62758852  0.11024246  1
  O  O174  1  0.12578964  0.61174774  0.62655758  1
  O  O175  1  0.61725504  0.11744020  0.11690879  1
  O  O176  1  0.62862740  0.12850678  0.60636897  1
  O  O177  1  0.61745184  0.62029444  0.12215536  1
  O  O178  1  0.64341787  0.58868607  0.64946532  1
  O  O179  1  0.37984108  0.38377627  0.37275637  1
  O  O180  1  0.37536072  0.38481128  0.88409177  1
  O  O181  1  0.37584403  0.87091522  0.38695718  1
  O  O182  1  0.37662774  0.88916834  0.87652808  1
  O  O183  1  0.89007257  0.37718227  0.36630684  1
  O  O184  1  0.87065149  0.37674492  0.88998084  1
  O  O185  1  0.88042112  0.87989925  0.38272150  1
  O  O186  1  0.87282248  0.88018355  0.88756444  1
  O  O187  1  0.24242259  0.00807423  0.36464472  1
  O  O188  1  0.25830319  0.00947183  0.87198050  1
  O  O189  1  0.25525816  0.50898600  0.37160314  1
  O  O190  1  0.25919899  0.50276299  0.87265307  1
  O  O191  1  0.75793888  0.00692726  0.37040087  1
  O  O192  1  0.75687494  0.00398463  0.86347646  1
  O  O193  1  0.75125056  0.48904667  0.35970618  1
  O  O194  1  0.75900978  0.51496360  0.88232122  1
  O  O195  1  0.24272524  0.48827926  0.12846437  1
  O  O196  1  0.24862601  0.49182862  0.63399020  1
  O  O197  1  0.24563109  0.99470718  0.12983239  1
  O  O198  1  0.25250839  0.99939832  0.63755864  1
  O  O199  1  0.74501031  0.49182445  0.13210968  1
  O  O200  1  0.76711811  0.49380970  0.60042293  1
  O  O201  1  0.74690483  0.99548436  0.13095158  1
  O  O202  1  0.75901184  0.99175857  0.63650670  1
  O  O203  1  0.00596279  0.36846202  0.25448938  1
  O  O204  1  0.00871075  0.36513873  0.74925085  1
  O  O205  1  0.00046533  0.86204591  0.25865538  1
  O  O206  1  0.00402270  0.87141850  0.75012401  1
  O  O207  1  0.50174853  0.36792418  0.25898213  1
  O  O208  1  0.48644898  0.35365175  0.76693081  1
  O  O209  1  0.51074615  0.86639338  0.24254950  1
  O  O210  1  0.51665094  0.88912494  0.74445318  1
  O  O211  1  0.50124017  0.13063841  0.24176197  1
  O  O212  1  0.49541497  0.13614535  0.75123284  1
  O  O213  1  0.48845570  0.63074894  0.24080495  1
  O  O214  1  0.49742947  0.63316417  0.75638462  1
  O  O215  1  1.00477713  0.12734378  0.24083216  1
  O  O216  1  0.99876224  0.13130425  0.74004265  1
  O  O217  1  0.99382417  0.63564857  0.25086043  1
  O  O218  1  1.00022927  0.63299187  0.73898751  1
  O  O219  1  0.36140015  0.24615030  -0.00246589  1
  O  O220  1  0.36247385  0.25054934  0.50239200  1
  O  O221  1  0.37076841  0.75501887  0.00061991  1
  O  O222  1  0.38079077  0.76464592  0.50134999  1
  O  O223  1  0.86975404  0.25682805  0.01159342  1
  O  O224  1  0.86254263  0.24598369  0.50395563  1
  O  O225  1  0.87708360  0.75748757  0.00774032  1
  O  O226  1  0.87846747  0.75466813  0.50186831  1
  O  O227  1  0.13630310  0.24797645  0.49602899  1
  O  O228  1  0.13131220  0.24326996  0.99523668  1
  O  O229  1  0.12096199  0.75193375  0.48913530  1
  O  O230  1  0.13054128  0.74636051  0.99155138  1
  O  O231  1  0.63553928  0.24347211  0.48788512  1
  O  O232  1  0.63771273  0.24018832  1.00655786  1
  O  O233  1  0.62061700  0.74689900  0.48406465  1
  O  O234  1  0.62687534  0.73752434  1.00349973  1
  O  O235  1  0.50890060  0.24163901  0.13519121  1
  O  O236  1  0.49870115  0.24982926  0.64001493  1
  O  O237  1  0.49455833  0.74203441  0.13335914  1
  O  O238  1  0.50022809  0.74832214  0.64015026  1
  O  O239  1  0.99270685  0.24085231  0.12983032  1
  O  O240  1  0.99006141  0.23939350  0.62347397  1
  O  O241  1  0.99095510  0.75718934  0.13452761  1
  O  O242  1  1.01072011  0.74142054  0.63297959  1
  O  O243  1  0.00366177  0.25451120  0.37268790  1
  O  O244  1  0.01451437  0.24072400  0.88084038  1
  O  O245  1  0.00915176  0.75136608  0.36837702  1
  O  O246  1  0.00842803  0.75215404  0.86870281  1
  O  O247  1  0.50662115  0.25480023  0.37000518  1
  O  O248  1  0.50261170  0.25640928  0.86654668  1
  O  O249  1  0.50933435  0.74426232  0.35986286  1
  O  O250  1  0.50828956  0.75298155  0.86506934  1
  O  O251  1  0.24891607  0.12750852  0.49599875  1
  O  O252  1  0.24406162  0.12978258  0.99983156  1
  O  O253  1  0.25162527  0.62011119  0.48573966  1
  O  O254  1  0.24389750  0.63129589  0.98953908  1
  O  O255  1  0.74259584  0.12972264  0.48969026  1
  O  O256  1  0.74306970  0.13497165  0.99989473  1
  O  O257  1  0.76892403  0.63585061  0.50857574  1
  O  O258  1  0.74337859  0.62780680  0.99812965  1
  O  O259  1  0.25018047  0.36436078  0.01320744  1
  O  O260  1  0.25095673  0.36571836  0.50639675  1
  O  O261  1  0.25700380  0.86969955  0.00168758  1
  O  O262  1  0.26224973  0.87927075  0.49826040  1
  O  O263  1  0.75553114  0.37019944  0.01015941  1
  O  O264  1  0.76258123  0.36929560  0.48860242  1
  O  O265  1  0.75699829  0.87484773  0.00631239  1
  O  O266  1  0.76215101  0.88127697  0.50663643  1
  O  O267  1  0.12389114  0.49009500  0.24872206  1
  O  O268  1  0.13592218  0.49840654  0.74494818  1
  O  O269  1  0.13518784  0.99602140  0.24187429  1
  O  O270  1  0.13142013  0.99525542  0.75769304  1
  O  O271  1  0.63229540  0.50022385  0.23960990  1
  O  O272  1  0.57936948  0.47455208  0.75300129  1
  O  O273  1  0.62970418  0.99315809  0.24568640  1
  O  O274  1  0.64109855  0.99383897  0.75098280  1
  O  O275  1  0.36248355  0.00081448  0.24453226  1
  O  O276  1  0.36979543  0.00951762  0.75444717  1
  O  O277  1  0.37420637  0.50863959  0.25921468  1
  O  O278  1  0.37026626  0.49288888  0.76283318  1
  O  O279  1  0.87198438  -0.00710994  0.26318184  1
  O  O280  1  0.86226890  -0.00786837  0.76167012  1
  O  O281  1  0.86950940  0.50872904  0.24694265  1
  O  O282  1  0.88709829  0.51792000  0.74854001  1
  O  O283  1  0.11916044  0.36793355  0.36465225  1
  O  O284  1  0.13023481  0.35947145  0.88211470  1
  O  O285  1  0.11806919  0.86464947  0.37331655  1
  O  O286  1  0.12043363  0.86546414  0.87220961  1
  O  O287  1  0.61625137  0.36498252  0.37093918  1
  O  O288  1  0.61265511  0.37812432  0.88727161  1
  O  O289  1  0.62954440  0.87038906  0.36370735  1
  O  O290  1  0.62546779  0.87350686  0.86252632  1
  O  O291  1  0.39189546  0.12069563  0.12492311  1
  O  O292  1  0.37917326  0.12821369  0.63498946  1
  O  O293  1  0.37938964  0.62817347  0.12853049  1
  O  O294  1  0.33641905  0.64025040  0.63082084  1
  O  O295  1  0.88322979  0.13269652  0.12110755  1
  O  O296  1  0.88605426  0.13522309  0.62058767  1
  O  O297  1  0.87287644  0.63810292  0.13170219  1
  O  O298  1  0.88502195  0.63942904  0.63066700  1
  O  O299  1  0.24479269  0.25643694  0.11913187  1
  O  O300  1  0.24699533  0.25448492  0.61952674  1
  O  O301  1  0.25823032  0.75655173  0.11718472  1
  O  O302  1  0.25816309  0.77239116  0.66821470  1
  O  O303  1  0.75597091  0.25590457  0.12143107  1
  O  O304  1  0.75914743  0.24731159  0.61285072  1
  O  O305  1  0.75995255  0.75867940  0.12559069  1
  O  O306  1  0.75505252  0.75174018  0.62464885  1
  O  O307  1  0.24454875  0.24320926  0.38293186  1
  O  O308  1  0.24163632  0.24337915  0.88669648  1
  O  O309  1  0.24242310  0.73550489  0.37001316  1
  O  O310  1  0.24435603  0.74141581  0.87300062  1
  O  O311  1  0.74566726  0.24378511  0.37656225  1
  O  O312  1  0.75822014  0.25275725  0.88728147  1
  O  O313  1  0.73629695  0.75139640  0.37046686  1
  O  O314  1  0.74761313  0.73820529  0.88069550  1
  O  O315  1  0.00405844  0.11795763  0.01380152  1
  O  O316  1  0.00332283  0.11710070  0.50838406  1
  O  O317  1  0.01089834  0.62033896  -0.00062206  1
  O  O318  1  -0.00276616  0.61486290  0.51319002  1
  O  O319  1  0.50836585  0.12255348  0.00472908  1
  O  O320  1  0.51561342  0.13063874  0.50012280  1
  O  O321  1  0.50591194  0.62966646  0.01191301  1
  O  O322  1  0.49173548  0.61407294  0.49614656  1
  O  O323  1  0.49561894  0.37576754  0.48509107  1
  O  O324  1  0.49521127  0.36150442  0.98642006  1
  O  O325  1  0.49676352  0.88205459  0.49899892  1
  O  O326  1  0.49471310  0.88071072  0.99742266  1
  O  O327  1  1.00985106  0.38047063  0.48996743  1
  O  O328  1  0.99194239  0.38076544  1.00414008  1
  O  O329  1  0.98882401  0.88161055  0.49789127  1
  O  O330  1  0.99073901  0.88237062  0.99918446  1
  O  O331  1  0.49217306  0.49331877  0.37586344  1
  O  O332  1  0.48652749  0.48626269  0.88065674  1
  O  O333  1  0.50502518  1.00891775  0.39582378  1
  O  O334  1  0.49289701  1.00064400  0.87968264  1
  O  O335  1  1.00160567  0.49252282  0.38472140  1
  O  O336  1  0.99917178  0.50520782  0.89025248  1
  O  O337  1  0.99464727  0.99582978  0.38047854  1
  O  O338  1  0.99007504  1.00039113  0.88135138  1
  O  O339  1  0.00332399  0.00437349  0.12345233  1
  O  O340  1  -0.01000716  0.01509566  0.61956197  1
  O  O341  1  0.00615083  0.49748569  0.10939395  1
  O  O342  1  0.01218830  0.50625215  0.62010807  1
  O  O343  1  0.50659205  0.00611204  0.11719169  1
  O  O344  1  0.50073656  0.00837142  0.60274755  1
  O  O345  1  0.50887184  0.50871797  0.13102433  1
  O  O346  1  0.48428486  0.49639207  0.60169515  1
  O  O347  1  0.24160809  0.37361219  0.24635847  1
  O  O348  1  0.24596131  0.38105343  0.74596722  1
  O  O349  1  0.24968395  0.88060689  0.24363793  1
  O  O350  1  0.23538165  0.89375862  0.76444213  1
  O  O351  1  0.74848058  0.37942694  0.23774462  1
  O  O352  1  0.74155403  0.39227473  0.74127532  1
  O  O353  1  0.74413765  0.88203709  0.24429758  1
  O  O354  1  0.74331628  0.87724946  0.74244858  1
  O  O355  1  0.25205385  0.11695895  0.25715802  1
  O  O356  1  0.25512090  0.11943837  0.75648006  1
  O  O357  1  0.26284685  0.62400632  0.24960800  1
  O  O358  1  0.24371105  0.61133829  0.76696858  1
  O  O359  1  0.74526397  0.11962206  0.26021861  1
  O  O360  1  0.74867158  0.10991036  0.74553522  1
  O  O361  1  0.76081122  0.61507431  0.24290363  1
  O  O362  1  0.76579654  0.63497858  0.76107687  1
  O  O363  1  0.36107904  0.12808887  0.37309819  1
  O  O364  1  0.37040674  0.11519677  0.87029613  1
  O  O365  1  0.36519595  0.62158650  0.36723415  1
  O  O366  1  0.36806408  0.60872103  0.88304492  1
  O  O367  1  0.86676625  0.11557349  0.37845675  1
  O  O368  1  0.87024241  0.11433456  0.88277222  1
  O  O369  1  0.87950182  0.62017815  0.36159817  1
  O  O370  1  0.87198137  0.62435589  0.86704822  1
  O  O371  1  0.13123115  0.37083709  0.13888233  1
  O  O372  1  0.13614767  0.38525835  0.62597503  1
  O  O373  1  0.13280979  0.88025411  0.12502203  1
  O  O374  1  0.12646041  0.87815764  0.63770103  1
  O  O375  1  0.63217708  0.38318862  0.12508377  1
  O  O376  1  0.63759673  0.38240047  0.60627888  1
  O  O377  1  0.63224917  0.88042264  0.13167643  1
  O  O378  1  0.64120015  0.86855633  0.62757947  1
  O  O379  1  0.11671628  0.25425697  0.25750514  1
  O  O380  1  0.12793787  0.24796847  0.77224740  1
  O  O381  1  0.11784838  0.75004836  0.25515937  1
  O  O382  1  0.11318368  0.76245936  0.76123328  1
  O  O383  1  0.61730371  0.24967240  0.26081467  1
  O  O384  1  0.61687356  0.24880221  0.75007517  1
  O  O385  1  0.61894785  0.75790110  0.25256665  1
  O  O386  1  0.61417234  0.75876203  0.75107039  1
  O  O387  1  0.38905750  0.24596922  0.25468548  1
  O  O388  1  0.37050354  0.23585192  0.75485621  1
  O  O389  1  0.38160131  0.74514432  0.24435033  1
  O  O390  1  0.40007650  0.76111935  0.75667364  1
  O  O391  1  0.88023460  0.25249888  0.23751616  1
  O  O392  1  0.86913624  0.25552754  0.73836255  1
  O  O393  1  0.88144380  0.74370791  0.24472121  1
  O  O394  1  0.89108820  0.74474861  0.75730059  1
  O  O395  1  0.38158020  0.49610560  0.48444064  1
  O  O396  1  0.37006138  0.49461644  0.99336278  1
  O  O397  1  0.38589913  0.98867384  0.49627438  1
  O  O398  1  0.38134908  0.99581197  0.99134027  1
  O  O399  1  0.89033206  0.48767323  0.49938726  1
  O  O400  1  0.88351165  0.49128954  1.00325466  1
  O  O401  1  0.88251345  0.99363512  0.49038123  1
  O  O402  1  0.87794033  0.99261666  0.99430526  1
  O  O403  1  0.11967782  0.00387614  0.00605818  1
  O  O404  1  0.10879745  -0.00310278  0.49709365  1
  O  O405  1  0.12101449  0.51047959  -0.00030633  1
  O  O406  1  0.11838574  0.49685743  0.50787207  1
  O  O407  1  0.62215155  0.00624530  0.00410774  1
  O  O408  1  0.62190411  0.01281032  0.49633223  1
  O  O409  1  0.63028692  0.51230282  0.01459698  1
  O  O410  1  0.60909235  0.50854140  0.48685909  1
  O  O411  1  0.36266273  0.37677406  0.12855217  1
  O  O412  1  0.35974392  0.37049452  0.62437394  1
  O  O413  1  0.37110778  0.86984125  0.11677257  1
  O  O414  1  0.37300980  0.87390646  0.60881446  1
  O  O415  1  0.86803979  0.36756879  0.11881072  1
  O  O416  1  0.87867559  0.36987035  0.61944888  1
  O  O417  1  0.86970796  0.86920543  0.11552547  1
  O  O418  1  0.86514854  0.87317040  0.61669792  1
  O  O419  1  0.13531433  0.13206721  0.37896676  1
  O  O420  1  0.13070621  0.13020211  0.88566476  1
  O  O421  1  0.13873274  0.62943534  0.37003363  1
  O  O422  1  0.13132813  0.63547011  0.88291450  1
  O  O423  1  0.63480883  0.13186336  0.37871175  1
  O  O424  1  0.62937106  0.12117632  0.88677814  1
  O  O425  1  0.62824118  0.63558328  0.36726602  1
  O  O426  1  0.63344737  0.62343425  0.88575276  1
