# generated using pymatgen
data_V85Zn86O256
_symmetry_space_group_name_H-M   'P 1'
_cell_length_a   16.95444441
_cell_length_b   16.93116672
_cell_length_c   16.95009343
_cell_angle_alpha   90.02183768
_cell_angle_beta   89.98347554
_cell_angle_gamma   89.97343192
_symmetry_Int_Tables_number   1
_chemical_formula_structural   V85Zn86O256
_chemical_formula_sum   'V85 Zn86 O256'
_cell_volume   4865.66773652
_cell_formula_units_Z   1
loop_
 _symmetry_equiv_pos_site_id
 _symmetry_equiv_pos_as_xyz
  1  'x, y, z'
loop_
 _atom_site_type_symbol
 _atom_site_label
 _atom_site_symmetry_multiplicity
 _atom_site_fract_x
 _atom_site_fract_y
 _atom_site_fract_z
 _atom_site_occupancy
  V  V0  1  0.12240095  0.12141134  0.00542031  1
  V  V1  1  0.50510761  0.37084692  0.87741764  1
  V  V2  1  0.12999404  0.00121673  0.62872745  1
  V  V3  1  0.50138032  0.75126915  0.24877966  1
  V  V4  1  0.24810292  0.74919366  0.49509874  1
  V  V5  1  -0.00291946  0.24179939  0.75069381  1
  V  V6  1  0.24984362  0.11212690  0.87083623  1
  V  V7  1  0.11747358  0.75648585  0.36656930  1
  V  V8  1  0.75451291  0.87249037  0.62787162  1
  V  V9  1  0.36946713  0.49486173  0.36939113  1
  V  V10  1  -0.01042262  0.87254788  0.87312095  1
  V  V11  1  0.62714418  0.37011144  0.74560993  1
  V  V12  1  0.26159683  0.11202394  0.37008694  1
  V  V13  1  0.12916480  0.87960920  0.75005144  1
  V  V14  1  0.74488283  0.25686838  0.50920570  1
  V  V15  1  -0.00483857  -0.00391464  0.00024210  1
  V  V16  1  0.37596578  0.49763358  0.87629327  1
  V  V17  1  0.49782376  0.12512845  0.62621128  1
  V  V18  1  0.62485959  0.12675301  0.49965335  1
  V  V19  1  0.75173428  0.37271840  0.12793523  1
  V  V20  1  0.62405266  -0.00248674  0.62737474  1
  V  V21  1  0.12347196  0.37438524  0.75050399  1
  V  V22  1  -0.00075941  0.37862272  0.37934070  1
  V  V23  1  0.76129846  0.87469815  0.13191269  1
  V  V24  1  0.00219855  0.24726340  0.25283814  1
  V  V25  1  0.74913678  0.49720088  0.74012439  1
  V  V26  1  0.25665126  0.25124946  0.49714663  1
  V  V27  1  0.49708138  0.23512349  0.24921999  1
  V  V28  1  0.25033504  0.49850928  0.75093299  1
  V  V29  1  0.87630476  0.64559481  0.24590137  1
  V  V30  1  0.11794675  0.51049715  0.62293384  1
  V  V31  1  0.12647578  0.50291867  0.13613295  1
  V  V32  1  0.62314321  0.75351417  0.87675890  1
  V  V33  1  0.88374370  0.62257069  0.74690587  1
  V  V34  1  0.75733617  0.00741566  0.74706093  1
  V  V35  1  0.12416777  0.75036531  0.87415355  1
  V  V36  1  0.88508580  0.74577186  0.62247109  1
  V  V37  1  0.62992663  -0.00553357  0.14291431  1
  V  V38  1  0.48567915  0.88330236  0.88414453  1
  V  V39  1  0.76281863  0.75898193  -0.00019815  1
  V  V40  1  0.62423559  0.50062080  0.12495845  1
  V  V41  1  0.87476425  0.50044635  0.37215923  1
  V  V42  1  0.62664982  0.11413650  -0.00611808  1
  V  V43  1  0.12781161  0.25154643  0.37624573  1
  V  V44  1  0.75122508  0.50054655  0.24752999  1
  V  V45  1  0.12340855  0.88118473  0.23510178  1
  V  V46  1  0.86838526  0.37939996  0.50376301  1
  V  V47  1  0.49608908  -0.00020112  0.49827286  1
  V  V48  1  0.36448831  0.62505911  0.24778480  1
  V  V49  1  0.25507575  0.76781129  0.00031202  1
  V  V50  1  0.37293851  0.76420507  0.11974025  1
  V  V51  1  0.61797013  0.37680239  0.24960513  1
  V  V52  1  0.49993992  0.49899048  0.00044176  1
  V  V53  1  0.87201588  0.25008203  0.62967737  1
  V  V54  1  0.00078332  0.11668731  0.13101418  1
  V  V55  1  0.00087071  0.49792750  0.00416011  1
  V  V56  1  0.49911517  0.62689484  0.12560147  1
  V  V57  1  0.25136076  0.37937071  0.13281075  1
  V  V58  1  0.61749467  0.62279382  0.50880139  1
  V  V59  1  0.25175259  0.62523160  0.87973261  1
  V  V60  1  0.26102870  -0.00530860  0.23376416  1
  V  V61  1  -0.00272116  0.63863757  0.12729576  1
  V  V62  1  0.50009672  0.24548513  0.76254832  1
  V  V63  1  0.62442112  0.74917027  0.37160156  1
  V  V64  1  0.75141388  0.74837381  0.49947456  1
  V  V65  1  0.75097829  0.62184236  0.87494678  1
  V  V66  1  0.25115356  0.25029027  0.00202978  1
  V  V67  1  0.74766191  0.62561918  0.37270587  1
  V  V68  1  0.62881902  0.24927526  0.37240433  1
  V  V69  1  0.62587056  0.62698299  0.00146075  1
  V  V70  1  0.37580612  0.23857035  0.13223952  1
  V  V71  1  0.74614896  0.24937266  -0.00629086  1
  V  V72  1  0.50184417  0.74646381  0.74718998  1
  V  V73  1  0.25093767  0.37576902  0.62029747  1
  V  V74  1  0.37641182  0.25456994  0.62572030  1
  V  V75  1  0.48838492  0.49788156  0.50662129  1
  V  V76  1  0.87590845  0.24287511  0.12606591  1
  V  V77  1  0.12610111  0.25066039  0.87624167  1
  V  V78  1  0.37798864  0.74698088  0.62166857  1
  V  V79  1  0.49960435  0.87765913  0.37381794  1
  V  V80  1  0.37369305  0.87804113  0.49620787  1
  V  V81  1  0.87658416  0.01172794  0.87014332  1
  V  V82  1  0.37849421  0.62343682  0.74506471  1
  V  V83  1  0.36832271  0.11111669  0.74898488  1
  V  V84  1  0.12481964  0.12445981  0.50162927  1
  Zn  Zn85  1  0.47037787  0.07647898  0.08239309  1
  Zn  Zn86  1  -0.00946411  0.88272920  0.36618470  1
  Zn  Zn87  1  -0.00074954  0.37552176  0.87875004  1
  Zn  Zn88  1  0.86730094  0.89877257  0.47726179  1
  Zn  Zn89  1  0.75015447  0.13191933  0.86701326  1
  Zn  Zn90  1  -0.00715985  0.51317696  0.50388552  1
  Zn  Zn91  1  -0.00723467  0.12058779  0.62628950  1
  Zn  Zn92  1  0.74686189  0.08954329  0.35533100  1
  Zn  Zn93  1  0.25325349  0.87905875  0.62952670  1
  Zn  Zn94  1  -0.00234603  0.00004418  0.49300363  1
  Zn  Zn95  1  0.00371228  0.74686972  0.74460552  1
  Zn  Zn96  1  0.37648889  0.37027432  0.00164905  1
  Zn  Zn97  1  0.62284212  0.87541300  0.75164979  1
  Zn  Zn98  1  0.12852779  0.38128729  0.25589212  1
  Zn  Zn99  1  0.61909481  0.49956005  0.62547948  1
  Zn  Zn100  1  0.24564951  0.62337921  0.37142599  1
  Zn  Zn101  1  0.91261112  0.06054843  0.31408035  1
  Zn  Zn102  1  0.87756420  0.49917730  0.87666173  1
  Zn  Zn103  1  0.49600033  0.37388513  0.37957997  1
  Zn  Zn104  1  0.11392556  0.63495998  0.49872208  1
  Zn  Zn105  1  0.87593472  0.37606777  0.00015398  1
  Zn  Zn106  1  0.12653377  0.62628198  0.00353018  1
  Zn  Zn107  1  0.18835916  0.18360496  0.18947566  1
  Zn  Zn108  1  0.18769305  0.18749021  0.68760176  1
  Zn  Zn109  1  0.18661467  0.69477596  0.18352994  1
  Zn  Zn110  1  0.19391053  0.69132707  0.68983233  1
  Zn  Zn111  1  0.68344504  0.18163451  0.18195688  1
  Zn  Zn112  1  0.68489878  0.18891810  0.68679035  1
  Zn  Zn113  1  0.69132694  0.69540364  0.18663472  1
  Zn  Zn114  1  0.68969217  0.68456509  0.68817913  1
  Zn  Zn115  1  0.31279203  0.31257277  0.31183249  1
  Zn  Zn116  1  0.31467424  0.30751485  0.81390229  1
  Zn  Zn117  1  0.31152030  0.81551127  0.31045702  1
  Zn  Zn118  1  0.31219959  0.81282112  0.81210599  1
  Zn  Zn119  1  0.81487430  0.23025600  0.31486738  1
  Zn  Zn120  1  0.81570408  0.31874507  0.81474595  1
  Zn  Zn121  1  0.80969552  0.91482762  0.30825304  1
  Zn  Zn122  1  0.81180002  0.81192165  0.80856308  1
  Zn  Zn123  1  0.18858509  0.43932899  0.44061754  1
  Zn  Zn124  1  0.18503151  0.43792288  0.94393814  1
  Zn  Zn125  1  0.18382137  0.93533638  0.43815935  1
  Zn  Zn126  1  0.17964185  0.93854557  0.93724003  1
  Zn  Zn127  1  0.68485264  0.43789107  0.43691814  1
  Zn  Zn128  1  0.68627165  0.43544403  0.93592134  1
  Zn  Zn129  1  0.68003716  0.93084680  0.44329832  1
  Zn  Zn130  1  0.68789684  0.93833658  0.93449286  1
  Zn  Zn131  1  0.30680299  0.05431350  0.05291120  1
  Zn  Zn132  1  0.31060850  0.06240317  0.56195231  1
  Zn  Zn133  1  0.31344003  0.56326261  0.06363277  1
  Zn  Zn134  1  0.30788948  0.56495971  0.56059163  1
  Zn  Zn135  1  0.81364243  0.05866603  0.06588513  1
  Zn  Zn136  1  0.80971770  0.06913058  0.55587451  1
  Zn  Zn137  1  0.81508470  0.56572666  0.06304104  1
  Zn  Zn138  1  0.81080766  0.56524598  0.56210801  1
  Zn  Zn139  1  0.43426621  0.43506097  0.18731072  1
  Zn  Zn140  1  0.43888570  0.43481286  0.68802241  1
  Zn  Zn141  1  0.43906897  0.93613339  0.19275686  1
  Zn  Zn142  1  0.43941222  0.93123199  0.68829141  1
  Zn  Zn143  1  0.93871863  0.43566765  0.18932062  1
  Zn  Zn144  1  0.93766626  0.43418124  0.68903467  1
  Zn  Zn145  1  0.93787820  0.92849654  0.18110456  1
  Zn  Zn146  1  0.93933286  0.93881238  0.67845450  1
  Zn  Zn147  1  0.07928030  0.05873367  0.31376202  1
  Zn  Zn148  1  0.06563142  0.06120580  0.81345826  1
  Zn  Zn149  1  0.05878307  0.57038299  0.31447478  1
  Zn  Zn150  1  0.06434563  0.56113549  0.81496694  1
  Zn  Zn151  1  0.56575647  0.05936429  0.31180200  1
  Zn  Zn152  1  0.56510057  0.06266971  0.81448262  1
  Zn  Zn153  1  0.55623258  0.56356348  0.31620732  1
  Zn  Zn154  1  0.56385510  0.56191964  0.81280278  1
  Zn  Zn155  1  0.43847391  0.18952717  0.43624321  1
  Zn  Zn156  1  0.42698582  0.15908814  0.94632620  1
  Zn  Zn157  1  0.43609843  0.68312203  0.43498828  1
  Zn  Zn158  1  0.43812321  0.69094529  0.93683462  1
  Zn  Zn159  1  0.93791754  0.19119271  0.44522978  1
  Zn  Zn160  1  0.93707100  0.18955936  0.93919799  1
  Zn  Zn161  1  0.93688511  0.69358175  0.43257636  1
  Zn  Zn162  1  0.93960437  0.68222950  0.93679389  1
  Zn  Zn163  1  0.06545311  0.31293491  0.06723863  1
  Zn  Zn164  1  0.06213323  0.31399978  0.56358044  1
  Zn  Zn165  1  0.06452575  0.81466257  0.05691994  1
  Zn  Zn166  1  0.06025986  0.82239690  0.55479484  1
  Zn  Zn167  1  0.56100235  0.30506996  0.06304613  1
  Zn  Zn168  1  0.55819619  0.31688681  0.56467320  1
  Zn  Zn169  1  0.56481149  0.81958241  0.06225447  1
  Zn  Zn170  1  0.56205851  0.81062768  0.56292473  1
  O  O171  1  0.11503016  0.13076436  0.11484083  1
  O  O172  1  0.12776484  0.12012255  0.61703569  1
  O  O173  1  0.11461774  0.62150643  0.12647307  1
  O  O174  1  0.13144512  0.61211830  0.63028645  1
  O  O175  1  0.63642626  0.10435843  0.11351524  1
  O  O176  1  0.61641649  0.11778817  0.62040604  1
  O  O177  1  0.61992544  0.62012165  0.12153321  1
  O  O178  1  0.62673903  0.62291937  0.61249546  1
  O  O179  1  0.37572522  0.39049823  0.37067494  1
  O  O180  1  0.38543607  0.37944863  0.87587142  1
  O  O181  1  0.38506692  0.86600131  0.38851599  1
  O  O182  1  0.38612247  0.87225978  0.87146022  1
  O  O183  1  0.88428717  0.38219450  0.38931253  1
  O  O184  1  0.88100254  0.38222281  0.88205311  1
  O  O185  1  0.87798845  0.85383404  0.37497981  1
  O  O186  1  0.88692814  0.88001392  0.86710509  1
  O  O187  1  0.24977079  0.01068146  0.37725941  1
  O  O188  1  0.24619576  0.01302314  0.88059685  1
  O  O189  1  0.26472698  0.50410406  0.38283148  1
  O  O190  1  0.25403079  0.50461999  0.87063719  1
  O  O191  1  0.75661749  -0.01551220  0.38517946  1
  O  O192  1  0.76034763  -0.00071018  0.86469169  1
  O  O193  1  0.75252952  0.50680479  0.36740038  1
  O  O194  1  0.74764085  0.51221967  0.87136777  1
  O  O195  1  0.24035625  0.49192072  0.11850366  1
  O  O196  1  0.24480052  0.49229677  0.63088117  1
  O  O197  1  0.25057800  1.00540580  0.13457021  1
  O  O198  1  0.23672365  0.99700280  0.61973856  1
  O  O199  1  0.74494657  0.49311062  0.12734434  1
  O  O200  1  0.74585972  0.50312447  0.63765634  1
  O  O201  1  0.74344601  0.98365196  0.11544248  1
  O  O202  1  0.74280472  0.99243496  0.62921560  1
  O  O203  1  0.00392359  0.36927544  0.26367246  1
  O  O204  1  0.01337876  0.36978710  0.75175032  1
  O  O205  1  0.01923270  0.88014419  0.24766791  1
  O  O206  1  0.01067423  0.87072626  0.75685428  1
  O  O207  1  0.51062058  0.37400752  0.25074878  1
  O  O208  1  0.50434602  0.36674669  0.75803401  1
  O  O209  1  0.49549118  0.86016501  0.26064884  1
  O  O210  1  0.50188379  0.85913763  0.75485492  1
  O  O211  1  0.50405404  0.13532932  0.25266445  1
  O  O212  1  0.49356347  0.13002021  0.74588675  1
  O  O213  1  0.49116147  0.63459042  0.24621855  1
  O  O214  1  0.49143347  0.63503252  0.75623596  1
  O  O215  1  1.00505084  0.12973342  0.24435906  1
  O  O216  1  1.00626988  0.13899175  0.74886935  1
  O  O217  1  0.98643005  0.62431952  0.23917396  1
  O  O218  1  0.98736249  0.62432655  0.75485720  1
  O  O219  1  0.36272119  0.24658127  0.00830107  1
  O  O220  1  0.36433490  0.24711240  0.50796060  1
  O  O221  1  0.36631918  0.74452490  0.00760041  1
  O  O222  1  0.37065558  0.75217120  0.50585032  1
  O  O223  1  0.86586332  0.25181525  0.00910019  1
  O  O224  1  0.86343890  0.26075550  0.50730035  1
  O  O225  1  0.86040151  0.74452960  -0.00686803  1
  O  O226  1  0.85887466  0.73962113  0.50806810  1
  O  O227  1  0.13784182  0.24556723  0.49879667  1
  O  O228  1  0.13318247  0.24441118  0.99782859  1
  O  O229  1  0.13291409  0.75563389  0.48766196  1
  O  O230  1  0.13448110  0.74776765  0.98823124  1
  O  O231  1  0.62685912  0.24988172  0.49666660  1
  O  O232  1  0.64411931  0.24394546  1.01037929  1
  O  O233  1  0.63026476  0.74092361  0.49704308  1
  O  O234  1  0.62995405  0.74383556  0.99149372  1
  O  O235  1  0.48910152  0.25544281  0.13697232  1
  O  O236  1  0.49128852  0.24586698  0.63134051  1
  O  O237  1  0.49707297  0.74684379  0.13127248  1
  O  O238  1  0.48787666  0.75062917  0.63115060  1
  O  O239  1  0.99568435  0.24193983  0.13166275  1
  O  O240  1  0.99286493  0.25105163  0.63377279  1
  O  O241  1  1.00305733  0.73730968  0.11748224  1
  O  O242  1  0.98753439  0.75551308  0.62335647  1
  O  O243  1  0.00677868  0.25717914  0.37050789  1
  O  O244  1  0.00714223  0.25241591  0.86927704  1
  O  O245  1  0.01657230  0.75055859  0.36925327  1
  O  O246  1  0.00788930  0.75511978  0.87559310  1
  O  O247  1  0.50933610  0.25362414  0.36996482  1
  O  O248  1  0.49099453  0.25348031  0.86596461  1
  O  O249  1  0.50439559  0.75287690  0.36860708  1
  O  O250  1  0.50732518  0.75419481  0.86710878  1
  O  O251  1  0.24371946  0.13180271  0.49228844  1
  O  O252  1  0.23764092  0.13264338  0.99397508  1
  O  O253  1  0.24356207  0.63934792  0.49963803  1
  O  O254  1  0.25047151  0.62631707  0.98726369  1
  O  O255  1  0.73734436  0.13928995  0.50297475  1
  O  O256  1  0.74470856  0.13454817  0.99812065  1
  O  O257  1  0.73910975  0.62819130  0.49314873  1
  O  O258  1  0.74522096  0.63179037  0.99345356  1
  O  O259  1  0.24981586  0.36485426  0.00943335  1
  O  O260  1  0.24727090  0.36756557  0.51274897  1
  O  O261  1  0.24852898  0.86708437  -0.00665873  1
  O  O262  1  0.25825230  0.86605473  0.50065492  1
  O  O263  1  0.74802047  0.36626827  0.00996656  1
  O  O264  1  0.75657147  0.37173528  0.50052107  1
  O  O265  1  0.74957286  0.86096414  -0.00548757  1
  O  O266  1  0.75009718  0.86285127  0.51178485  1
  O  O267  1  0.12058274  0.50243935  0.23982885  1
  O  O268  1  0.13075351  0.49396281  0.74258775  1
  O  O269  1  0.14021150  0.98743116  0.24920881  1
  O  O270  1  0.12516935  0.99112147  0.74473370  1
  O  O271  1  0.62864180  0.49587552  0.24628587  1
  O  O272  1  0.63094791  0.49400741  0.74838288  1
  O  O273  1  0.63837976  1.00196517  0.24207047  1
  O  O274  1  0.63056082  0.99921467  0.73811014  1
  O  O275  1  0.36071715  -0.00387563  0.25013528  1
  O  O276  1  0.37580761  0.01213651  0.73807542  1
  O  O277  1  0.37999132  0.50823037  0.26187950  1
  O  O278  1  0.37076938  0.50536283  0.75478426  1
  O  O279  1  0.86671304  -0.00943584  0.24194662  1
  O  O280  1  0.86777706  -0.00405463  0.75434873  1
  O  O281  1  0.86593272  0.49818961  0.25606800  1
  O  O282  1  0.86759275  0.50455632  0.75030398  1
  O  O283  1  0.11970857  0.37083203  0.37728137  1
  O  O284  1  0.12633760  0.37009107  0.86685984  1
  O  O285  1  0.12526812  0.86654189  0.36619695  1
  O  O286  1  0.11674512  0.86760390  0.86828424  1
  O  O287  1  0.62070659  0.37038485  0.36494498  1
  O  O288  1  0.61123942  0.37737641  0.86666026  1
  O  O289  1  0.61316556  0.85687697  0.38409634  1
  O  O290  1  0.62350318  0.86178017  0.87173976  1
  O  O291  1  0.37247638  0.13773385  0.13291264  1
  O  O292  1  0.37724453  0.13562609  0.62935432  1
  O  O293  1  0.38337466  0.62848955  0.13147602  1
  O  O294  1  0.36853964  0.62960976  0.63783712  1
  O  O295  1  0.88407661  0.13554219  0.12074673  1
  O  O296  1  0.87567222  0.14615039  0.62096585  1
  O  O297  1  0.88430010  0.62307796  0.13629852  1
  O  O298  1  0.86669741  0.63362060  0.63579757  1
  O  O299  1  0.25439830  0.25486949  0.12129342  1
  O  O300  1  0.25619025  0.25644467  0.61883882  1
  O  O301  1  0.26033743  0.74466794  0.11056170  1
  O  O302  1  0.26220927  0.75294917  0.61836863  1
  O  O303  1  0.75875156  0.25578027  0.11883635  1
  O  O304  1  0.75335477  0.25358600  0.61735081  1
  O  O305  1  0.74242931  0.75926091  0.10632423  1
  O  O306  1  0.75268147  0.75573866  0.61998651  1
  O  O307  1  0.24724644  0.24609558  0.38168886  1
  O  O308  1  0.24418849  0.24717924  0.88513289  1
  O  O309  1  0.24554081  0.74917517  0.38181762  1
  O  O310  1  0.24542162  0.74237200  0.87992183  1
  O  O311  1  0.73318007  0.26280983  0.39083831  1
  O  O312  1  0.75690631  0.25103203  0.89030805  1
  O  O313  1  0.73785453  0.74074476  0.38577446  1
  O  O314  1  0.74410683  0.74115339  0.87949361  1
  O  O315  1  0.00579760  0.12179150  0.00729129  1
  O  O316  1  0.01626448  0.13178415  0.50425168  1
  O  O317  1  0.00083765  0.61771499  0.01218227  1
  O  O318  1  0.00111447  0.62559713  0.49615410  1
  O  O319  1  0.52846131  0.14763032  0.00605514  1
  O  O320  1  0.50383948  0.12008616  0.50547241  1
  O  O321  1  0.50631047  0.62084092  0.00459180  1
  O  O322  1  0.50660280  0.61273369  0.49525014  1
  O  O323  1  0.50085420  0.39264027  0.49793766  1
  O  O324  1  0.50018940  0.37644363  0.99252344  1
  O  O325  1  0.49338261  0.87802272  0.49437763  1
  O  O326  1  0.50052234  0.86897268  0.98306017  1
  O  O327  1  0.99557072  0.37810699  0.49063483  1
  O  O328  1  1.00136005  0.38453499  1.00322127  1
  O  O329  1  0.99378551  0.88089622  0.48805722  1
  O  O330  1  1.00676303  0.88525524  0.98774230  1
  O  O331  1  0.48635266  0.49930429  0.38411771  1
  O  O332  1  0.49593514  0.49170226  0.88019794  1
  O  O333  1  0.50816418  0.98525247  0.37957898  1
  O  O334  1  0.50563682  0.98041653  0.86453743  1
  O  O335  1  0.99403371  0.49383080  0.37557321  1
  O  O336  1  1.00311191  0.50054846  0.89027800  1
  O  O337  1  0.99832182  1.00673431  0.37318916  1
  O  O338  1  0.99307839  0.99412890  0.87762175  1
  O  O339  1  -0.00482153  0.01033879  0.11540040  1
  O  O340  1  0.01696552  0.00558745  0.62737717  1
  O  O341  1  0.00713881  0.50549468  0.12073204  1
  O  O342  1  0.01567403  0.49527977  0.62575875  1
  O  O343  1  0.52083973  -0.00532027  0.13836206  1
  O  O344  1  0.50737468  0.00274027  0.62148993  1
  O  O345  1  0.50410351  0.50513739  0.11955606  1
  O  O346  1  0.49495514  0.50047036  0.61152484  1
  O  O347  1  0.24678447  0.37194755  0.23740003  1
  O  O348  1  0.24139369  0.37592176  0.74209495  1
  O  O349  1  0.24506529  0.88840866  0.25205426  1
  O  O350  1  0.23465915  0.86711915  0.74887579  1
  O  O351  1  0.73565277  0.37868143  0.23557548  1
  O  O352  1  0.73858838  0.38509352  0.75989357  1
  O  O353  1  0.74717083  0.85772788  0.22886030  1
  O  O354  1  0.74463190  0.88305834  0.74317976  1
  O  O355  1  0.24368717  0.11124780  0.26270172  1
  O  O356  1  0.25581827  0.12888665  0.75809403  1
  O  O357  1  0.26195111  0.62887411  0.24602505  1
  O  O358  1  0.25814667  0.62055000  0.76122680  1
  O  O359  1  0.75144728  0.15081839  0.26212089  1
  O  O360  1  0.74537647  0.11244350  0.74851062  1
  O  O361  1  0.75943242  0.62259034  0.25042547  1
  O  O362  1  0.75599598  0.61734630  0.75849103  1
  O  O363  1  0.35939924  0.12857480  0.37894802  1
  O  O364  1  0.36029006  0.13418856  0.85766235  1
  O  O365  1  0.37159393  0.61720350  0.36420364  1
  O  O366  1  0.36995651  0.62015730  0.86579492  1
  O  O367  1  0.86426219  0.14187611  0.37678515  1
  O  O368  1  0.87419217  0.11529327  0.87325444  1
  O  O369  1  0.86897323  0.62257021  0.36093902  1
  O  O370  1  0.86654396  0.62151957  0.86676896  1
  O  O371  1  0.13222941  0.38507842  0.12923244  1
  O  O372  1  0.13259643  0.38226192  0.63205760  1
  O  O373  1  0.12842337  0.86732810  0.13648175  1
  O  O374  1  0.12619952  0.88143358  0.63283757  1
  O  O375  1  0.62879041  0.38087525  0.12942421  1
  O  O376  1  0.61749399  0.37943740  0.64125544  1
  O  O377  1  0.63555556  0.88882033  0.11843881  1
  O  O378  1  0.63299172  0.88101888  0.62589111  1
  O  O379  1  0.11609115  0.25194412  0.25554670  1
  O  O380  1  0.11947468  0.25805729  0.75371836  1
  O  O381  1  0.13718107  0.76488859  0.25995797  1
  O  O382  1  0.12342978  0.75241933  0.76024014  1
  O  O383  1  0.61652046  0.25818887  0.25552932  1
  O  O384  1  0.61310701  0.25602172  0.74789624  1
  O  O385  1  0.61462944  0.74059111  0.26049530  1
  O  O386  1  0.61718724  0.74639626  0.75621739  1
  O  O387  1  0.38598254  0.25638133  0.24489850  1
  O  O388  1  0.38214430  0.24381393  0.74133329  1
  O  O389  1  0.38038350  0.74344698  0.24196514  1
  O  O390  1  0.38014822  0.74227215  0.74258680  1
  O  O391  1  0.89448197  0.25841230  0.23946182  1
  O  O392  1  0.88491702  0.26175760  0.74202104  1
  O  O393  1  0.87181311  0.73994635  0.24682029  1
  O  O394  1  0.87598871  0.73991463  0.74161057  1
  O  O395  1  0.38311409  0.50865013  0.49061674  1
  O  O396  1  0.38265002  0.49768275  0.99335089  1
  O  O397  1  0.38292093  0.98958169  0.50655181  1
  O  O398  1  0.39949312  1.05574035  0.99676665  1
  O  O399  1  0.87244937  0.49595077  0.49382898  1
  O  O400  1  0.88695118  0.49952487  1.00248732  1
  O  O401  1  0.88629652  0.99647252  0.52927030  1
  O  O402  1  0.88753146  1.00560253  0.98855925  1
  O  O403  1  0.11067665  0.01259474  -0.00646624  1
  O  O404  1  0.12378052  0.00964527  0.50638862  1
  O  O405  1  0.11708993  0.50460669  0.01148529  1
  O  O406  1  0.12687715  0.50345890  0.51606635  1
  O  O407  1  0.62573752  0.01134861  -0.00094145  1
  O  O408  1  0.61739604  0.00431120  0.51161201  1
  O  O409  1  0.61970004  0.50602268  0.00458968  1
  O  O410  1  0.61295877  0.50668821  0.50063150  1
  O  O411  1  0.36589319  0.36947525  0.12186152  1
  O  O412  1  0.36636611  0.36307511  0.63191493  1
  O  O413  1  0.38031962  0.86320694  0.12505085  1
  O  O414  1  0.37487988  0.86553643  0.61442186  1
  O  O415  1  0.86665858  0.36580822  0.12437785  1
  O  O416  1  0.88192035  0.36924409  0.61124286  1
  O  O417  1  0.86063448  0.87172990  0.11625164  1
  O  O418  1  0.86239084  0.86225337  0.63224335  1
  O  O419  1  0.13724491  0.13362083  0.38390366  1
  O  O420  1  0.12981992  0.13286269  0.88200595  1
  O  O421  1  0.12936999  0.64023814  0.37146325  1
  O  O422  1  0.13426450  0.63263359  0.87526117  1
  O  O423  1  0.62611878  0.13300448  0.38265071  1
  O  O424  1  0.63246285  0.12233298  0.88738090  1
  O  O425  1  0.62628633  0.63176643  0.38318628  1
  O  O426  1  0.63128574  0.63418185  0.87897076  1
