# generated using pymatgen
data_V85Zn86O256
_symmetry_space_group_name_H-M   'P 1'
_cell_length_a   16.94787701
_cell_length_b   16.93900342
_cell_length_c   16.94649246
_cell_angle_alpha   89.97197042
_cell_angle_beta   90.00168071
_cell_angle_gamma   89.95481093
_symmetry_Int_Tables_number   1
_chemical_formula_structural   V85Zn86O256
_chemical_formula_sum   'V85 Zn86 O256'
_cell_volume   4864.99944369
_cell_formula_units_Z   1
loop_
 _symmetry_equiv_pos_site_id
 _symmetry_equiv_pos_as_xyz
  1  'x, y, z'
loop_
 _atom_site_type_symbol
 _atom_site_label
 _atom_site_symmetry_multiplicity
 _atom_site_fract_x
 _atom_site_fract_y
 _atom_site_fract_z
 _atom_site_occupancy
  V  V0  1  0.87567945  0.62394323  0.25101910  1
  V  V1  1  -0.00150398  0.49766697  0.00059281  1
  V  V2  1  0.73937326  0.88196419  0.63054180  1
  V  V3  1  0.62445417  0.12018521  0.51295474  1
  V  V4  1  0.86617095  0.25072815  0.13182117  1
  V  V5  1  0.75461111  0.24711592  0.50537084  1
  V  V6  1  0.36488827  0.87098785  0.50028940  1
  V  V7  1  0.01102481  0.00197841  0.00130185  1
  V  V8  1  0.75365364  0.12429042  0.37274323  1
  V  V9  1  0.37304414  0.62424050  0.24990028  1
  V  V10  1  0.87442044  0.50555992  0.87304512  1
  V  V11  1  0.12700089  0.75429430  0.87401258  1
  V  V12  1  0.75065398  0.87468833  0.12404471  1
  V  V13  1  0.04851221  0.93457933  0.43695043  1
  V  V14  1  0.87532974  0.87720535  -0.00070334  1
  V  V15  1  0.62985046  0.49584282  0.12279379  1
  V  V16  1  0.74626598  0.25882803  -0.00603329  1
  V  V17  1  0.49585800  0.37254187  0.37967541  1
  V  V18  1  -0.00021444  0.12465862  0.12929919  1
  V  V19  1  0.00057091  0.49815588  0.50391737  1
  V  V20  1  0.12582242  0.50077792  0.12792572  1
  V  V21  1  -0.00041052  0.62546477  0.12745643  1
  V  V22  1  0.87095692  0.74677100  0.62856002  1
  V  V23  1  -0.00653760  0.74800311  0.75283125  1
  V  V24  1  0.37918811  0.24942042  0.62096623  1
  V  V25  1  0.18158453  0.54156589  0.68391228  1
  V  V26  1  0.36792971  0.12755095  0.75877365  1
  V  V27  1  0.62593414  0.24716531  0.37479517  1
  V  V28  1  -0.00252465  0.36719438  0.87441459  1
  V  V29  1  0.50478024  0.36940674  0.87573000  1
  V  V30  1  0.50442019  0.24266525  0.74642653  1
  V  V31  1  0.75415883  0.37265721  0.62750068  1
  V  V32  1  0.25259996  0.01345788  0.23892421  1
  V  V33  1  0.49064027  0.24415886  0.24843838  1
  V  V34  1  0.24978168  0.50141206  0.25192785  1
  V  V35  1  0.12696677  0.23972763  0.37709879  1
  V  V36  1  0.00065005  0.37277824  0.37730190  1
  V  V37  1  0.62686152  0.37229004  0.75255681  1
  V  V38  1  0.49983783  0.74983687  0.25051668  1
  V  V39  1  0.12364504  0.37037345  0.25161876  1
  V  V40  1  0.17133023  0.31752062  0.80616815  1
  V  V41  1  0.25142758  0.36824753  0.12361989  1
  V  V42  1  0.12593704  0.13686979  -0.01177574  1
  V  V43  1  0.74932045  0.62455278  0.37601672  1
  V  V44  1  0.00389096  0.10590818  0.62009441  1
  V  V45  1  0.87559318  0.13030750  0.74446079  1
  V  V46  1  0.49541373  0.11997920  0.12456613  1
  V  V47  1  0.12949021  0.62548960  -0.00158129  1
  V  V48  1  0.62695462  0.87635636  0.24988160  1
  V  V49  1  0.49874641  0.75665953  0.75424442  1
  V  V50  1  0.49865558  0.88007436  0.37616210  1
  V  V51  1  0.87501563  -0.00355717  0.37517081  1
  V  V52  1  0.87335613  0.00372170  0.87258061  1
  V  V53  1  0.12984023  0.61711729  0.50213197  1
  V  V54  1  0.37078082  -0.01259633  0.87455856  1
  V  V55  1  0.37503356  0.49705543  0.37709648  1
  V  V56  1  -0.00349978  0.25465126  0.73711200  1
  V  V57  1  0.62522529  0.12677963  -0.00700070  1
  V  V58  1  0.37512933  0.75796023  0.12367035  1
  V  V59  1  0.12596847  0.88048841  0.73395886  1
  V  V60  1  0.75103045  0.50988259  0.74929221  1
  V  V61  1  0.62701398  0.37145927  0.24647784  1
  V  V62  1  0.36472059  0.74951801  0.62471659  1
  V  V63  1  0.87476339  0.37123199  0.50333971  1
  V  V64  1  0.25129505  0.75907101  0.00076970  1
  V  V65  1  0.25246207  0.63352818  0.37757487  1
  V  V66  1  0.49884984  0.49666286  0.50225889  1
  V  V67  1  0.87204129  0.87857906  0.50228466  1
  V  V68  1  0.62591505  0.62674489  -0.00757830  1
  V  V69  1  0.11707769  0.74457867  0.37985635  1
  V  V70  1  0.74873157  0.49643200  0.24854543  1
  V  V71  1  0.50072003  0.62343200  0.12574054  1
  V  V72  1  0.50267679  0.00238825  0.51348456  1
  V  V73  1  0.49826610  0.62648608  0.62994695  1
  V  V74  1  -0.00540977  0.61756744  0.63130755  1
  V  V75  1  0.62601706  0.75010602  0.37680487  1
  V  V76  1  0.37303837  0.02064390  0.37044504  1
  V  V77  1  -0.00144932  0.76177637  0.25499049  1
  V  V78  1  0.75433719  0.00469823  0.24761679  1
  V  V79  1  0.37235985  0.50488840  0.85730411  1
  V  V80  1  0.25366860  0.23890324  0.49535828  1
  V  V81  1  0.49388609  0.49889436  -0.00048580  1
  V  V82  1  0.24235432  0.37340453  0.61438346  1
  V  V83  1  0.24595353  0.00165541  0.73701242  1
  V  V84  1  0.87401072  0.49782977  0.37599616  1
  Zn  Zn85  1  0.75513522  0.63069205  0.87220530  1
  Zn  Zn86  1  0.62452683  0.62395525  0.50117490  1
  Zn  Zn87  1  0.12583133  0.11031825  0.50040967  1
  Zn  Zn88  1  0.74889647  0.75124614  -0.00327095  1
  Zn  Zn89  1  0.37722142  0.87742063  0.00129905  1
  Zn  Zn90  1  0.62479347  0.00129901  0.12213222  1
  Zn  Zn91  1  0.00061656  0.87769696  0.87395493  1
  Zn  Zn92  1  0.62508862  0.50158934  0.62449870  1
  Zn  Zn93  1  -0.00678451  0.24521186  0.25345961  1
  Zn  Zn94  1  0.87263315  0.74854927  0.12430799  1
  Zn  Zn95  1  0.37360857  0.37083631  0.00012957  1
  Zn  Zn96  1  0.37120182  0.24349938  0.12030980  1
  Zn  Zn97  1  0.60916885  0.89454427  0.75999594  1
  Zn  Zn98  1  0.74196166  0.00786130  0.74584241  1
  Zn  Zn99  1  0.74640803  0.13080326  0.87072998  1
  Zn  Zn100  1  0.62500028  0.76256342  0.87621213  1
  Zn  Zn101  1  0.25134853  0.62085062  0.86046211  1
  Zn  Zn102  1  0.51013751  -0.00879135  -0.01567395  1
  Zn  Zn103  1  0.87078255  0.37654008  0.00545062  1
  Zn  Zn104  1  0.13439805  0.89057868  0.22390254  1
  Zn  Zn105  1  0.74827867  0.74893355  0.50313365  1
  Zn  Zn106  1  0.24991059  0.24797272  -0.01608366  1
  Zn  Zn107  1  0.18144508  0.18339811  0.18426471  1
  Zn  Zn108  1  0.18826123  0.18025310  0.67779091  1
  Zn  Zn109  1  0.17468791  0.71740341  0.17547707  1
  Zn  Zn110  1  0.18409032  0.70571656  0.68326238  1
  Zn  Zn111  1  0.68424738  0.18505048  0.18416350  1
  Zn  Zn112  1  0.68889469  0.18961874  0.68921582  1
  Zn  Zn113  1  0.68790040  0.68702663  0.18514781  1
  Zn  Zn114  1  0.68029866  0.69112024  0.68747197  1
  Zn  Zn115  1  0.31140344  0.30992810  0.31381086  1
  Zn  Zn116  1  0.33211285  0.32265331  0.80592809  1
  Zn  Zn117  1  0.31396464  0.81380997  0.30909110  1
  Zn  Zn118  1  0.30842639  0.81126591  0.80658765  1
  Zn  Zn119  1  0.81111408  0.31157166  0.31266886  1
  Zn  Zn120  1  0.81688571  0.31467740  0.81423312  1
  Zn  Zn121  1  0.81368286  0.81380732  0.31330477  1
  Zn  Zn122  1  0.80874963  0.81457177  0.81460177  1
  Zn  Zn123  1  0.18856563  0.43561340  0.43852758  1
  Zn  Zn124  1  0.19168010  0.44260506  0.94116379  1
  Zn  Zn125  1  0.21354999  0.92297820  0.39626161  1
  Zn  Zn126  1  0.19115948  0.94187552  0.92937623  1
  Zn  Zn127  1  0.68383896  0.43544642  0.43777361  1
  Zn  Zn128  1  0.68628811  0.43937104  0.93566116  1
  Zn  Zn129  1  0.68774301  0.93746219  0.44185965  1
  Zn  Zn130  1  0.68836984  0.93985077  0.93289108  1
  Zn  Zn131  1  0.30862807  0.06418818  0.06007765  1
  Zn  Zn132  1  0.31957082  0.06459575  0.56391110  1
  Zn  Zn133  1  0.31134812  0.56469094  0.06401110  1
  Zn  Zn134  1  0.31957970  0.56338285  0.55847389  1
  Zn  Zn135  1  0.81408589  0.06615426  0.06031518  1
  Zn  Zn136  1  0.81852338  0.06295655  0.56293776  1
  Zn  Zn137  1  0.81095521  0.56190360  0.06103826  1
  Zn  Zn138  1  0.81158843  0.56208958  0.56269901  1
  Zn  Zn139  1  0.43866075  0.43378319  0.18835156  1
  Zn  Zn140  1  0.43698506  0.42993655  0.68172262  1
  Zn  Zn141  1  0.43564238  0.94116077  0.18693556  1
  Zn  Zn142  1  0.42802340  0.93652333  0.68671072  1
  Zn  Zn143  1  0.93663294  0.43330214  0.18712482  1
  Zn  Zn144  1  0.93497292  0.43579257  0.69184360  1
  Zn  Zn145  1  0.93601014  0.94169440  0.18594141  1
  Zn  Zn146  1  0.93326833  0.93445094  0.69059580  1
  Zn  Zn147  1  0.06762492  0.06501354  0.30383660  1
  Zn  Zn148  1  0.06014141  0.06344476  0.81061442  1
  Zn  Zn149  1  0.06160708  0.56182984  0.31381577  1
  Zn  Zn150  1  0.05661316  0.56448801  0.81799782  1
  Zn  Zn151  1  0.56598700  0.06336259  0.31337221  1
  Zn  Zn152  1  0.55970140  0.06223572  0.81147935  1
  Zn  Zn153  1  0.56240501  0.56098178  0.31310167  1
  Zn  Zn154  1  0.55959636  0.56151357  0.80934827  1
  Zn  Zn155  1  0.44228695  0.18979023  0.44430634  1
  Zn  Zn156  1  0.43672335  0.18709680  0.93833382  1
  Zn  Zn157  1  0.43958616  0.68740866  0.44144961  1
  Zn  Zn158  1  0.43491699  0.68400167  0.93623310  1
  Zn  Zn159  1  0.93819966  0.18386215  0.43973637  1
  Zn  Zn160  1  0.93434864  0.18865676  0.93874127  1
  Zn  Zn161  1  0.93622048  0.68686371  0.44261622  1
  Zn  Zn162  1  0.93846180  0.68898442  0.93945615  1
  Zn  Zn163  1  0.06001010  0.30915128  0.06372756  1
  Zn  Zn164  1  0.06813582  0.31050374  0.56194433  1
  Zn  Zn165  1  0.06031144  0.81404519  0.06329703  1
  Zn  Zn166  1  0.06182609  0.80165298  0.56457703  1
  Zn  Zn167  1  0.56256841  0.31012734  0.06391520  1
  Zn  Zn168  1  0.56794721  0.31219872  0.56359018  1
  Zn  Zn169  1  0.56158653  0.81540590  0.05860250  1
  Zn  Zn170  1  0.55836506  0.81240089  0.56303402  1
  O  O171  1  0.10550502  0.13196117  0.11279149  1
  O  O172  1  0.10940458  0.12184434  0.61977992  1
  O  O173  1  0.11749861  0.62347705  0.11945356  1
  O  O174  1  0.12265571  0.61699290  0.62250038  1
  O  O175  1  0.61629842  0.12432892  0.11353192  1
  O  O176  1  0.62935737  0.13016918  0.61156185  1
  O  O177  1  0.61906043  0.61711236  0.11819288  1
  O  O178  1  0.61472535  0.62269323  0.62064252  1
  O  O179  1  0.38902113  0.37937130  0.36788614  1
  O  O180  1  0.38620300  0.38984245  0.87927169  1
  O  O181  1  0.38532134  0.87606618  0.38491149  1
  O  O182  1  0.37246410  0.88497224  0.87074466  1
  O  O183  1  0.88015280  0.37856027  0.38112086  1
  O  O184  1  0.88232327  0.38574634  0.88070653  1
  O  O185  1  0.87022344  0.88591331  0.38480635  1
  O  O186  1  0.87721517  0.88386887  0.88265630  1
  O  O187  1  0.27026589  0.02046538  0.37695311  1
  O  O188  1  0.26164088  -0.00101864  0.85857233  1
  O  O189  1  0.25591520  0.50562446  0.37096298  1
  O  O190  1  0.26720496  0.49991290  0.87573310  1
  O  O191  1  0.75607572  0.00484956  0.37056631  1
  O  O192  1  0.76469301  0.00807475  0.87583635  1
  O  O193  1  0.75282847  0.50455816  0.36979758  1
  O  O194  1  0.75717561  0.50206540  0.86792187  1
  O  O195  1  0.24370400  0.49225654  0.13131621  1
  O  O196  1  0.25441397  0.48928410  0.62346217  1
  O  O197  1  0.26321505  0.99489447  0.14094195  1
  O  O198  1  0.25984823  0.99824037  0.63695076  1
  O  O199  1  0.73689327  0.50280095  0.13047103  1
  O  O200  1  0.74945241  0.49345465  0.63262312  1
  O  O201  1  0.75168137  0.99555387  0.13272954  1
  O  O202  1  0.75632090  0.98436356  0.62289718  1
  O  O203  1  0.01136887  0.37353608  0.25556848  1
  O  O204  1  -0.00314107  0.36609867  0.75796869  1
  O  O205  1  0.00539365  0.86371286  0.24065316  1
  O  O206  1  0.00947124  0.86837656  0.75142934  1
  O  O207  1  0.51030867  0.36790649  0.25675051  1
  O  O208  1  0.50868686  0.36996325  0.75557476  1
  O  O209  1  0.50567054  0.87013901  0.25723305  1
  O  O210  1  0.49649155  0.86074150  0.74068702  1
  O  O211  1  0.51127532  0.13467973  0.24016118  1
  O  O212  1  0.49349806  0.14002939  0.75232118  1
  O  O213  1  0.49439959  0.63075231  0.24754505  1
  O  O214  1  0.50066533  0.63148816  0.73603313  1
  O  O215  1  0.99965700  0.12588052  0.23425922  1
  O  O216  1  0.99638252  0.13200376  0.73854755  1
  O  O217  1  0.99373063  0.62757455  0.24388963  1
  O  O218  1  1.00436011  0.63497959  0.74274332  1
  O  O219  1  0.36618760  0.25246889  0.00042973  1
  O  O220  1  0.36823743  0.24751744  0.50716368  1
  O  O221  1  0.36903563  0.74908795  0.00581573  1
  O  O222  1  0.38154744  0.76389815  0.50636542  1
  O  O223  1  0.86147619  0.25245371  0.00782046  1
  O  O224  1  0.86182368  0.25494742  0.49368549  1
  O  O225  1  0.87723006  0.76555312  0.00141190  1
  O  O226  1  0.87453643  0.76075147  0.50859186  1
  O  O227  1  0.13481632  0.24851843  0.49146513  1
  O  O228  1  0.12581886  0.24125172  0.99647210  1
  O  O229  1  0.11658615  0.73215490  0.49135434  1
  O  O230  1  0.13063146  0.74306098  0.99052094  1
  O  O231  1  0.63469390  0.24342061  0.49325520  1
  O  O232  1  0.63870750  0.24295447  1.00717207  1
  O  O233  1  0.62370631  0.74973290  0.48676495  1
  O  O234  1  0.62371977  0.73916267  0.99901476  1
  O  O235  1  0.49815105  0.24346726  0.13364243  1
  O  O236  1  0.49165069  0.26133016  0.63336402  1
  O  O237  1  0.49420620  0.74263707  0.13234759  1
  O  O238  1  0.49252523  0.74320727  0.63000385  1
  O  O239  1  0.98859700  0.24113565  0.12633211  1
  O  O240  1  1.00210225  0.25107460  0.63512735  1
  O  O241  1  0.99476784  0.73654538  0.13319936  1
  O  O242  1  0.99276065  0.73816010  0.63291002  1
  O  O243  1  0.00513973  0.25549436  0.37437458  1
  O  O244  1  -0.00560177  0.26307623  0.86964779  1
  O  O245  1  0.00378722  0.74348347  0.36777483  1
  O  O246  1  0.00728903  0.75083594  0.86798398  1
  O  O247  1  0.50618835  0.25541353  0.37000976  1
  O  O248  1  0.49367036  0.26374591  0.86561347  1
  O  O249  1  0.50578806  0.75879713  0.37076206  1
  O  O250  1  0.49283773  0.74159638  0.85567796  1
  O  O251  1  0.24572083  0.13508405  0.50716598  1
  O  O252  1  0.22977330  0.12805596  1.00524165  1
  O  O253  1  0.24165807  0.61692884  0.49089092  1
  O  O254  1  0.23753996  0.62688672  0.99719191  1
  O  O255  1  0.74698287  0.12986710  0.49598836  1
  O  O256  1  0.74056045  0.13479158  0.99840143  1
  O  O257  1  0.74750285  0.62700172  0.48994556  1
  O  O258  1  0.73938725  0.62657731  0.99883661  1
  O  O259  1  0.24888223  0.37198930  0.01089899  1
  O  O260  1  0.25027050  0.36769830  0.50962438  1
  O  O261  1  0.25231248  0.86163510  -0.00630664  1
  O  O262  1  0.26714166  0.87885011  0.49013776  1
  O  O263  1  0.74636470  0.36277093  0.00020657  1
  O  O264  1  0.75211942  0.36746240  0.50659647  1
  O  O265  1  0.75865252  0.87777796  0.00846923  1
  O  O266  1  0.75618491  0.87120450  0.51073702  1
  O  O267  1  0.12907573  0.49283934  0.24659677  1
  O  O268  1  0.11937275  0.49687824  0.74687705  1
  O  O269  1  0.14295064  1.00100104  0.25067742  1
  O  O270  1  0.12793427  0.98743729  0.75290507  1
  O  O271  1  0.62706194  0.49291254  0.24233251  1
  O  O272  1  0.63158845  0.48891570  0.74842382  1
  O  O273  1  0.63843817  0.99261643  0.25122370  1
  O  O274  1  0.62837330  1.00526211  0.74741941  1
  O  O275  1  0.36776939  -0.00483058  0.26512210  1
  O  O276  1  0.36848129  0.00773938  0.75483092  1
  O  O277  1  0.37163706  0.50484093  0.25665368  1
  O  O278  1  0.37987032  0.49690689  0.75907411  1
  O  O279  1  0.86291605  -0.00559605  0.25914710  1
  O  O280  1  0.87359979  0.00835042  0.75777000  1
  O  O281  1  0.86890038  0.50171851  0.25525968  1
  O  O282  1  0.86341135  0.49625163  0.76039921  1
  O  O283  1  0.11990645  0.36794272  0.36897566  1
  O  O284  1  0.11842806  0.37996019  0.87101964  1
  O  O285  1  0.10921247  0.86518086  0.38659726  1
  O  O286  1  0.12291960  0.86303534  0.87177062  1
  O  O287  1  0.61546375  0.36871670  0.36819735  1
  O  O288  1  0.61579419  0.38069785  0.86600537  1
  O  O289  1  0.61961312  0.86908047  0.37129756  1
  O  O290  1  0.62229052  0.87604527  0.87250899  1
  O  O291  1  0.39047965  0.12487476  0.11664284  1
  O  O292  1  0.37187845  0.14212870  0.63511936  1
  O  O293  1  0.38400693  0.62709903  0.13156128  1
  O  O294  1  0.38179040  0.64149711  0.61546810  1
  O  O295  1  0.88627751  0.13861640  0.11691582  1
  O  O296  1  0.88661483  0.12149952  0.63566372  1
  O  O297  1  0.88254485  0.62380213  0.13120194  1
  O  O298  1  0.88045558  0.63781443  0.62022566  1
  O  O299  1  0.24922015  0.26192340  0.13083446  1
  O  O300  1  0.25255274  0.25805303  0.61487501  1
  O  O301  1  0.26721279  0.73127048  0.11001279  1
  O  O302  1  0.26511926  0.74952065  0.61945362  1
  O  O303  1  0.76112315  0.24399743  0.11753035  1
  O  O304  1  0.74827927  0.25869143  0.61549093  1
  O  O305  1  0.75308982  0.75991005  0.12270030  1
  O  O306  1  0.75663720  0.75652100  0.62592797  1
  O  O307  1  0.24149114  0.25469160  0.38430554  1
  O  O308  1  0.24022966  0.26888994  0.86403866  1
  O  O309  1  0.24070545  0.73774570  0.37211594  1
  O  O310  1  0.24396190  0.74211788  0.87812670  1
  O  O311  1  0.74651511  0.24121331  0.38079422  1
  O  O312  1  0.75476669  0.25008277  0.89027329  1
  O  O313  1  0.74207361  0.74432885  0.37530742  1
  O  O314  1  0.74562228  0.74596627  0.87751578  1
  O  O315  1  0.00549527  0.12063992  0.00509736  1
  O  O316  1  -0.00082490  0.12500339  0.51647237  1
  O  O317  1  0.00972746  0.62124458  0.00792185  1
  O  O318  1  0.00555333  0.61775241  0.51088345  1
  O  O319  1  0.51143503  0.12483146  0.00499105  1
  O  O320  1  0.50999014  0.11143149  0.49636246  1
  O  O321  1  0.50582186  0.61695085  0.00519269  1
  O  O322  1  0.50149095  0.61613343  0.50852423  1
  O  O323  1  0.50632012  0.38062950  0.49010105  1
  O  O324  1  0.50195481  0.38149808  0.99250680  1
  O  O325  1  0.49703697  0.88606676  0.49320883  1
  O  O326  1  0.49011955  0.88371024  1.01112751  1
  O  O327  1  0.99537550  0.37862961  0.49851213  1
  O  O328  1  1.00114417  0.38123011  0.99272145  1
  O  O329  1  0.99418983  0.87781231  0.50521057  1
  O  O330  1  0.99445555  0.88405768  1.00191711  1
  O  O331  1  0.49647457  0.49182629  0.38054374  1
  O  O332  1  0.49197829  0.49510495  0.88145715  1
  O  O333  1  0.49462573  0.99092957  0.37517254  1
  O  O334  1  0.47586579  1.01068882  0.87268970  1
  O  O335  1  0.99388489  0.49297294  0.38151486  1
  O  O336  1  0.99299006  0.49156538  0.88009337  1
  O  O337  1  0.99534065  0.99618900  0.37010993  1
  O  O338  1  0.99017341  0.99951530  0.88280121  1
  O  O339  1  -0.00800570  0.01462703  0.11603817  1
  O  O340  1  -0.00167415  0.00734280  0.62758032  1
  O  O341  1  0.00506753  0.50868131  0.12347168  1
  O  O342  1  -0.00936330  0.51104660  0.62360031  1
  O  O343  1  0.50546397  0.00899336  0.12840092  1
  O  O344  1  0.49211780  -0.00148043  0.61133902  1
  O  O345  1  0.50848794  0.50259766  0.11909545  1
  O  O346  1  0.49774998  0.50486885  0.61791752  1
  O  O347  1  0.23931288  0.38026669  0.24741619  1
  O  O348  1  0.23752338  0.36696100  0.74409650  1
  O  O349  1  0.24048929  0.89449296  0.28242365  1
  O  O350  1  0.23230683  0.87883239  0.74988944  1
  O  O351  1  0.73518947  0.38026076  0.25698954  1
  O  O352  1  0.74526886  0.37867851  0.74463811  1
  O  O353  1  0.74699384  0.88097558  0.24291572  1
  O  O354  1  0.75193335  0.87847629  0.73593253  1
  O  O355  1  0.25215942  0.11433609  0.24240061  1
  O  O356  1  0.25546087  0.11698954  0.74505208  1
  O  O357  1  0.25529525  0.61848522  0.25931710  1
  O  O358  1  0.23213029  0.61417627  0.74009856  1
  O  O359  1  0.74476742  0.11712498  0.26016863  1
  O  O360  1  0.76075337  0.12815014  0.75157676  1
  O  O361  1  0.75517498  0.61865159  0.25635844  1
  O  O362  1  0.74169933  0.61290787  0.74995746  1
  O  O363  1  0.39163021  0.11734187  0.37036773  1
  O  O364  1  0.37107345  0.12808772  0.86130119  1
  O  O365  1  0.36833766  0.62176082  0.37273467  1
  O  O366  1  0.37252507  0.60910853  0.87452326  1
  O  O367  1  0.86441380  0.11086755  0.38316117  1
  O  O368  1  0.87799945  0.12024838  0.86336707  1
  O  O369  1  0.86906258  0.61827150  0.37148137  1
  O  O370  1  0.87649161  0.61072411  0.88226954  1
  O  O371  1  0.12866448  0.37873037  0.13389898  1
  O  O372  1  0.14169571  0.37708221  0.62279682  1
  O  O373  1  0.14155980  0.82467639  0.13648628  1
  O  O374  1  0.12239792  0.86822680  0.63554775  1
  O  O375  1  0.61909331  0.38372981  0.13455610  1
  O  O376  1  0.63759256  0.37885508  0.63139664  1
  O  O377  1  0.63744597  0.87663919  0.13013445  1
  O  O378  1  0.63839893  0.86931782  0.62545098  1
  O  O379  1  0.12253446  0.25608680  0.25798653  1
  O  O380  1  0.11842237  0.24802278  0.75113516  1
  O  O381  1  0.11206940  0.73847877  0.27024665  1
  O  O382  1  0.11572833  0.76046172  0.75554265  1
  O  O383  1  0.62076997  0.25623989  0.25515598  1
  O  O384  1  0.61919156  0.26257664  0.74587763  1
  O  O385  1  0.62156749  0.75485847  0.25925625  1
  O  O386  1  0.60672827  0.75249620  0.75163669  1
  O  O387  1  0.38825849  0.25340228  0.24857912  1
  O  O388  1  0.38389699  0.24494647  0.74299788  1
  O  O389  1  0.37829027  0.74359108  0.24413639  1
  O  O390  1  0.38026378  0.75514310  0.73269999  1
  O  O391  1  0.87302021  0.25110558  0.23715593  1
  O  O392  1  0.88422320  0.24258150  0.75244456  1
  O  O393  1  0.88298908  0.74381982  0.25093449  1
  O  O394  1  0.88604954  0.75662924  0.74430586  1
  O  O395  1  0.38911641  0.49988333  0.49166089  1
  O  O396  1  0.38765537  0.49929980  1.00171565  1
  O  O397  1  0.38569630  0.99571469  0.48922887  1
  O  O398  1  0.36422472  0.99923529  0.98161562  1
  O  O399  1  0.87969894  0.49269854  0.49416781  1
  O  O400  1  0.88138399  0.49603539  0.99688728  1
  O  O401  1  0.87388245  0.98682636  0.49377925  1
  O  O402  1  0.88273631  0.99304875  0.99468231  1
  O  O403  1  0.11446103  0.00401832  -0.00567949  1
  O  O404  1  0.11956319  -0.00945190  0.47965661  1
  O  O405  1  0.11953486  0.50779987  0.00706863  1
  O  O406  1  0.11677464  0.50853951  0.49605418  1
  O  O407  1  0.62734011  0.01447237  0.00159001  1
  O  O408  1  0.61220498  0.00515323  0.49712229  1
  O  O409  1  0.61608539  0.50421584  0.00657560  1
  O  O410  1  0.61236150  0.50115309  0.50027204  1
  O  O411  1  0.36440348  0.37415881  0.12447964  1
  O  O412  1  0.35770100  0.36091409  0.63565235  1
  O  O413  1  0.37294605  0.86018909  0.13075303  1
  O  O414  1  0.37809405  0.86502486  0.60876470  1
  O  O415  1  0.88005289  0.35728631  0.12260445  1
  O  O416  1  0.86205382  0.37883701  0.61916327  1
  O  O417  1  0.86563910  0.87562829  0.11902471  1
  O  O418  1  0.86939532  0.86467251  0.62008700  1
  O  O419  1  0.11650005  0.13685254  0.38000758  1
  O  O420  1  0.11602464  0.12593546  0.88946201  1
  O  O421  1  0.13095708  0.62677210  0.38356973  1
  O  O422  1  0.12569549  0.63384527  0.88220285  1
  O  O423  1  0.63732282  0.12754497  0.38386621  1
  O  O424  1  0.62404374  0.12824256  0.88919029  1
  O  O425  1  0.63047921  0.63332309  0.37403544  1
  O  O426  1  0.62231984  0.62237185  0.88669105  1
