# generated using pymatgen
data_V85Zn86O256
_symmetry_space_group_name_H-M   'P 1'
_cell_length_a   16.92423191
_cell_length_b   16.91907158
_cell_length_c   16.92337361
_cell_angle_alpha   90.05678369
_cell_angle_beta   90.03333535
_cell_angle_gamma   90.01410815
_symmetry_Int_Tables_number   1
_chemical_formula_structural   V85Zn86O256
_chemical_formula_sum   'V85 Zn86 O256'
_cell_volume   4845.87422415
_cell_formula_units_Z   1
loop_
 _symmetry_equiv_pos_site_id
 _symmetry_equiv_pos_as_xyz
  1  'x, y, z'
loop_
 _atom_site_type_symbol
 _atom_site_label
 _atom_site_symmetry_multiplicity
 _atom_site_fract_x
 _atom_site_fract_y
 _atom_site_fract_z
 _atom_site_occupancy
  V  V0  1  0.87420763  0.49841892  0.37258251  1
  V  V1  1  0.63307770  0.74780555  0.87520028  1
  V  V2  1  0.87506854  0.24653187  0.62487098  1
  V  V3  1  0.74849014  0.24806773  0.49623849  1
  V  V4  1  0.12393723  0.24535732  0.38428656  1
  V  V5  1  0.86850092  -0.00088256  0.37244020  1
  V  V6  1  0.12926557  0.25491274  0.87794798  1
  V  V7  1  0.74889092  0.50307107  0.75639837  1
  V  V8  1  0.50220844  0.00410112  0.00210841  1
  V  V9  1  0.37551993  0.00365356  0.87539127  1
  V  V10  1  0.61966102  0.75015411  0.36582452  1
  V  V11  1  0.38763251  0.36891376  0.49787696  1
  V  V12  1  0.87699134  0.87662836  0.50035716  1
  V  V13  1  -0.00179408  0.25084295  0.24975927  1
  V  V14  1  0.37692397  0.87527666  0.00242670  1
  V  V15  1  0.25335720  0.37529332  0.61887653  1
  V  V16  1  0.37670001  0.00274262  0.37360330  1
  V  V17  1  0.24932048  0.51154974  0.25374591  1
  V  V18  1  0.13901755  0.36854117  0.24537071  1
  V  V19  1  0.01316387  0.12232434  0.62412679  1
  V  V20  1  0.25250868  0.87438495  0.12754264  1
  V  V21  1  0.13041129  0.12992617  0.00022568  1
  V  V22  1  0.62345073  0.12583848  0.49974815  1
  V  V23  1  0.62820822  0.00173644  0.62729633  1
  V  V24  1  0.38385314  0.49230547  0.87704087  1
  V  V25  1  0.63014902  0.00204558  0.13579530  1
  V  V26  1  0.86544650  0.12291777  0.24911250  1
  V  V27  1  -0.00045797  -0.00148545  -0.00396812  1
  V  V28  1  0.75284889  0.88119616  0.62923167  1
  V  V29  1  0.37585871  0.86204483  0.50207597  1
  V  V30  1  0.24541193  0.12170435  0.38515231  1
  V  V31  1  0.49631204  0.25481533  0.75427663  1
  V  V32  1  0.63034203  0.25674451  0.88024789  1
  V  V33  1  0.61718053  0.25720909  0.37400750  1
  V  V34  1  0.49341376  0.12949772  0.62619289  1
  V  V35  1  0.49078338  0.25721618  0.25023319  1
  V  V36  1  0.25423289  0.86363142  0.62512850  1
  V  V37  1  0.63308415  0.13048424  0.00176960  1
  V  V38  1  0.11990135  0.62407753  0.00653719  1
  V  V39  1  0.62728805  0.88009561  0.75066096  1
  V  V40  1  0.86567205  -0.00101280  0.87210110  1
  V  V41  1  0.24799735  0.50585661  0.74670179  1
  V  V42  1  0.87200958  0.62710478  0.75232312  1
  V  V43  1  0.87472366  0.37382765  0.49742909  1
  V  V44  1  0.00157719  0.74566601  0.24360924  1
  V  V45  1  0.38825763  0.62809483  0.25054649  1
  V  V46  1  0.01341843  0.00321917  0.50174213  1
  V  V47  1  0.61948892  0.61839569  -0.00502524  1
  V  V48  1  0.86747523  0.24989684  0.11452242  1
  V  V49  1  0.00095474  0.37863263  0.87833159  1
  V  V50  1  0.49005917  0.74719735  0.74379068  1
  V  V51  1  0.87426391  0.50571388  0.87853530  1
  V  V52  1  0.61558448  0.62349684  0.49840379  1
  V  V53  1  0.86518539  0.12152547  0.74697114  1
  V  V54  1  0.12495563  0.87930016  0.74572474  1
  V  V55  1  0.87792672  0.62180439  0.23862982  1
  V  V56  1  0.12438031  0.38027684  0.74213332  1
  V  V57  1  0.25250715  0.74877974  0.00440774  1
  V  V58  1  0.37499268  0.13177622  0.75013879  1
  V  V59  1  0.75448422  0.87428295  0.13092994  1
  V  V60  1  0.74310891  0.37536179  0.11727140  1
  V  V61  1  0.50139922  0.87560526  0.87465363  1
  V  V62  1  0.25103676  0.12838976  0.87602268  1
  V  V63  1  0.24773021  0.00336303  0.74056646  1
  V  V64  1  0.12552032  0.75076297  0.87552352  1
  V  V65  1  0.36972982  0.37903889  0.00712882  1
  V  V66  1  0.75071542  0.37524670  0.62757104  1
  V  V67  1  0.61406105  0.37869438  0.75425188  1
  V  V68  1  0.00469190  0.50413541  0.50516255  1
  V  V69  1  0.12385958  0.49742240  0.12594852  1
  V  V70  1  0.12927412  0.73290668  0.38187143  1
  V  V71  1  0.49593474  0.12810276  0.13111253  1
  V  V72  1  0.12580356  -0.00113009  0.12557649  1
  V  V73  1  0.00386619  0.87430507  0.37446122  1
  V  V74  1  -0.00129121  0.12484198  0.12493194  1
  V  V75  1  0.60802179  0.50448713  0.12513676  1
  V  V76  1  0.38961405  0.74571573  0.13017392  1
  V  V77  1  0.25450068  0.00399013  0.25094829  1
  V  V78  1  0.35788840  0.24702905  0.12069542  1
  V  V79  1  0.25849953  0.62271187  0.87655164  1
  V  V80  1  0.38765091  0.49369434  0.37564149  1
  V  V81  1  0.49848042  -0.00263776  0.50066322  1
  V  V82  1  0.62353554  0.50216172  0.62060627  1
  V  V83  1  0.75240848  0.62654838  0.37513220  1
  V  V84  1  0.87659453  0.74889859  0.62394788  1
  Zn  Zn85  1  -0.00560495  0.50354894  0.00962987  1
  Zn  Zn86  1  -0.00030937  0.87620483  0.87237544  1
  Zn  Zn87  1  0.75079083  0.12846393  0.87607459  1
  Zn  Zn88  1  0.86982400  0.37298230  -0.00380637  1
  Zn  Zn89  1  0.62334431  0.87385340  0.24940971  1
  Zn  Zn90  1  0.16884424  0.56298380  0.56304625  1
  Zn  Zn91  1  0.24883332  0.73239198  0.50075642  1
  Zn  Zn92  1  0.25147270  0.24621410  0.50743886  1
  Zn  Zn93  1  0.62107175  0.37728544  0.25076485  1
  Zn  Zn94  1  0.49381278  0.63106611  0.62449358  1
  Zn  Zn95  1  0.49504282  0.86955849  0.36855803  1
  Zn  Zn96  1  -0.00146822  0.24945496  0.75134961  1
  Zn  Zn97  1  0.87355716  0.87119465  -0.00246583  1
  Zn  Zn98  1  0.74833396  0.49689757  0.24575126  1
  Zn  Zn99  1  0.00227107  0.74959577  0.74895030  1
  Zn  Zn100  1  0.74392584  0.12055290  0.37056752  1
  Zn  Zn101  1  0.12672183  0.87229691  0.25182134  1
  Zn  Zn102  1  0.74963722  0.75104226  0.49915784  1
  Zn  Zn103  1  0.75331290  0.74647076  -0.00120448  1
  Zn  Zn104  1  0.00387970  0.62365169  0.62608390  1
  Zn  Zn105  1  0.00155784  0.37379108  0.37365035  1
  Zn  Zn106  1  0.87843767  0.74543145  0.11932960  1
  Zn  Zn107  1  0.18570144  0.18020264  0.19580881  1
  Zn  Zn108  1  0.18867788  0.19642705  0.69119248  1
  Zn  Zn109  1  0.18746032  0.68745823  0.18905921  1
  Zn  Zn110  1  0.18958210  0.68836266  0.69181796  1
  Zn  Zn111  1  0.68445989  0.19214353  0.18765802  1
  Zn  Zn112  1  0.68488645  0.19065407  0.68803089  1
  Zn  Zn113  1  0.68984994  0.68242346  0.18360007  1
  Zn  Zn114  1  0.68794238  0.69061260  0.68756099  1
  Zn  Zn115  1  0.31389160  0.30854613  0.31457216  1
  Zn  Zn116  1  0.31119470  0.31850246  0.81401486  1
  Zn  Zn117  1  0.31109600  0.81193565  0.31438024  1
  Zn  Zn118  1  0.31134418  0.81451640  0.81515850  1
  Zn  Zn119  1  0.80651049  0.31151620  0.30734219  1
  Zn  Zn120  1  0.81119681  0.31369523  0.81230028  1
  Zn  Zn121  1  0.81222073  0.81037762  0.30799398  1
  Zn  Zn122  1  0.81294239  0.81581340  0.81056435  1
  Zn  Zn123  1  0.19073071  0.43238135  0.42936845  1
  Zn  Zn124  1  0.19339812  0.43618572  0.94279237  1
  Zn  Zn125  1  0.18965940  0.93107547  0.43942165  1
  Zn  Zn126  1  0.18968533  0.93953747  0.93558058  1
  Zn  Zn127  1  0.68805007  0.43772990  0.43659561  1
  Zn  Zn128  1  0.68495884  0.43892086  0.93940882  1
  Zn  Zn129  1  0.68792322  0.93478540  0.44048507  1
  Zn  Zn130  1  0.68855450  0.93697669  0.94490568  1
  Zn  Zn131  1  0.31374364  0.06519219  0.06367042  1
  Zn  Zn132  1  0.31361378  0.05883056  0.56174603  1
  Zn  Zn133  1  0.30961852  0.55970552  0.06747338  1
  Zn  Zn134  1  0.33358835  0.57274589  0.55208296  1
  Zn  Zn135  1  0.81181924  0.05895222  0.06252719  1
  Zn  Zn136  1  0.81457708  0.06143453  0.55908567  1
  Zn  Zn137  1  0.80111368  0.56082673  0.05802124  1
  Zn  Zn138  1  0.81088052  0.56302015  0.56252109  1
  Zn  Zn139  1  0.43059485  0.43199967  0.18579659  1
  Zn  Zn140  1  0.41853967  0.47224995  0.67048367  1
  Zn  Zn141  1  0.44146579  0.93572014  0.19105973  1
  Zn  Zn142  1  0.43717088  0.93789435  0.68695261  1
  Zn  Zn143  1  0.93841168  0.43321627  0.18504586  1
  Zn  Zn144  1  0.93647605  0.43671549  0.68942803  1
  Zn  Zn145  1  0.93762568  0.93687556  0.18916772  1
  Zn  Zn146  1  0.94072215  0.94121335  0.68867500  1
  Zn  Zn147  1  0.06115359  0.06147939  0.31241979  1
  Zn  Zn148  1  0.06031856  0.06409589  0.81027721  1
  Zn  Zn149  1  0.05861871  0.55875035  0.31148676  1
  Zn  Zn150  1  0.06299602  0.56578042  0.81182235  1
  Zn  Zn151  1  0.55792676  0.06662479  0.31285735  1
  Zn  Zn152  1  0.56452190  0.06551843  0.81463548  1
  Zn  Zn153  1  0.56324220  0.56257995  0.30967438  1
  Zn  Zn154  1  0.56243744  0.56587391  0.81322291  1
  Zn  Zn155  1  0.43456003  0.18681927  0.43616785  1
  Zn  Zn156  1  0.44216275  0.19688378  0.94185077  1
  Zn  Zn157  1  0.43648363  0.68186446  0.43006851  1
  Zn  Zn158  1  0.44241970  0.68740681  0.93732241  1
  Zn  Zn159  1  0.93868979  0.18359993  0.43772715  1
  Zn  Zn160  1  0.94161398  0.18510170  0.93413902  1
  Zn  Zn161  1  0.93905800  0.68730964  0.43476907  1
  Zn  Zn162  1  0.93885909  0.68750300  0.93692381  1
  Zn  Zn163  1  0.06221810  0.31393069  0.06305413  1
  Zn  Zn164  1  0.05932516  0.31331482  0.56300615  1
  Zn  Zn165  1  0.06369567  0.81380406  0.06198783  1
  Zn  Zn166  1  0.06466375  0.81233624  0.56356505  1
  Zn  Zn167  1  0.55365735  0.31724288  0.06001460  1
  Zn  Zn168  1  0.56198521  0.31255017  0.56870970  1
  Zn  Zn169  1  0.56761601  0.81333392  0.06147472  1
  Zn  Zn170  1  0.56418303  0.81011774  0.55976453  1
  O  O171  1  0.11985642  0.11996422  0.11795034  1
  O  O172  1  0.11161386  0.13078077  0.63228477  1
  O  O173  1  0.13121044  0.61587900  0.11717482  1
  O  O174  1  0.11584646  0.62396526  0.63902154  1
  O  O175  1  0.61907394  0.12139862  0.11951747  1
  O  O176  1  0.61606613  0.12061279  0.62161878  1
  O  O177  1  0.62400155  0.61052583  0.11975918  1
  O  O178  1  0.62740961  0.61985507  0.61555633  1
  O  O179  1  0.37224870  0.38253027  0.38348867  1
  O  O180  1  0.37345931  0.38708437  0.88312233  1
  O  O181  1  0.37291155  0.88440966  0.38417489  1
  O  O182  1  0.37998399  0.88284280  0.88265145  1
  O  O183  1  0.87348901  0.38009425  0.38045206  1
  O  O184  1  0.88252503  0.38419375  0.87420298  1
  O  O185  1  0.88408078  0.87943161  0.37705015  1
  O  O186  1  0.87886947  0.88437258  0.87492946  1
  O  O187  1  0.25396315  0.00243570  0.37083430  1
  O  O188  1  0.25707625  0.00771785  0.86593204  1
  O  O189  1  0.25975830  0.49267876  0.35762256  1
  O  O190  1  0.25483711  0.50863047  0.87260334  1
  O  O191  1  0.76395040  -0.00052389  0.38032353  1
  O  O192  1  0.76218643  0.00343502  0.88126835  1
  O  O193  1  0.76041221  0.50481093  0.37178474  1
  O  O194  1  0.75764007  0.49476510  0.86370392  1
  O  O195  1  0.23991752  0.49861061  0.14172545  1
  O  O196  1  0.24194820  0.48975563  0.63528792  1
  O  O197  1  0.24841630  0.99608531  0.13313028  1
  O  O198  1  0.25363373  0.99332533  0.63726853  1
  O  O199  1  0.73896652  0.49027032  0.12614561  1
  O  O200  1  0.74555368  0.49565739  0.63571605  1
  O  O201  1  0.74214228  0.98898869  0.12151862  1
  O  O202  1  0.74119368  0.99329840  0.61957832  1
  O  O203  1  0.00451704  0.36068204  0.25066099  1
  O  O204  1  0.00664658  0.37673991  0.76046338  1
  O  O205  1  0.00094141  0.86687231  0.25885007  1
  O  O206  1  0.01170068  0.87463902  0.75123846  1
  O  O207  1  0.50124722  0.36152311  0.24534186  1
  O  O208  1  0.51136540  0.36984932  0.74314240  1
  O  O209  1  0.50994509  0.87979078  0.25699670  1
  O  O210  1  0.50708263  0.86972108  0.75467758  1
  O  O211  1  0.50126744  0.13326091  0.23657722  1
  O  O212  1  0.49507197  0.13156170  0.74459761  1
  O  O213  1  0.48686618  0.62493986  0.24790360  1
  O  O214  1  0.50963523  0.64508770  0.74936687  1
  O  O215  1  0.99360650  0.13413078  0.24449059  1
  O  O216  1  0.99094324  0.12568095  0.73783134  1
  O  O217  1  0.99002053  0.63260724  0.25553941  1
  O  O218  1  0.98509764  0.62619869  0.74962716  1
  O  O219  1  0.37051731  0.25001065  0.01503892  1
  O  O220  1  0.37031726  0.26424291  0.49313681  1
  O  O221  1  0.37128918  0.75408947  0.00858143  1
  O  O222  1  0.37236010  0.75830047  0.49027782  1
  O  O223  1  0.88087063  0.24753156  0.01158386  1
  O  O224  1  0.87030866  0.25589082  0.50265297  1
  O  O225  1  0.87382405  0.75189699  0.00216990  1
  O  O226  1  0.87528799  0.75717312  0.50617425  1
  O  O227  1  0.12557626  0.25589753  0.48711269  1
  O  O228  1  0.11889828  0.23994377  0.99313998  1
  O  O229  1  0.12341142  0.75122305  0.48597448  1
  O  O230  1  0.13208542  0.74454962  0.99615539  1
  O  O231  1  0.62679325  0.24517959  0.49510144  1
  O  O232  1  0.61621244  0.24372625  0.99132757  1
  O  O233  1  0.62995192  0.74013910  0.49140039  1
  O  O234  1  0.62707792  0.74593446  0.98949100  1
  O  O235  1  0.49257127  0.24352808  0.13226677  1
  O  O236  1  0.50646159  0.24041776  0.64057262  1
  O  O237  1  0.48803560  0.75803218  0.12418589  1
  O  O238  1  0.50245288  0.75194451  0.63841528  1
  O  O239  1  0.99279373  0.24379626  0.13136676  1
  O  O240  1  0.99281712  0.23923066  0.62470393  1
  O  O241  1  1.00082668  0.75580771  0.13930684  1
  O  O242  1  0.98700762  0.75198666  0.62659858  1
  O  O243  1  0.00583937  0.24793956  0.36746568  1
  O  O244  1  0.00956219  0.25830500  0.87335067  1
  O  O245  1  0.00731740  0.75635702  0.36849947  1
  O  O246  1  0.01521474  0.75247697  0.87417727  1
  O  O247  1  0.50471284  0.24114914  0.36298357  1
  O  O248  1  0.51230391  0.24446498  0.86127466  1
  O  O249  1  0.51623301  0.74828574  0.37723341  1
  O  O250  1  0.51025796  0.75815919  0.86697809  1
  O  O251  1  0.25097123  0.12490092  0.49087648  1
  O  O252  1  0.23707543  0.11766062  0.99335077  1
  O  O253  1  0.24790806  0.61854884  0.50386956  1
  O  O254  1  0.24239016  0.63026349  0.99603216  1
  O  O255  1  0.74123507  0.13095021  0.49910972  1
  O  O256  1  0.73657441  0.12445047  1.00217342  1
  O  O257  1  0.74683958  0.62571808  0.48666981  1
  O  O258  1  0.72896236  0.63190529  1.00622645  1
  O  O259  1  0.26762575  0.36544054  -0.00903381  1
  O  O260  1  0.25511427  0.37445788  0.50577456  1
  O  O261  1  0.25749049  0.87134028  0.00635138  1
  O  O262  1  0.25765764  0.87202745  0.51042498  1
  O  O263  1  0.75113128  0.37587049  0.01118143  1
  O  O264  1  0.76006109  0.37062880  0.50497053  1
  O  O265  1  0.75207699  0.87092926  0.01384865  1
  O  O266  1  0.75783587  0.87373349  0.51195411  1
  O  O267  1  0.13303506  0.49224278  0.24915087  1
  O  O268  1  0.13514099  0.48984969  0.76237783  1
  O  O269  1  0.13077060  0.99769224  0.24187879  1
  O  O270  1  0.13588398  0.99234872  0.75807545  1
  O  O271  1  0.62498016  0.49847747  0.23729381  1
  O  O272  1  0.63237031  0.49662015  0.74786802  1
  O  O273  1  0.62517547  1.00692212  0.23806642  1
  O  O274  1  0.61895766  0.98811358  0.74529581  1
  O  O275  1  0.36625537  -0.00434333  0.26006948  1
  O  O276  1  0.36945860  0.00935921  0.75588838  1
  O  O277  1  0.36632739  0.50607974  0.25094088  1
  O  O278  1  0.35826242  0.48896879  0.76925828  1
  O  O279  1  0.88341308  0.01123015  0.25951259  1
  O  O280  1  0.87906948  0.00907496  0.75927361  1
  O  O281  1  0.87665903  0.50380499  0.25705852  1
  O  O282  1  0.86767221  0.50596078  0.75520235  1
  O  O283  1  0.12197768  0.36366901  0.36291703  1
  O  O284  1  0.11958087  0.37049008  0.87264814  1
  O  O285  1  0.11214723  0.87277876  0.37350616  1
  O  O286  1  0.12862799  0.86752033  0.86730449  1
  O  O287  1  0.62763035  0.36164842  0.37557004  1
  O  O288  1  0.62630530  0.37039987  0.86693021  1
  O  O289  1  0.62977815  0.85845754  0.37623299  1
  O  O290  1  0.62145754  0.87288429  0.86844703  1
  O  O291  1  0.38312735  0.13571278  0.12125225  1
  O  O292  1  0.38668237  0.12112418  0.63034851  1
  O  O293  1  0.36900997  0.63210338  0.13902692  1
  O  O294  1  0.39342328  0.58242938  0.64093080  1
  O  O295  1  0.87854050  0.12961431  0.13051018  1
  O  O296  1  0.87924730  0.12899548  0.63019382  1
  O  O297  1  0.86821872  0.62161002  0.13588352  1
  O  O298  1  0.87598099  0.63356319  0.63095252  1
  O  O299  1  0.25975709  0.23809947  0.13025516  1
  O  O300  1  0.24749324  0.26783558  0.62517344  1
  O  O301  1  0.25570888  0.75791626  0.12240665  1
  O  O302  1  0.25313454  0.76009669  0.62540002  1
  O  O303  1  0.75788660  0.25734605  0.12763602  1
  O  O304  1  0.75457400  0.25491789  0.61705422  1
  O  O305  1  0.75155189  0.76235498  0.12607685  1
  O  O306  1  0.76154350  0.75849509  0.62334328  1
  O  O307  1  0.24160702  0.23781832  0.37415155  1
  O  O308  1  0.23665597  0.24397242  0.86829401  1
  O  O309  1  0.23177291  0.75383357  0.37649025  1
  O  O310  1  0.24428654  0.74449250  0.88212253  1
  O  O311  1  0.74155978  0.24639880  0.38113846  1
  O  O312  1  0.73582096  0.24880742  0.87151275  1
  O  O313  1  0.74430188  0.74151114  0.37631171  1
  O  O314  1  0.73637158  0.75635254  0.87243463  1
  O  O315  1  0.00910457  0.11518335  0.00360944  1
  O  O316  1  -0.00315471  0.11814005  0.51407424  1
  O  O317  1  0.01616515  0.62235724  -0.00500556  1
  O  O318  1  -0.00700967  0.60748475  0.50052906  1
  O  O319  1  0.50797575  0.12238366  0.00984966  1
  O  O320  1  0.50341480  0.12162744  0.50900443  1
  O  O321  1  0.51927172  0.63530455  0.00335536  1
  O  O322  1  0.51149781  0.62685983  0.50168978  1
  O  O323  1  0.48679468  0.36903505  0.50333924  1
  O  O324  1  0.47188314  0.36133800  0.99538372  1
  O  O325  1  0.49317690  0.87881099  0.49625331  1
  O  O326  1  0.49658017  0.88314300  0.99483821  1
  O  O327  1  0.98749792  0.38048884  0.49756409  1
  O  O328  1  0.99772100  0.37852233  0.98838384  1
  O  O329  1  0.99553666  0.88209212  0.49488338  1
  O  O330  1  1.00096332  0.88821635  0.99810336  1
  O  O331  1  0.48654859  0.49415721  0.36328681  1
  O  O332  1  0.48165212  0.50721641  0.86982113  1
  O  O333  1  0.49200906  1.00207780  0.38326840  1
  O  O334  1  0.49514256  0.99662848  0.88101992  1
  O  O335  1  0.98841703  0.49566416  0.38322044  1
  O  O336  1  0.99185306  0.49428806  0.87714898  1
  O  O337  1  0.99294260  0.99347044  0.38095368  1
  O  O338  1  0.99258217  1.00160431  0.88252682  1
  O  O339  1  0.00416344  0.00561581  0.11788261  1
  O  O340  1  -0.00139741  0.01322428  0.61716277  1
  O  O341  1  0.01587981  0.49588287  0.12702662  1
  O  O342  1  -0.00843139  0.49778983  0.60816422  1
  O  O343  1  0.50567005  0.00893054  0.12023913  1
  O  O344  1  0.50728051  0.00715597  0.62019189  1
  O  O345  1  0.50949181  0.49419189  0.12593439  1
  O  O346  1  0.52335588  0.49450267  0.62773533  1
  O  O347  1  0.24104797  0.37818305  0.25170610  1
  O  O348  1  0.24183439  0.38199578  0.74423412  1
  O  O349  1  0.24846724  0.88462958  0.24514083  1
  O  O350  1  0.24739723  0.88292036  0.74437504  1
  O  O351  1  0.74324402  0.37566368  0.23602654  1
  O  O352  1  0.74322214  0.38333053  0.74470377  1
  O  O353  1  0.74548297  0.87458499  0.23702598  1
  O  O354  1  0.74285078  0.87493931  0.73754483  1
  O  O355  1  0.24754723  0.10993243  0.26306453  1
  O  O356  1  0.25477750  0.12054244  0.75302421  1
  O  O357  1  0.25356450  0.61355286  0.25232564  1
  O  O358  1  0.24834758  0.61587540  0.76229489  1
  O  O359  1  0.76199323  0.12900069  0.25008133  1
  O  O360  1  0.76128411  0.12750001  0.74859009  1
  O  O361  1  0.75822297  0.62099199  0.26025566  1
  O  O362  1  0.76106263  0.61760762  0.74559460  1
  O  O363  1  0.36523534  0.11011559  0.38070667  1
  O  O364  1  0.37074264  0.12353092  0.87251053  1
  O  O365  1  0.37712146  0.61015031  0.36186578  1
  O  O366  1  0.36417509  0.61659328  0.88629678  1
  O  O367  1  0.87389434  0.11675322  0.36682613  1
  O  O368  1  0.87362531  0.12034385  0.86550322  1
  O  O369  1  0.86907234  0.61717496  0.36917331  1
  O  O370  1  0.87704071  0.61406138  0.86838214  1
  O  O371  1  0.12329132  0.37960320  0.13480834  1
  O  O372  1  0.12548683  0.37262739  0.63770260  1
  O  O373  1  0.13590863  0.88122454  0.12557013  1
  O  O374  1  0.13509712  0.87137208  0.63748584  1
  O  O375  1  0.62677424  0.38493132  0.12086706  1
  O  O376  1  0.63456318  0.38035962  0.63189540  1
  O  O377  1  0.63443409  0.88504847  0.12535751  1
  O  O378  1  0.63252415  0.87991529  0.63031576  1
  O  O379  1  0.11732172  0.25308333  0.25466164  1
  O  O380  1  0.12023736  0.26172627  0.76017113  1
  O  O381  1  0.11827924  0.74998052  0.26060520  1
  O  O382  1  0.12706447  0.76054053  0.76066866  1
  O  O383  1  0.61439528  0.25066571  0.25839639  1
  O  O384  1  0.62006169  0.26001718  0.75699887  1
  O  O385  1  0.63009622  0.74472433  0.26384061  1
  O  O386  1  0.62087343  0.76309038  0.75441360  1
  O  O387  1  0.37934189  0.25323457  0.23703931  1
  O  O388  1  0.38307658  0.24466886  0.75745351  1
  O  O389  1  0.36907358  0.73540354  0.24736001  1
  O  O390  1  0.39136802  0.75636350  0.75697321  1
  O  O391  1  0.88174811  0.24280506  0.24345348  1
  O  O392  1  0.87692670  0.24331725  0.74326847  1
  O  O393  1  0.88375464  0.73943376  0.24844018  1
  O  O394  1  0.87576466  0.74322386  0.74421364  1
  O  O395  1  0.37732287  0.48915470  0.48052307  1
  O  O396  1  0.36870504  0.49004916  0.99397193  1
  O  O397  1  0.38172449  0.99090376  0.49426683  1
  O  O398  1  0.38237155  0.99661554  0.99637635  1
  O  O399  1  0.87813533  0.49177458  0.49271397  1
  O  O400  1  0.87520256  0.49983375  0.99193311  1
  O  O401  1  0.88433769  0.99461312  0.49153387  1
  O  O402  1  0.88427898  1.00121872  0.99137469  1
  O  O403  1  0.11950154  0.00665704  0.00406551  1
  O  O404  1  0.11268046  -0.00304804  0.49521415  1
  O  O405  1  0.12818899  0.50619594  0.01012860  1
  O  O406  1  0.10801078  0.48953055  0.49330385  1
  O  O407  1  0.61819081  0.00948173  0.00771035  1
  O  O408  1  0.61748447  0.00535198  0.50446505  1
  O  O409  1  0.62275117  0.50972374  0.00721876  1
  O  O410  1  0.63538992  0.51050814  0.50751717  1
  O  O411  1  0.36858557  0.36277596  0.11709505  1
  O  O412  1  0.36698421  0.38628955  0.60735144  1
  O  O413  1  0.36883003  0.86998959  0.12183253  1
  O  O414  1  0.36751499  0.88068364  0.61419431  1
  O  O415  1  0.86689090  0.36582867  0.12192160  1
  O  O416  1  0.87091952  0.36737397  0.61849933  1
  O  O417  1  0.86433879  0.87613142  0.12429681  1
  O  O418  1  0.86964455  0.87200615  0.62347484  1
  O  O419  1  0.13182355  0.13252632  0.37093598  1
  O  O420  1  0.12783412  0.13351201  0.88099138  1
  O  O421  1  0.12017003  0.63425905  0.37470174  1
  O  O422  1  0.13541218  0.63333258  0.88144830  1
  O  O423  1  0.62490972  0.13346358  0.38283525  1
  O  O424  1  0.62813453  0.13253308  0.88396962  1
  O  O425  1  0.63135636  0.63028154  0.37878890  1
  O  O426  1  0.62405582  0.63216845  0.88458055  1
