# generated using pymatgen
data_V85Zn86O256
_symmetry_space_group_name_H-M   'P 1'
_cell_length_a   16.95399054
_cell_length_b   16.97181460
_cell_length_c   16.96330253
_cell_angle_alpha   90.01218069
_cell_angle_beta   89.96735872
_cell_angle_gamma   89.95217683
_symmetry_Int_Tables_number   1
_chemical_formula_structural   V85Zn86O256
_chemical_formula_sum   'V85 Zn86 O256'
_cell_volume   4881.01779931
_cell_formula_units_Z   1
loop_
 _symmetry_equiv_pos_site_id
 _symmetry_equiv_pos_as_xyz
  1  'x, y, z'
loop_
 _atom_site_type_symbol
 _atom_site_label
 _atom_site_symmetry_multiplicity
 _atom_site_fract_x
 _atom_site_fract_y
 _atom_site_fract_z
 _atom_site_occupancy
  V  V0  1  0.12046153  0.63117437  0.49297066  1
  V  V1  1  0.50262409  0.87848744  0.37410457  1
  V  V2  1  0.87466715  0.37457462  -0.00169239  1
  V  V3  1  0.12216390  0.12558155  -0.00446594  1
  V  V4  1  0.74430791  0.62199147  0.37808370  1
  V  V5  1  0.49834309  0.74987922  0.74871311  1
  V  V6  1  0.63051618  -0.00937373  0.11938696  1
  V  V7  1  0.00229626  0.87753209  0.37873370  1
  V  V8  1  0.36789440  0.87753107  0.00844437  1
  V  V9  1  0.74609613  0.74316799  0.49966483  1
  V  V10  1  0.50361785  0.24894650  0.24969581  1
  V  V11  1  0.87681886  0.25244831  0.12477897  1
  V  V12  1  0.74386380  0.16014451  0.86846421  1
  V  V13  1  0.00687888  0.25175109  0.26323223  1
  V  V14  1  0.87769137  0.50296057  0.87277131  1
  V  V15  1  0.24442648  0.75094113  0.49658038  1
  V  V16  1  0.00572380  0.50110463  0.00010379  1
  V  V17  1  0.72887130  0.48272876  0.77087177  1
  V  V18  1  0.13029228  0.87326755  0.24341448  1
  V  V19  1  -0.00179981  0.49328236  0.49699595  1
  V  V20  1  0.38031765  -0.00687370  0.87455002  1
  V  V21  1  0.50331650  0.12039291  0.12352963  1
  V  V22  1  -0.00203396  0.86646969  0.88360802  1
  V  V23  1  0.61766542  0.16264171  -0.01155385  1
  V  V24  1  0.62536078  0.74755510  0.37985947  1
  V  V25  1  0.50346842  0.50860783  0.49379218  1
  V  V26  1  0.24604012  0.49716434  0.74885712  1
  V  V27  1  0.62275396  0.00794965  0.61970744  1
  V  V28  1  0.74939591  0.37074454  0.12337158  1
  V  V29  1  0.62996926  0.49978510  0.61647300  1
  V  V30  1  0.75456562  0.75139538  0.01986335  1
  V  V31  1  0.37400489  0.75171830  0.62202422  1
  V  V32  1  0.00173960  0.12095141  0.61377359  1
  V  V33  1  0.37602469  0.25124754  0.12073223  1
  V  V34  1  0.24648610  0.87563596  0.62452020  1
  V  V35  1  -0.00566623  0.00087373  0.00050319  1
  V  V36  1  0.61097923  0.74805496  0.87751076  1
  V  V37  1  0.00240645  0.12936614  0.12273478  1
  V  V38  1  0.86837144  0.24506029  0.62353768  1
  V  V39  1  0.87353685  0.62857206  0.24796729  1
  V  V40  1  0.12488139  0.37196891  0.26589012  1
  V  V41  1  0.87722871  0.49290511  0.37432576  1
  V  V42  1  0.00352804  0.75057416  0.25376694  1
  V  V43  1  0.61802883  0.49879345  0.12145306  1
  V  V44  1  0.36644272  0.00457765  0.37193612  1
  V  V45  1  0.74547750  0.37122150  0.61748410  1
  V  V46  1  0.87420393  0.36218285  0.49600513  1
  V  V47  1  0.74821497  0.87131645  0.62306459  1
  V  V48  1  0.39325759  0.13454741  0.75160450  1
  V  V49  1  0.48970052  0.62288726  0.12641676  1
  V  V50  1  0.87277997  0.74976976  0.62365563  1
  V  V51  1  0.37485427  0.51010164  0.36971698  1
  V  V52  1  0.87425401  -0.00022291  0.37756258  1
  V  V53  1  0.36611441  0.75281699  0.12769112  1
  V  V54  1  0.00163168  0.74681340  0.75222040  1
  V  V55  1  0.40578595  0.48220348  0.85083564  1
  V  V56  1  0.62461283  0.37034089  0.24615595  1
  V  V57  1  0.61719114  0.87222541  0.75223387  1
  V  V58  1  0.74882637  0.00429472  0.24318195  1
  V  V59  1  0.24857040  0.00240252  0.75205653  1
  V  V60  1  0.12188567  0.87504453  0.75558597  1
  V  V61  1  -0.00302275  0.62856590  0.12493046  1
  V  V62  1  0.24468770  0.63203371  0.36697076  1
  V  V63  1  0.36569965  0.12546405  0.24713787  1
  V  V64  1  0.74938913  0.63322384  0.87740953  1
  V  V65  1  0.61182956  0.62514024  -0.00041305  1
  V  V66  1  0.36912097  0.37673031  0.49606853  1
  V  V67  1  0.62535957  0.24563775  0.38855598  1
  V  V68  1  0.74963114  0.12747814  0.38917330  1
  V  V69  1  0.11993450  0.00200059  0.61501341  1
  V  V70  1  0.74930009  -0.00856917  0.75540628  1
  V  V71  1  0.37141217  0.62720942  0.74739106  1
  V  V72  1  0.50827983  0.62919764  0.62036460  1
  V  V73  1  0.38353919  0.39073685  -0.00017423  1
  V  V74  1  0.50487781  -0.00869185  -0.00417286  1
  V  V75  1  -0.00236178  0.62314625  0.62302608  1
  V  V76  1  0.24943809  0.25425629  -0.00150340  1
  V  V77  1  0.24223491  0.37472996  0.12222478  1
  V  V78  1  0.25121571  0.50419527  0.24625350  1
  V  V79  1  0.86828543  -0.00797491  0.87914767  1
  V  V80  1  0.25069647  0.12704568  0.87086860  1
  V  V81  1  -0.00180652  0.24652634  0.75103732  1
  V  V82  1  0.49535609  0.74563769  0.25118036  1
  V  V83  1  0.37473600  0.87861974  0.49812327  1
  V  V84  1  0.75072287  0.49740242  0.24822961  1
  Zn  Zn85  1  -0.00063482  0.37424422  0.87072061  1
  Zn  Zn86  1  0.50086902  0.37718874  0.37205846  1
  Zn  Zn87  1  0.23875174  0.75292857  -0.00609349  1
  Zn  Zn88  1  0.22997367  0.22695778  0.49417177  1
  Zn  Zn89  1  0.51684541  0.15242303  0.61051883  1
  Zn  Zn90  1  0.12335996  0.25318628  0.87099275  1
  Zn  Zn91  1  0.87578995  0.11485613  0.74790958  1
  Zn  Zn92  1  0.37690484  0.25639635  0.63059781  1
  Zn  Zn93  1  0.13464131  -0.00500728  0.11756686  1
  Zn  Zn94  1  0.87232749  0.12961319  0.25069455  1
  Zn  Zn95  1  0.24915058  -0.00076480  0.24007913  1
  Zn  Zn96  1  0.62804103  0.87287195  0.24556384  1
  Zn  Zn97  1  0.50555640  0.01210658  0.49509568  1
  Zn  Zn98  1  0.24380326  0.36914260  0.61975912  1
  Zn  Zn99  1  0.12478617  0.50316257  0.12269234  1
  Zn  Zn100  1  0.86845335  0.62177444  0.74769952  1
  Zn  Zn101  1  0.11750120  0.64479857  -0.01293710  1
  Zn  Zn102  1  0.86300848  0.87656817  0.03778261  1
  Zn  Zn103  1  0.12509399  0.49926111  0.62258627  1
  Zn  Zn104  1  0.24283269  0.62638088  0.87637257  1
  Zn  Zn105  1  0.87426533  0.87253941  0.49359564  1
  Zn  Zn106  1  0.11997919  0.37401225  0.74724743  1
  Zn  Zn107  1  0.19171190  0.18515548  0.32322839  1
  Zn  Zn108  1  0.18716499  0.19217909  0.67988145  1
  Zn  Zn109  1  0.18031994  0.68867847  0.18317018  1
  Zn  Zn110  1  0.18304776  0.68611965  0.68721737  1
  Zn  Zn111  1  0.68714205  0.18350366  0.17779728  1
  Zn  Zn112  1  0.69300126  0.18749957  0.69704249  1
  Zn  Zn113  1  0.67967970  0.68287233  0.19321855  1
  Zn  Zn114  1  0.68551295  0.68031713  0.69182401  1
  Zn  Zn115  1  0.31622919  0.31686855  0.31314800  1
  Zn  Zn116  1  0.31409458  0.31614253  0.81427501  1
  Zn  Zn117  1  0.31389037  0.81209167  0.31241452  1
  Zn  Zn118  1  0.31041701  0.81409637  0.81409138  1
  Zn  Zn119  1  0.81239297  0.30678632  0.31174109  1
  Zn  Zn120  1  0.80063973  0.31074566  0.80756265  1
  Zn  Zn121  1  0.83430417  0.83613652  0.25219851  1
  Zn  Zn122  1  0.81261895  0.81099828  0.81347722  1
  Zn  Zn123  1  0.18745850  0.44459599  0.43710243  1
  Zn  Zn124  1  0.18810576  0.43970685  0.92699604  1
  Zn  Zn125  1  0.18437401  0.94246207  0.43059644  1
  Zn  Zn126  1  0.18497386  0.93656128  0.93832912  1
  Zn  Zn127  1  0.68596957  0.43255420  0.43637724  1
  Zn  Zn128  1  0.69295433  0.44273511  0.94626789  1
  Zn  Zn129  1  0.69161966  0.93554166  0.43467313  1
  Zn  Zn130  1  0.68410753  0.92613197  0.93925520  1
  Zn  Zn131  1  0.31060480  0.06370187  0.06177033  1
  Zn  Zn132  1  0.31334913  0.06258216  0.57058739  1
  Zn  Zn133  1  0.30681909  0.56671726  0.05774328  1
  Zn  Zn134  1  0.31096517  0.56281108  0.56112617  1
  Zn  Zn135  1  0.80482853  0.07370445  0.05269531  1
  Zn  Zn136  1  0.81253787  0.05913174  0.56112871  1
  Zn  Zn137  1  0.81139803  0.56243939  0.06175383  1
  Zn  Zn138  1  0.81287175  0.55999852  0.56053949  1
  Zn  Zn139  1  0.43418132  0.43705303  0.18537753  1
  Zn  Zn140  1  0.43570220  0.44140532  0.67471001  1
  Zn  Zn141  1  0.43921526  0.93648033  0.18850065  1
  Zn  Zn142  1  0.43821388  0.94168705  0.68740167  1
  Zn  Zn143  1  0.94164709  0.43614079  0.18812427  1
  Zn  Zn144  1  0.93048285  0.43501129  0.68727831  1
  Zn  Zn145  1  0.94277056  0.94556461  0.19039641  1
  Zn  Zn146  1  0.93699107  0.93442590  0.68615286  1
  Zn  Zn147  1  0.05741240  0.05521478  0.30376453  1
  Zn  Zn148  1  0.05974663  0.06213727  0.81093233  1
  Zn  Zn149  1  0.06330076  0.55850282  0.31145277  1
  Zn  Zn150  1  0.06363204  0.56527455  0.81294529  1
  Zn  Zn151  1  0.56440671  0.06489574  0.31181130  1
  Zn  Zn152  1  0.56761747  0.06105233  0.81642036  1
  Zn  Zn153  1  0.56369204  0.56319037  0.30654075  1
  Zn  Zn154  1  0.56313908  0.44467813  0.80963054  1
  Zn  Zn155  1  0.39751753  0.16720497  0.45785690  1
  Zn  Zn156  1  0.43948558  0.18660702  0.93959855  1
  Zn  Zn157  1  0.43325749  0.68856550  0.43560091  1
  Zn  Zn158  1  0.40827648  0.69698469  0.92459300  1
  Zn  Zn159  1  1.05708332  0.17761572  0.43897845  1
  Zn  Zn160  1  0.92185840  0.18763641  0.93191001  1
  Zn  Zn161  1  0.93291781  0.68868342  0.43265563  1
  Zn  Zn162  1  0.93338514  0.68939999  0.94104393  1
  Zn  Zn163  1  0.06166514  0.31170710  0.06073164  1
  Zn  Zn164  1  0.06179615  0.31417074  0.56670473  1
  Zn  Zn165  1  0.05399236  0.80958717  0.06796602  1
  Zn  Zn166  1  0.06057960  0.81310457  0.56292571  1
  Zn  Zn167  1  0.56037883  0.30873613  0.04942878  1
  Zn  Zn168  1  0.55180554  0.32031443  0.56400009  1
  Zn  Zn169  1  0.55690178  0.81099998  0.06143943  1
  Zn  Zn170  1  0.56333590  0.81674294  0.55985355  1
  O  O171  1  0.10696806  0.12233249  0.11132339  1
  O  O172  1  0.11051536  0.11590470  0.62970275  1
  O  O173  1  0.10745923  0.62222856  0.12335925  1
  O  O174  1  0.11019193  0.62425536  0.61648220  1
  O  O175  1  0.61721823  0.11557878  0.10867848  1
  O  O176  1  0.62684706  0.11231420  0.63814218  1
  O  O177  1  0.61467967  0.61780132  0.12083569  1
  O  O178  1  0.61352268  0.62270742  0.62136130  1
  O  O179  1  0.37871171  0.39344896  0.37900505  1
  O  O180  1  0.36925426  0.38080522  0.89250013  1
  O  O181  1  0.38259273  0.88101968  0.37967760  1
  O  O182  1  0.37524169  0.89012673  0.87902576  1
  O  O183  1  0.86638751  0.38400801  0.38126468  1
  O  O184  1  0.87365149  0.38649769  0.88269768  1
  O  O185  1  0.88482413  0.88198103  0.36480352  1
  O  O186  1  0.88422710  0.88014383  0.87419860  1
  O  O187  1  0.26388753  -0.00532624  0.36568863  1
  O  O188  1  0.25779456  0.00856109  0.87145499  1
  O  O189  1  0.25551559  0.51186451  0.36658540  1
  O  O190  1  0.26195006  0.50145317  0.85693956  1
  O  O191  1  0.74845344  0.01157980  0.36800055  1
  O  O192  1  0.75432527  -0.02036875  0.86481783  1
  O  O193  1  0.75367837  0.50487133  0.36941801  1
  O  O194  1  0.76296512  0.51729551  0.88087745  1
  O  O195  1  0.24750846  0.49373493  0.13073301  1
  O  O196  1  0.24685122  0.50386100  0.63620090  1
  O  O197  1  0.24782784  1.00077690  0.12559587  1
  O  O198  1  0.24337823  0.99438025  0.63403012  1
  O  O199  1  0.74227309  0.49452248  0.13065752  1
  O  O200  1  0.74225213  0.49551094  0.62480954  1
  O  O201  1  0.74023176  1.00953259  0.12735742  1
  O  O202  1  0.74144657  0.99363503  0.63476450  1
  O  O203  1  0.01131108  0.36180758  0.24547388  1
  O  O204  1  -0.00513867  0.36228158  0.74867841  1
  O  O205  1  0.00773618  0.86753677  0.25833785  1
  O  O206  1  0.00459656  0.86734962  0.75736177  1
  O  O207  1  0.50476693  0.36638216  0.24696195  1
  O  O208  1  0.46261552  0.40835654  0.77832939  1
  O  O209  1  0.50325813  0.86738783  0.26138627  1
  O  O210  1  0.50982256  0.86744842  0.74303841  1
  O  O211  1  0.49905312  0.13037401  0.23598697  1
  O  O212  1  0.49367360  0.12625326  0.75607191  1
  O  O213  1  0.50247369  0.63512603  0.24075111  1
  O  O214  1  0.48885651  0.63581054  0.73166156  1
  O  O215  1  0.99668448  0.13504096  0.23827884  1
  O  O216  1  0.99309526  0.12979471  0.74486507  1
  O  O217  1  0.99399882  0.62928650  0.24732534  1
  O  O218  1  0.99578120  0.63128211  0.74010034  1
  O  O219  1  0.36810090  0.25894810  0.00237919  1
  O  O220  1  0.38902971  0.27776737  0.49205132  1
  O  O221  1  0.38511976  0.76401843  0.01559787  1
  O  O222  1  0.36839858  0.76135629  0.50267332  1
  O  O223  1  0.89199053  0.26408897  0.01682203  1
  O  O224  1  0.88026121  0.26151095  0.51062719  1
  O  O225  1  0.85758070  0.74949504  0.00488231  1
  O  O226  1  0.86427090  0.75019767  0.50522033  1
  O  O227  1  0.11878624  0.24501148  0.50314953  1
  O  O228  1  0.13233742  0.24388319  0.99574976  1
  O  O229  1  0.12704865  0.73863403  0.50308894  1
  O  O230  1  0.12503787  0.75975992  1.00025034  1
  O  O231  1  0.61616985  0.26059754  0.48580872  1
  O  O232  1  0.65527731  0.24365563  1.03747486  1
  O  O233  1  0.62815927  0.74993426  0.48813518  1
  O  O234  1  0.62973982  0.74507458  0.99462929  1
  O  O235  1  0.49575883  0.24106925  0.12860917  1
  O  O236  1  0.49230213  0.25937882  0.63459330  1
  O  O237  1  0.49634535  0.74265644  0.13516398  1
  O  O238  1  0.49483901  0.74598288  0.62403149  1
  O  O239  1  0.99651823  0.24526173  0.13233315  1
  O  O240  1  0.99139668  0.23595163  0.63248625  1
  O  O241  1  0.99461616  0.74059350  0.14135554  1
  O  O242  1  0.99227474  0.74390910  0.63039180  1
  O  O243  1  -0.00650919  0.24300574  0.36015679  1
  O  O244  1  -0.00591754  0.24676428  0.86034649  1
  O  O245  1  -0.00669533  0.76043825  0.36352099  1
  O  O246  1  -0.00848168  0.75985949  0.86759613  1
  O  O247  1  0.51102292  0.25085506  0.35542112  1
  O  O248  1  0.54350797  0.23360030  0.94722639  1
  O  O249  1  0.50411161  0.75379193  0.37009335  1
  O  O250  1  0.50615532  0.74144052  0.86917318  1
  O  O251  1  0.29201283  0.13143037  0.48858960  1
  O  O252  1  0.24767991  0.13389990  0.98783799  1
  O  O253  1  0.23902181  0.62985060  0.49252234  1
  O  O254  1  0.23900517  0.63000906  0.99765324  1
  O  O255  1  0.74823285  0.12289963  0.48777198  1
  O  O256  1  0.73336513  0.12663177  0.97612380  1
  O  O257  1  0.75284526  0.63386715  0.49233384  1
  O  O258  1  0.74179336  0.63547536  0.99750236  1
  O  O259  1  0.25173653  0.37138823  0.00399108  1
  O  O260  1  0.26368310  0.38723834  0.49829435  1
  O  O261  1  0.26445881  0.87462045  -0.00688088  1
  O  O262  1  0.25444380  0.87072841  0.50158172  1
  O  O263  1  0.76589630  0.38049884  0.00870475  1
  O  O264  1  0.75982304  0.37944713  0.50877241  1
  O  O265  1  0.74955306  0.85547539  0.00189788  1
  O  O266  1  0.74871663  0.85933804  0.50437712  1
  O  O267  1  0.13416274  0.49099094  0.24660593  1
  O  O268  1  0.13703240  0.50145335  0.74710749  1
  O  O269  1  0.12485087  0.98491523  0.24225207  1
  O  O270  1  0.12959889  0.99183192  0.74526915  1
  O  O271  1  0.62977664  0.49251341  0.23975763  1
  O  O272  1  0.62913187  0.50666765  0.72887788  1
  O  O273  1  0.62928360  1.00270091  0.23583794  1
  O  O274  1  0.63011683  0.98883838  0.74637345  1
  O  O275  1  0.37565871  0.00745119  0.25398471  1
  O  O276  1  0.37124243  0.00778195  0.75872992  1
  O  O277  1  0.36025839  0.49671184  0.25476860  1
  O  O278  1  0.36340329  0.51261503  0.74171110  1
  O  O279  1  0.86635227  0.00726914  0.25870776  1
  O  O280  1  0.86487198  -0.00854091  0.75714616  1
  O  O281  1  0.87261563  0.50471420  0.25782788  1
  O  O282  1  0.86332225  0.50075286  0.76146826  1
  O  O283  1  0.12502933  0.38323280  0.36459579  1
  O  O284  1  0.11845765  0.37161934  0.86690946  1
  O  O285  1  0.10910995  0.88194148  0.36531162  1
  O  O286  1  0.11320406  0.88106561  0.86355600  1
  O  O287  1  0.62425464  0.36588210  0.36303792  1
  O  O288  1  0.66567818  0.41534257  0.84109101  1
  O  O289  1  0.61690288  0.86598681  0.37606899  1
  O  O290  1  0.62539299  0.85996109  0.86400674  1
  O  O291  1  0.38505319  0.13034831  0.12795575  1
  O  O292  1  0.38000432  0.12132860  0.64859498  1
  O  O293  1  0.38578831  0.63172018  0.11870931  1
  O  O294  1  0.37977775  0.63325071  0.62754018  1
  O  O295  1  0.88230826  0.13550746  0.12046335  1
  O  O296  1  0.87897911  0.12800104  0.62608612  1
  O  O297  1  0.88451077  0.61471689  0.13630775  1
  O  O298  1  0.88241542  0.63046307  0.62485535  1
  O  O299  1  0.25751154  0.25879365  0.10855048  1
  O  O300  1  0.25963661  0.25165163  0.61574483  1
  O  O301  1  0.26453908  0.74429693  0.12703611  1
  O  O302  1  0.25268928  0.75710231  0.61791756  1
  O  O303  1  0.76975137  0.25742684  0.13924647  1
  O  O304  1  0.75554524  0.25691782  0.62684082  1
  O  O305  1  0.74187739  0.74379536  0.11824399  1
  O  O306  1  0.75153528  0.74850599  0.61931422  1
  O  O307  1  0.25612345  0.25478770  0.38091571  1
  O  O308  1  0.25028604  0.24429044  0.88323708  1
  O  O309  1  0.25529752  0.73833145  0.38005017  1
  O  O310  1  0.29439623  0.73358877  0.88859582  1
  O  O311  1  0.74105910  0.23628815  0.36997933  1
  O  O312  1  0.80927184  0.23537574  0.89574016  1
  O  O313  1  0.74016458  0.73964921  0.38312713  1
  O  O314  1  0.74270297  0.74147660  0.87700056  1
  O  O315  1  -0.00245271  0.11806629  -0.00113515  1
  O  O316  1  -0.00939493  0.12042855  0.51612621  1
  O  O317  1  -0.00322206  0.61995413  0.00869647  1
  O  O318  1  0.00168219  0.62044154  0.50317977  1
  O  O319  1  0.50502132  0.10890682  0.01007329  1
  O  O320  1  0.49041365  0.12287834  0.50531751  1
  O  O321  1  0.51003501  0.63405130  0.00864541  1
  O  O322  1  0.49226713  0.61729722  0.50524825  1
  O  O323  1  0.49166868  0.39570370  0.49339139  1
  O  O324  1  0.48187128  0.38163059  1.01131581  1
  O  O325  1  0.49185666  0.87669781  0.48913528  1
  O  O326  1  0.48936720  0.88571057  1.00268261  1
  O  O327  1  0.99018890  0.38821664  0.50522921  1
  O  O328  1  0.99115768  0.38436112  0.99809418  1
  O  O329  1  0.99625261  0.86650387  0.48276929  1
  O  O330  1  0.99001138  0.88163059  0.99610149  1
  O  O331  1  0.49285225  0.50589749  0.37655152  1
  O  O332  1  0.49491306  0.50742775  0.88669075  1
  O  O333  1  0.49743052  0.99046487  0.37451842  1
  O  O334  1  0.49347939  1.00438415  0.88460973  1
  O  O335  1  0.98704862  0.50531738  0.38293153  1
  O  O336  1  0.98955433  0.50186649  0.87970142  1
  O  O337  1  0.98774161  0.98715744  0.36894928  1
  O  O338  1  0.99083310  0.99151223  0.88463296  1
  O  O339  1  -0.00269424  0.00959045  0.11155429  1
  O  O340  1  0.00487618  0.01110845  0.63167689  1
  O  O341  1  0.00143738  0.50573732  0.11616701  1
  O  O342  1  -0.00578377  0.50938784  0.61687001  1
  O  O343  1  0.50713256  0.00512409  0.11964882  1
  O  O344  1  0.51799925  -0.00288698  0.62483400  1
  O  O345  1  0.50644464  0.50999890  0.13244728  1
  O  O346  1  0.50773275  0.51005685  0.61347090  1
  O  O347  1  0.24333864  0.38063721  0.24056160  1
  O  O348  1  0.25331650  0.38834953  0.74539261  1
  O  O349  1  0.23253462  0.87068562  0.25765881  1
  O  O350  1  0.24050579  0.87839622  0.74729787  1
  O  O351  1  0.74487182  0.37985137  0.24374431  1
  O  O352  1  0.76183647  0.38695074  0.72973826  1
  O  O353  1  0.74029202  0.89814477  0.25992436  1
  O  O354  1  0.73930688  0.87386416  0.74279883  1
  O  O355  1  0.26400862  0.12770141  0.24616267  1
  O  O356  1  0.25287217  0.12273596  0.76109892  1
  O  O357  1  0.23986624  0.61705633  0.25561200  1
  O  O358  1  0.25612271  0.62036609  0.74760795  1
  O  O359  1  0.74937416  0.11621557  0.25145032  1
  O  O360  1  0.75404901  0.10460310  0.76338783  1
  O  O361  1  0.75576649  0.61757446  0.25582519  1
  O  O362  1  0.74634471  0.61241101  0.76324357  1
  O  O363  1  0.39227514  0.11153920  0.35532063  1
  O  O364  1  0.37179438  0.11907043  0.86930172  1
  O  O365  1  0.36421504  0.61683556  0.37619000  1
  O  O366  1  0.38349754  0.60816668  0.85173505  1
  O  O367  1  0.85664229  0.11682885  0.37095480  1
  O  O368  1  0.86285304  0.10114220  0.87363502  1
  O  O369  1  0.86268430  0.61381343  0.37003467  1
  O  O370  1  0.86762807  0.62190928  0.87312987  1
  O  O371  1  0.13515906  0.37510856  0.12768288  1
  O  O372  1  0.12669107  0.38266181  0.62980832  1
  O  O373  1  0.11564101  0.87651354  0.14040680  1
  O  O374  1  0.12555219  0.88077435  0.63573115  1
  O  O375  1  0.62699172  0.38277406  0.12631532  1
  O  O376  1  0.63394699  0.38628171  0.61737572  1
  O  O377  1  0.61825971  0.88661043  0.12600434  1
  O  O378  1  0.63092545  0.88009687  0.63246183  1
  O  O379  1  0.11474336  0.25655550  0.25430410  1
  O  O380  1  0.11240837  0.24861799  0.74931157  1
  O  O381  1  0.11530354  0.75970106  0.24923294  1
  O  O382  1  0.10927767  0.75863266  0.74258540  1
  O  O383  1  0.61922636  0.25521442  0.24319532  1
  O  O384  1  0.70135928  0.23560915  0.80142177  1
  O  O385  1  0.61591329  0.75183022  0.26210739  1
  O  O386  1  0.61789933  0.75271372  0.75666216  1
  O  O387  1  0.38429164  0.24517126  0.24066796  1
  O  O388  1  0.37427571  0.23619516  0.75741397  1
  O  O389  1  0.38736229  0.75536632  0.24399312  1
  O  O390  1  0.37904457  0.74772292  0.74004960  1
  O  O391  1  0.88961548  0.25240293  0.24237640  1
  O  O392  1  0.87840236  0.24632323  0.73489907  1
  O  O393  1  0.87979738  0.73158711  0.25916740  1
  O  O394  1  0.88379923  0.74790887  0.74231399  1
  O  O395  1  0.38080385  0.49949536  0.48936969  1
  O  O396  1  0.37018917  0.49154495  0.99472242  1
  O  O397  1  0.37643972  0.98717466  0.49199953  1
  O  O398  1  0.38297690  0.99603617  0.99380645  1
  O  O399  1  0.88002990  0.49295683  0.49144462  1
  O  O400  1  0.88425577  0.49655283  0.99377351  1
  O  O401  1  0.86252539  0.99083461  0.48262008  1
  O  O402  1  0.87443504  0.99316937  0.99597146  1
  O  O403  1  0.11207279  0.00531934  -0.00243711  1
  O  O404  1  0.12908930  -0.00704552  0.51621651  1
  O  O405  1  0.11095973  0.49823480  -0.00280927  1
  O  O406  1  0.11380332  0.51190368  0.49947673  1
  O  O407  1  0.61784883  -0.00643729  0.00347355  1
  O  O408  1  0.62881816  -0.00523051  0.51730758  1
  O  O409  1  0.62868248  0.51024786  0.01376845  1
  O  O410  1  0.61742047  0.50096317  0.50427190  1
  O  O411  1  0.36232538  0.37358876  0.11573103  1
  O  O412  1  0.36951432  0.38186952  0.60609083  1
  O  O413  1  0.37888381  0.86706641  0.11954319  1
  O  O414  1  0.36847894  0.87415047  0.61674421  1
  O  O415  1  0.87204283  0.37187275  0.11949456  1
  O  O416  1  0.86737839  0.36681460  0.61517842  1
  O  O417  1  0.87367079  0.86953937  0.14898450  1
  O  O418  1  0.86704162  0.86689932  0.62115163  1
  O  O419  1  0.12122616  0.11418764  0.37183221  1
  O  O420  1  0.13418495  0.12548045  0.87785013  1
  O  O421  1  0.13178902  0.62201028  0.38178334  1
  O  O422  1  0.12806207  0.62985451  0.87332082  1
  O  O423  1  0.63570209  0.13445505  0.37040087  1
  O  O424  1  0.63385670  0.12607055  0.88275556  1
  O  O425  1  0.63705528  0.62948678  0.36879501  1
  O  O426  1  0.63358142  0.63400008  0.88723909  1
