# generated using pymatgen
data_V85Zn86O256
_symmetry_space_group_name_H-M   'P 1'
_cell_length_a   16.94192706
_cell_length_b   16.93706116
_cell_length_c   16.94931184
_cell_angle_alpha   90.01846448
_cell_angle_beta   89.99373803
_cell_angle_gamma   90.01901280
_symmetry_Int_Tables_number   1
_chemical_formula_structural   V85Zn86O256
_chemical_formula_sum   'V85 Zn86 O256'
_cell_volume   4863.54439360
_cell_formula_units_Z   1
loop_
 _symmetry_equiv_pos_site_id
 _symmetry_equiv_pos_as_xyz
  1  'x, y, z'
loop_
 _atom_site_type_symbol
 _atom_site_label
 _atom_site_symmetry_multiplicity
 _atom_site_fract_x
 _atom_site_fract_y
 _atom_site_fract_z
 _atom_site_occupancy
  V  V0  1  0.49423092  0.49413138  0.49481760  1
  V  V1  1  0.62561479  0.13915536  0.00452824  1
  V  V2  1  0.12879434  0.24746035  0.87061810  1
  V  V3  1  0.03199600  -0.02869481  0.48366026  1
  V  V4  1  0.87245367  0.62680635  0.74698019  1
  V  V5  1  0.13676835  0.49012099  0.62075186  1
  V  V6  1  0.01038439  0.76235721  0.26329970  1
  V  V7  1  -0.00058261  0.37894678  0.87160620  1
  V  V8  1  0.24384320  0.13074359  0.37983179  1
  V  V9  1  0.87304678  0.49672890  0.37556760  1
  V  V10  1  0.87495378  0.37255109  -0.00313434  1
  V  V11  1  0.37714880  0.87460667  0.50996382  1
  V  V12  1  0.36921569  0.11594111  0.24657132  1
  V  V13  1  0.01119881  0.87596931  0.87023890  1
  V  V14  1  0.25734381  0.75051554  0.49927630  1
  V  V15  1  0.00268039  0.62183734  0.12069985  1
  V  V16  1  0.62418485  0.87662065  0.24911560  1
  V  V17  1  0.87750036  0.87809561  -0.00382865  1
  V  V18  1  0.50025320  0.74819976  0.25083677  1
  V  V19  1  0.00355244  0.12368725  0.12222978  1
  V  V20  1  0.24762125  0.87545251  0.14140079  1
  V  V21  1  0.74743145  0.49498721  0.74988849  1
  V  V22  1  0.13515686  -0.01671404  0.62794209  1
  V  V23  1  0.49019494  0.62836002  0.62561350  1
  V  V24  1  0.87384374  0.12679492  0.25135281  1
  V  V25  1  0.62369680  0.63268891  -0.00535071  1
  V  V26  1  0.36087056  0.37213709  0.49505274  1
  V  V27  1  -0.00153860  0.49868009  0.49935900  1
  V  V28  1  0.51125368  0.00720894  0.50449177  1
  V  V29  1  0.61983089  0.49555161  0.63011908  1
  V  V30  1  0.86654024  0.88384331  0.49514767  1
  V  V31  1  0.74833545  0.00374523  0.25055881  1
  V  V32  1  0.25312518  0.49503961  0.25455036  1
  V  V33  1  0.74979955  0.87728863  0.12376457  1
  V  V34  1  0.37716768  0.00052114  0.87445019  1
  V  V35  1  0.49954595  0.24153515  0.24415776  1
  V  V36  1  0.74505949  0.74832791  0.50141923  1
  V  V37  1  0.18496277  0.43055075  0.79457492  1
  V  V38  1  0.62516801  0.24645484  0.38732757  1
  V  V39  1  0.74736111  0.12846334  0.38833662  1
  V  V40  1  0.62217768  0.87796419  0.75395226  1
  V  V41  1  0.87762324  0.50397608  0.88009639  1
  V  V42  1  0.50572814  0.87054804  0.88138395  1
  V  V43  1  0.50043980  0.74751854  0.75272926  1
  V  V44  1  -0.00217433  0.62456375  0.62046334  1
  V  V45  1  0.37808486  0.61671577  0.25554196  1
  V  V46  1  0.24189788  0.73502719  0.00316838  1
  V  V47  1  0.63007342  0.25358642  0.85682498  1
  V  V48  1  0.37986234  0.37047886  0.00049731  1
  V  V49  1  0.49898972  0.87711710  0.37727620  1
  V  V50  1  0.49968455  0.62354369  0.12460068  1
  V  V51  1  0.87318706  0.24723378  0.11807147  1
  V  V52  1  0.50048915  0.49841683  -0.00473400  1
  V  V53  1  0.74748244  0.62349915  0.37570722  1
  V  V54  1  0.25210183  0.12169458  0.87216962  1
  V  V55  1  0.61710084  0.00577776  0.12244555  1
  V  V56  1  0.00821598  0.75790956  0.74320181  1
  V  V57  1  0.87607753  0.62667278  0.25058912  1
  V  V58  1  0.62702757  0.49906401  0.12255910  1
  V  V59  1  0.50343122  0.37098112  0.85976128  1
  V  V60  1  0.12572247  0.36624643  0.25271947  1
  V  V61  1  0.75276862  0.37284129  0.11983682  1
  V  V62  1  0.62100369  0.62312424  0.50205896  1
  V  V63  1  0.12773089  0.14295097  0.50557180  1
  V  V64  1  0.36482481  0.25266531  0.62129463  1
  V  V65  1  0.87380558  0.24643297  0.62365168  1
  V  V66  1  0.87259089  0.75187769  0.62279506  1
  V  V67  1  0.73964050  0.87927803  0.62762589  1
  V  V68  1  0.87573270  0.75267943  0.12628618  1
  V  V69  1  0.75028591  0.00329177  0.75215436  1
  V  V70  1  0.74563673  0.63367387  0.87208396  1
  V  V71  1  0.74374535  0.36942803  0.62292109  1
  V  V72  1  0.12423890  0.62762643  0.49205672  1
  V  V73  1  0.37006774  0.87361826  0.00509675  1
  V  V74  1  0.86946653  0.36704945  0.49849703  1
  V  V75  1  0.62423293  0.37058967  0.25009820  1
  V  V76  1  0.25088801  0.36913624  0.12603238  1
  V  V77  1  0.24787383  0.62565508  0.37123314  1
  V  V78  1  0.51270315  0.13017151  0.62443491  1
  V  V79  1  0.00342267  0.24962791  0.74603025  1
  V  V80  1  0.74941815  0.49859690  0.24928768  1
  V  V81  1  0.00320146  0.36575177  0.37489267  1
  V  V82  1  0.36150274  0.62271532  0.75683112  1
  V  V83  1  0.12813561  -0.00554350  0.13639288  1
  V  V84  1  0.37979166  0.12701862  0.74385039  1
  Zn  Zn85  1  0.87808834  0.00188490  0.37545579  1
  Zn  Zn86  1  0.49523676  0.37342323  0.37449373  1
  Zn  Zn87  1  0.49717960  0.00756561  0.00389644  1
  Zn  Zn88  1  0.11969131  0.49729296  0.12521969  1
  Zn  Zn89  1  0.11442907  0.61188084  -0.01690811  1
  Zn  Zn90  1  0.00426520  0.24651025  0.25114003  1
  Zn  Zn91  1  0.74639288  0.75499884  -0.00556369  1
  Zn  Zn92  1  0.87637851  0.12463455  0.75299993  1
  Zn  Zn93  1  0.00142498  0.11474800  0.62109381  1
  Zn  Zn94  1  0.00583501  -0.00148995  -0.00273833  1
  Zn  Zn95  1  0.31257702  0.80778235  0.67003088  1
  Zn  Zn96  1  0.38032537  0.24130226  0.12216350  1
  Zn  Zn97  1  0.75546706  0.13286425  0.87865865  1
  Zn  Zn98  1  0.36267968  0.49807527  0.87070289  1
  Zn  Zn99  1  0.37200580  0.74754250  0.12795285  1
  Zn  Zn100  1  0.12878588  0.12233182  -0.00013747  1
  Zn  Zn101  1  0.87934570  0.00286048  0.87161399  1
  Zn  Zn102  1  0.13538538  0.74702979  0.86275491  1
  Zn  Zn103  1  0.62452519  0.74949538  0.37485730  1
  Zn  Zn104  1  0.25211822  0.24684725  -0.00097754  1
  Zn  Zn105  1  0.36948662  0.00134659  0.37780566  1
  Zn  Zn106  1  0.25009623  -0.02173377  0.74754494  1
  Zn  Zn107  1  0.19129425  0.18474435  0.19007461  1
  Zn  Zn108  1  0.18958413  0.18530666  0.69074907  1
  Zn  Zn109  1  0.18477601  0.69085577  0.18992570  1
  Zn  Zn110  1  0.18261613  0.68108662  0.67966802  1
  Zn  Zn111  1  0.68954655  0.18864168  0.18728111  1
  Zn  Zn112  1  0.68958084  0.18668688  0.68663688  1
  Zn  Zn113  1  0.68779641  0.68836795  0.18536951  1
  Zn  Zn114  1  0.67984163  0.68902433  0.68874864  1
  Zn  Zn115  1  0.31426574  0.30572156  0.31466364  1
  Zn  Zn116  1  0.32271408  0.30486454  0.81154537  1
  Zn  Zn117  1  0.31706605  0.80698001  0.31823918  1
  Zn  Zn118  1  0.31789858  0.80696482  0.82894493  1
  Zn  Zn119  1  0.80995319  0.30787715  0.31085730  1
  Zn  Zn120  1  0.81347443  0.31280203  0.80796151  1
  Zn  Zn121  1  0.81174519  0.81144865  0.31233505  1
  Zn  Zn122  1  0.81770009  0.81613463  0.81063739  1
  Zn  Zn123  1  0.18648056  0.43854216  0.43436291  1
  Zn  Zn124  1  0.18458322  0.43728923  0.95835761  1
  Zn  Zn125  1  0.19714710  0.94292977  0.43970732  1
  Zn  Zn126  1  0.18819685  0.93716590  0.94373972  1
  Zn  Zn127  1  0.68342277  0.43388482  0.43961806  1
  Zn  Zn128  1  0.68805485  0.43677972  0.93502868  1
  Zn  Zn129  1  0.68676810  0.94047245  0.43467300  1
  Zn  Zn130  1  0.68746056  0.94313403  0.93850872  1
  Zn  Zn131  1  0.30834231  0.05917217  0.06316025  1
  Zn  Zn132  1  0.31140668  0.06159468  0.55920274  1
  Zn  Zn133  1  0.31506367  0.55509426  0.06803576  1
  Zn  Zn134  1  0.31366603  0.56138702  0.56026615  1
  Zn  Zn135  1  0.80842052  0.06259866  0.05881129  1
  Zn  Zn136  1  0.80413367  0.06258692  0.56968639  1
  Zn  Zn137  1  0.81362724  0.56450103  0.05953249  1
  Zn  Zn138  1  0.81000218  0.55859407  0.56175484  1
  Zn  Zn139  1  0.43884003  0.43367751  0.18730817  1
  Zn  Zn140  1  0.42792779  0.44064665  0.68341469  1
  Zn  Zn141  1  0.43604928  0.93746772  0.18862768  1
  Zn  Zn142  1  0.44364354  0.94529286  0.68934513  1
  Zn  Zn143  1  0.93730137  0.43648433  0.18923689  1
  Zn  Zn144  1  0.93735318  0.43622424  0.68755868  1
  Zn  Zn145  1  0.94023746  0.93992670  0.18852213  1
  Zn  Zn146  1  0.93833251  0.93912458  0.67901471  1
  Zn  Zn147  1  0.06474099  0.06415662  0.31541799  1
  Zn  Zn148  1  0.06332762  0.06196891  0.80692533  1
  Zn  Zn149  1  0.06142239  0.55930986  0.30738116  1
  Zn  Zn150  1  0.05826113  0.56988629  0.80834258  1
  Zn  Zn151  1  0.55945835  0.06452088  0.31496880  1
  Zn  Zn152  1  0.56349242  0.06453199  0.81372851  1
  Zn  Zn153  1  0.56374050  0.55891493  0.31418983  1
  Zn  Zn154  1  0.56064548  0.56149677  0.81187903  1
  Zn  Zn155  1  0.43496815  0.18838237  0.43540548  1
  Zn  Zn156  1  0.44490553  0.18823406  0.93529060  1
  Zn  Zn157  1  0.43617205  0.68632509  0.43523327  1
  Zn  Zn158  1  0.43136085  0.68804361  0.93653437  1
  Zn  Zn159  1  0.94180391  0.18264713  0.43990609  1
  Zn  Zn160  1  0.93927623  0.18789113  0.93617039  1
  Zn  Zn161  1  0.93324545  0.68988818  0.43697586  1
  Zn  Zn162  1  0.93870919  0.69438215  0.93491910  1
  Zn  Zn163  1  0.06149340  0.31185661  0.05828778  1
  Zn  Zn164  1  0.06017878  0.31399677  0.56230546  1
  Zn  Zn165  1  0.06183862  0.81191443  0.06603201  1
  Zn  Zn166  1  0.06716658  0.81447380  0.54475566  1
  Zn  Zn167  1  0.56232864  0.31143190  0.06308761  1
  Zn  Zn168  1  0.55640917  0.31197134  0.56675000  1
  Zn  Zn169  1  0.56019678  0.81301302  0.06508296  1
  Zn  Zn170  1  0.55941950  0.81154062  0.56531146  1
  O  O171  1  0.11987763  0.11809129  0.12488731  1
  O  O172  1  0.12528165  0.12834982  0.61408919  1
  O  O173  1  0.10731588  0.62516506  0.13085307  1
  O  O174  1  0.11495743  0.61297450  0.61466080  1
  O  O175  1  0.62987434  0.12108761  0.11362471  1
  O  O176  1  0.61191597  0.13180680  0.62307486  1
  O  O177  1  0.62011694  0.61740091  0.11776076  1
  O  O178  1  0.61472446  0.61606404  0.62066678  1
  O  O179  1  0.37653925  0.36808819  0.39057734  1
  O  O180  1  0.38779789  0.37515599  0.88029235  1
  O  O181  1  0.38876500  0.87579709  0.38122478  1
  O  O182  1  0.38511458  0.88255519  0.88634234  1
  O  O183  1  0.87643394  0.37686821  0.38100295  1
  O  O184  1  0.88010390  0.38140819  0.87875386  1
  O  O185  1  0.86173942  0.87949901  0.39109078  1
  O  O186  1  0.88418809  0.87705171  0.88278910  1
  O  O187  1  0.25415946  0.01631577  0.37777265  1
  O  O188  1  0.26140457  0.00283481  0.87376250  1
  O  O189  1  0.24890948  0.50696637  0.36136718  1
  O  O190  1  0.24111693  0.48210324  0.86346911  1
  O  O191  1  0.74868457  0.01067758  0.36660477  1
  O  O192  1  0.75378761  -0.00229947  0.86207026  1
  O  O193  1  0.75269812  0.50270835  0.37014816  1
  O  O194  1  0.75548002  0.50700313  0.86577756  1
  O  O195  1  0.25107774  0.48488547  0.13611964  1
  O  O196  1  0.23542897  0.50326351  0.62180067  1
  O  O197  1  0.23739861  0.99132779  0.12566781  1
  O  O198  1  0.23998784  1.00009416  0.62678976  1
  O  O199  1  0.74742075  0.49490764  0.12917996  1
  O  O200  1  0.74140076  0.49305340  0.63096744  1
  O  O201  1  0.74037151  0.99625824  0.13152088  1
  O  O202  1  0.74584071  0.99116505  0.63812824  1
  O  O203  1  0.00743199  0.37402789  0.25697780  1
  O  O204  1  -0.00687433  0.36316168  0.76048862  1
  O  O205  1  -0.00754673  0.86142926  0.25074754  1
  O  O206  1  -0.00757842  0.86771441  0.75509703  1
  O  O207  1  0.50779744  0.36886473  0.25399519  1
  O  O208  1  0.49639665  0.38350466  0.76234552  1
  O  O209  1  0.50321365  0.86965487  0.25781097  1
  O  O210  1  0.50434513  0.87037619  0.75815440  1
  O  O211  1  0.48635064  0.13146465  0.25560825  1
  O  O212  1  0.49468368  0.11513809  0.73320225  1
  O  O213  1  0.49520153  0.62574943  0.24780593  1
  O  O214  1  0.49679575  0.63199426  0.74485546  1
  O  O215  1  0.99275430  0.12536268  0.24056230  1
  O  O216  1  0.99849741  0.13627146  0.74285231  1
  O  O217  1  0.99105694  0.63247678  0.24329610  1
  O  O218  1  0.98903194  0.63389720  0.73748866  1
  O  O219  1  0.37865542  0.25923475  0.00076412  1
  O  O220  1  0.37770485  0.26050952  0.50988707  1
  O  O221  1  0.36553346  0.75530137  0.00636944  1
  O  O222  1  0.36997999  0.75776523  0.49575021  1
  O  O223  1  0.87757982  0.25927010  0.00640621  1
  O  O224  1  0.88023709  0.26062715  0.50588099  1
  O  O225  1  0.87234612  0.76180921  0.00761216  1
  O  O226  1  0.86291425  0.75761605  0.50453423  1
  O  O227  1  0.12368045  0.24223670  0.50097000  1
  O  O228  1  0.12739129  0.24911145  0.98361943  1
  O  O229  1  0.13323841  0.73168582  0.49997168  1
  O  O230  1  0.13692847  0.74448538  1.00643648  1
  O  O231  1  0.62027792  0.25554357  0.48527901  1
  O  O232  1  0.62601736  0.24164891  0.99731114  1
  O  O233  1  0.62882798  0.74200926  0.50022663  1
  O  O234  1  0.62603722  0.73643511  1.00582815  1
  O  O235  1  0.49986823  0.25299407  0.13944110  1
  O  O236  1  0.49071359  0.23406731  0.61972435  1
  O  O237  1  0.49854517  0.74095515  0.13345362  1
  O  O238  1  0.50319652  0.73794622  0.63451249  1
  O  O239  1  0.99091791  0.24320274  0.12635414  1
  O  O240  1  0.99115350  0.25291726  0.63199877  1
  O  O241  1  0.98910112  0.74460069  0.13398703  1
  O  O242  1  0.99304910  0.74733990  0.62448546  1
  O  O243  1  -0.00681611  0.26247644  0.37162068  1
  O  O244  1  0.00881136  0.25645055  0.86693360  1
  O  O245  1  -0.00621657  0.74738630  0.36208809  1
  O  O246  1  -0.00336611  0.75925640  0.85901605  1
  O  O247  1  0.51152168  0.24934414  0.36603452  1
  O  O248  1  0.51035286  0.26436558  0.87441913  1
  O  O249  1  0.50299065  0.75699502  0.36859371  1
  O  O250  1  0.49343063  0.75948718  0.86796436  1
  O  O251  1  0.24044950  0.12791793  0.49202687  1
  O  O252  1  0.25315624  0.12690104  0.98551862  1
  O  O253  1  0.24595602  0.62440973  0.48851927  1
  O  O254  1  0.24964062  0.63353415  1.01304228  1
  O  O255  1  0.75253662  0.12303223  0.48762074  1
  O  O256  1  0.73176098  0.11829573  0.99337375  1
  O  O257  1  0.74254417  0.62813000  0.49647279  1
  O  O258  1  0.74167067  0.62620584  0.98989847  1
  O  O259  1  0.26135703  0.36988030  0.00897807  1
  O  O260  1  0.26195070  0.37966328  0.49771617  1
  O  O261  1  0.26002713  0.86867652  0.00916641  1
  O  O262  1  0.26569907  0.86341340  0.49230344  1
  O  O263  1  0.76537971  0.38261166  0.00383716  1
  O  O264  1  0.75827023  0.38035350  0.51066406  1
  O  O265  1  0.75608853  0.87437631  0.00536329  1
  O  O266  1  0.74893032  0.87050759  0.50808886  1
  O  O267  1  0.13332415  0.48755841  0.24442592  1
  O  O268  1  0.12500427  0.49728301  0.73871309  1
  O  O269  1  0.11916454  1.00188735  0.23577702  1
  O  O270  1  0.12824998  1.00336196  0.73144976  1
  O  O271  1  0.62962181  0.49151962  0.24374281  1
  O  O272  1  0.63149112  0.50429292  0.73790358  1
  O  O273  1  0.62801761  0.99733285  0.24371705  1
  O  O274  1  0.62933117  0.98548214  0.75700935  1
  O  O275  1  0.38187816  0.01331816  0.25548516  1
  O  O276  1  0.37384842  0.00881100  0.75736653  1
  O  O277  1  0.36800485  0.50469288  0.24662318  1
  O  O278  1  0.37629369  0.51589449  0.75271517  1
  O  O279  1  0.86988031  0.01197030  0.25062111  1
  O  O280  1  0.86617108  0.00219748  0.74625002  1
  O  O281  1  0.86786520  0.50472164  0.25612458  1
  O  O282  1  0.86603123  0.50735016  0.75478334  1
  O  O283  1  0.11399175  0.38030804  0.36712296  1
  O  O284  1  0.12358114  0.37343971  0.86576098  1
  O  O285  1  0.09579045  0.89095888  0.44753549  1
  O  O286  1  0.11449429  0.86791063  0.87977618  1
  O  O287  1  0.62549014  0.36366395  0.36722921  1
  O  O288  1  0.61502197  0.36533485  0.87840842  1
  O  O289  1  0.61461714  0.87466038  0.36833499  1
  O  O290  1  0.61212743  0.87717002  0.87436766  1
  O  O291  1  0.36663308  0.12365223  0.14051741  1
  O  O292  1  0.38024925  0.13099055  0.62802127  1
  O  O293  1  0.38307215  0.62235377  0.13645359  1
  O  O294  1  0.38562169  0.61861450  0.63386929  1
  O  O295  1  0.87948526  0.13009215  0.12838327  1
  O  O296  1  0.87671566  0.13742926  0.62132696  1
  O  O297  1  0.87916312  0.63387017  0.12911998  1
  O  O298  1  0.87764160  0.63097039  0.62489174  1
  O  O299  1  0.25432514  0.25894497  0.12378968  1
  O  O300  1  0.26624862  0.24437168  0.62697773  1
  O  O301  1  0.25021057  0.75691783  0.11879759  1
  O  O302  1  0.25069582  0.73763775  0.60533434  1
  O  O303  1  0.76512933  0.25669534  0.12827755  1
  O  O304  1  0.75741397  0.26132703  0.63069249  1
  O  O305  1  0.76139001  0.75586118  0.12371843  1
  O  O306  1  0.75102608  0.75485024  0.62007986  1
  O  O307  1  0.25095700  0.23160774  0.37257542  1
  O  O308  1  0.24566529  0.24162370  0.87317692  1
  O  O309  1  0.25296743  0.73413317  0.38208260  1
  O  O310  1  0.24959679  0.74942664  0.89914725  1
  O  O311  1  0.73545528  0.24282712  0.37047414  1
  O  O312  1  0.73487017  0.25509703  0.86925065  1
  O  O313  1  0.74651614  0.74237674  0.38251965  1
  O  O314  1  0.75570405  0.73701766  0.87278779  1
  O  O315  1  0.00180975  0.12467499  0.01323120  1
  O  O316  1  0.01803550  0.12210342  0.50045018  1
  O  O317  1  -0.00348849  0.63601162  0.01730251  1
  O  O318  1  0.00516081  0.61974185  0.49996047  1
  O  O319  1  0.51798214  0.12384084  -0.00402706  1
  O  O320  1  0.49525141  0.11409518  0.50737729  1
  O  O321  1  0.50466464  0.61757637  0.00053187  1
  O  O322  1  0.50004865  0.61825058  0.50779401  1
  O  O323  1  0.49222196  0.38118144  0.49883493  1
  O  O324  1  0.49569468  0.38164971  0.99628782  1
  O  O325  1  0.49762456  0.88192855  0.49475038  1
  O  O326  1  0.48871774  0.87343265  0.99679407  1
  O  O327  1  0.99163059  0.38008202  0.49205312  1
  O  O328  1  0.99013161  0.37146649  0.98320364  1
  O  O329  1  0.96923411  0.87589478  0.51302854  1
  O  O330  1  0.99360316  0.87234720  0.99092471  1
  O  O331  1  0.50513942  0.49729234  0.39116737  1
  O  O332  1  0.50407688  0.48852233  0.88469460  1
  O  O333  1  0.49820067  0.99422940  0.38701740  1
  O  O334  1  0.48959445  0.99360109  0.87662353  1
  O  O335  1  0.99119926  0.49114281  0.37874484  1
  O  O336  1  0.98850218  0.49115387  0.86128050  1
  O  O337  1  0.99616952  1.00551964  0.39073772  1
  O  O338  1  1.00106235  0.99145090  0.87472347  1
  O  O339  1  0.00971297  0.00635023  0.12247425  1
  O  O340  1  0.01340682  -0.00433547  0.60669508  1
  O  O341  1  -0.00670999  0.51898214  0.13204001  1
  O  O342  1  0.00165806  0.50458352  0.61712425  1
  O  O343  1  0.51391750  -0.00442095  0.12547939  1
  O  O344  1  0.49897284  0.01211434  0.61230667  1
  O  O345  1  0.50507707  0.50293691  0.11285636  1
  O  O346  1  0.50548396  0.50452327  0.61864622  1
  O  O347  1  0.24660194  0.37733860  0.24752536  1
  O  O348  1  0.24862897  0.37181151  0.74742899  1
  O  O349  1  0.25764388  0.86608480  0.24044319  1
  O  O350  1  0.26293282  0.86536516  0.75140146  1
  O  O351  1  0.74500153  0.37932784  0.24185518  1
  O  O352  1  0.75554817  0.38873909  0.73999917  1
  O  O353  1  0.74431628  0.88215088  0.24508421  1
  O  O354  1  0.74109747  0.87730968  0.74566290  1
  O  O355  1  0.26197647  0.12602874  0.25979074  1
  O  O356  1  0.26034962  0.12129089  0.76117651  1
  O  O357  1  0.25611473  0.61738264  0.25222003  1
  O  O358  1  0.26357361  0.63271392  0.74586141  1
  O  O359  1  0.75767152  0.12142969  0.25496099  1
  O  O360  1  0.75070570  0.11608710  0.75271919  1
  O  O361  1  0.75484209  0.61924305  0.25442503  1
  O  O362  1  0.75147287  0.61760475  0.75374507  1
  O  O363  1  0.36648544  0.12445952  0.36815304  1
  O  O364  1  0.37478235  0.11950103  0.86740875  1
  O  O365  1  0.36850557  0.62301165  0.36268614  1
  O  O366  1  0.37521368  0.61931174  0.86223275  1
  O  O367  1  0.86768644  0.12649795  0.36755575  1
  O  O368  1  0.87254938  0.12221818  0.87319559  1
  O  O369  1  0.86657111  0.61754110  0.37123622  1
  O  O370  1  0.86956387  0.61983097  0.86970331  1
  O  O371  1  0.13305842  0.37235801  0.13065403  1
  O  O372  1  0.12095798  0.39098485  0.62023757  1
  O  O373  1  0.13137565  0.88596439  0.12366136  1
  O  O374  1  0.12717002  0.88439257  0.61912358  1
  O  O375  1  0.63208719  0.37984592  0.12864346  1
  O  O376  1  0.63250973  0.38145870  0.62064082  1
  O  O377  1  0.63063626  0.88242500  0.12926965  1
  O  O378  1  0.63246196  0.86978530  0.63583995  1
  O  O379  1  0.12406222  0.26176232  0.24695589  1
  O  O380  1  0.11847379  0.24788563  0.75981156  1
  O  O381  1  0.11001386  0.75069460  0.25135480  1
  O  O382  1  0.11120898  0.74703745  0.74186038  1
  O  O383  1  0.61908193  0.25496053  0.25287285  1
  O  O384  1  0.62310025  0.25123598  0.75862570  1
  O  O385  1  0.61783771  0.75684304  0.24956536  1
  O  O386  1  0.61128118  0.76049745  0.75116748  1
  O  O387  1  0.38415370  0.23987758  0.24852774  1
  O  O388  1  0.37873690  0.23649515  0.73797499  1
  O  O389  1  0.38457227  0.73850217  0.24931399  1
  O  O390  1  0.38447637  0.73928463  0.74975952  1
  O  O391  1  0.87688783  0.23895131  0.24199847  1
  O  O392  1  0.88258794  0.24859502  0.74041706  1
  O  O393  1  0.87593527  0.74398854  0.24273238  1
  O  O394  1  0.87863049  0.74542183  0.73884784  1
  O  O395  1  0.38217852  0.48329474  0.50969627  1
  O  O396  1  0.38144034  0.48954149  0.99406454  1
  O  O397  1  0.38402777  0.98978206  0.49904414  1
  O  O398  1  0.37708133  0.99263931  0.99465203  1
  O  O399  1  0.87808072  0.48888730  0.49518974  1
  O  O400  1  0.87373117  0.49654638  0.98529063  1
  O  O401  1  0.86343952  0.98795339  0.50087369  1
  O  O402  1  0.87855500  0.98743710  1.00181899  1
  O  O403  1  0.12394155  0.00378502  0.01186415  1
  O  O404  1  0.13147220  0.01614552  0.51449646  1
  O  O405  1  0.11888776  0.50336858  0.01271532  1
  O  O406  1  0.12004638  0.50627842  0.50611581  1
  O  O407  1  0.62062049  0.00779701  0.00803306  1
  O  O408  1  0.60987616  -0.00342620  0.49951247  1
  O  O409  1  0.61913669  0.50742393  0.00342864  1
  O  O410  1  0.61778929  0.50334737  0.51113406  1
  O  O411  1  0.37007063  0.37146033  0.11659428  1
  O  O412  1  0.37982777  0.35951738  0.61806061  1
  O  O413  1  0.36777950  0.87445908  0.12028994  1
  O  O414  1  0.38908832  0.87360470  0.61437281  1
  O  O415  1  0.87595331  0.36853330  0.11580025  1
  O  O416  1  0.86777602  0.36750020  0.61730660  1
  O  O417  1  0.87083708  0.86996711  0.11946514  1
  O  O418  1  0.85675600  0.86998794  0.61906272  1
  O  O419  1  0.13456223  0.12340476  0.38607326  1
  O  O420  1  0.13474382  0.13042998  0.87358320  1
  O  O421  1  0.13413475  0.61407704  0.38050589  1
  O  O422  1  0.11698042  0.63514010  0.87374418  1
  O  O423  1  0.63186843  0.13811175  0.37117814  1
  O  O424  1  0.62420758  0.14207368  0.87942563  1
  O  O425  1  0.63063695  0.62437810  0.38301711  1
  O  O426  1  0.63347598  0.61904906  0.88257303  1
