# generated using pymatgen
data_V85Zn86O256
_symmetry_space_group_name_H-M   'P 1'
_cell_length_a   16.97463802
_cell_length_b   16.97019522
_cell_length_c   16.97636866
_cell_angle_alpha   89.97659782
_cell_angle_beta   90.07408348
_cell_angle_gamma   90.03672489
_symmetry_Int_Tables_number   1
_chemical_formula_structural   V85Zn86O256
_chemical_formula_sum   'V85 Zn86 O256'
_cell_volume   4890.25684560
_cell_formula_units_Z   1
loop_
 _symmetry_equiv_pos_site_id
 _symmetry_equiv_pos_as_xyz
  1  'x, y, z'
loop_
 _atom_site_type_symbol
 _atom_site_label
 _atom_site_symmetry_multiplicity
 _atom_site_fract_x
 _atom_site_fract_y
 _atom_site_fract_z
 _atom_site_occupancy
  V  V0  1  0.49620612  0.86676142  0.36896470  1
  V  V1  1  0.24944320  0.37434650  0.62756556  1
  V  V2  1  0.00540785  0.11500451  0.62145911  1
  V  V3  1  -0.00070755  0.37645263  0.87060229  1
  V  V4  1  0.12622078  0.37482984  0.75214133  1
  V  V5  1  0.63114582  0.37569909  0.75190954  1
  V  V6  1  0.87254917  0.62401636  0.74626091  1
  V  V7  1  0.87649595  0.38845065  0.49458773  1
  V  V8  1  0.23681814  0.87038797  0.11849852  1
  V  V9  1  0.12184237  0.75775558  0.37258154  1
  V  V10  1  0.24315209  0.74258616  0.50129956  1
  V  V11  1  0.26040996  0.00489250  0.74475617  1
  V  V12  1  0.69148148  0.04831909  0.19347989  1
  V  V13  1  0.37736691  0.25203458  0.62912794  1
  V  V14  1  0.14227326  0.62861734  -0.00678356  1
  V  V15  1  0.23691992  0.62094141  0.37452689  1
  V  V16  1  0.00379536  0.24933602  0.74997586  1
  V  V17  1  0.86862206  0.37012796  -0.00335327  1
  V  V18  1  0.23608065  -0.00943532  0.24671152  1
  V  V19  1  0.00105740  0.75243245  0.75170279  1
  V  V20  1  0.13563740  0.87903078  0.73489540  1
  V  V21  1  0.62117887  0.12459043  0.49609335  1
  V  V22  1  0.87340730  0.50486142  0.87284054  1
  V  V23  1  0.02545170  0.88132305  0.88968230  1
  V  V24  1  0.62345165  0.62261113  0.00016331  1
  V  V25  1  0.74839699  0.12961144  0.88992297  1
  V  V26  1  0.49991928  0.63448476  0.13025672  1
  V  V27  1  0.50729132  0.01032635  0.01455866  1
  V  V28  1  0.37975167  0.37199720  0.00713409  1
  V  V29  1  0.00559594  0.62626304  0.61695100  1
  V  V30  1  0.62027042  0.87020074  0.24466181  1
  V  V31  1  0.14296751  0.74284214  0.87116301  1
  V  V32  1  0.87596041  0.61392549  0.25093591  1
  V  V33  1  -0.01423176  0.88591207  0.38856854  1
  V  V34  1  0.37082523  0.75106528  0.62533324  1
  V  V35  1  0.87597975  0.11337572  0.24486113  1
  V  V36  1  0.50036347  0.49984607  0.50122965  1
  V  V37  1  0.74530409  0.00303746  0.75314064  1
  V  V38  1  0.62319226  0.74690047  0.36958099  1
  V  V39  1  0.49353394  0.88821017  0.87669036  1
  V  V40  1  0.63151811  0.50112225  0.63012064  1
  V  V41  1  0.38057084  0.12604451  0.24992168  1
  V  V42  1  0.87166935  0.12917849  0.75258942  1
  V  V43  1  0.37590405  0.37661585  0.49993436  1
  V  V44  1  0.24692013  0.12136944  0.37750165  1
  V  V45  1  0.49787833  0.37329633  0.36541775  1
  V  V46  1  0.87225897  -0.00739313  0.87318033  1
  V  V47  1  0.50119256  0.37705834  0.87633628  1
  V  V48  1  0.39084869  0.25421467  0.13245626  1
  V  V49  1  0.63186057  0.25053199  0.89162816  1
  V  V50  1  0.49310757  -0.00205799  0.50128508  1
  V  V51  1  -0.00285142  0.38491327  0.37240732  1
  V  V52  1  0.25142579  0.50278325  0.75332807  1
  V  V53  1  0.49441744  0.12661750  0.62522596  1
  V  V54  1  0.75148648  0.37855914  0.62757465  1
  V  V55  1  0.62285022  0.87746558  0.74841264  1
  V  V56  1  0.62944323  0.50361479  0.13562013  1
  V  V57  1  0.13295424  0.50425618  0.12079639  1
  V  V58  1  0.01597593  0.12274735  0.12264749  1
  V  V59  1  0.00049319  0.50841548  -0.00328770  1
  V  V60  1  0.62682334  0.62623703  0.49940238  1
  V  V61  1  0.87715724  0.75094312  0.12766765  1
  V  V62  1  0.37261325  0.62583298  0.76039902  1
  V  V63  1  0.62025232  0.25072238  0.37070668  1
  V  V64  1  0.74729184  0.87479201  0.13088012  1
  V  V65  1  0.37208426  -0.00295769  0.37213261  1
  V  V66  1  0.49993978  0.75201277  0.75230069  1
  V  V67  1  0.75556015  0.75464214  0.49624984  1
  V  V68  1  0.37597549  0.63487136  0.25198506  1
  V  V69  1  0.87506243  0.25440794  0.62376749  1
  V  V70  1  0.75702837  0.38013521  0.13257673  1
  V  V71  1  0.00305327  0.76363326  0.24707719  1
  V  V72  1  0.74993582  0.62308725  0.87067177  1
  V  V73  1  0.12181882  0.24934409  0.37844416  1
  V  V74  1  0.36861749  0.87096055  0.50056491  1
  V  V75  1  0.80248322  0.06848992  0.42019718  1
  V  V76  1  0.75514414  0.87577178  0.62246937  1
  V  V77  1  0.75127639  0.25388950  0.49344737  1
  V  V78  1  0.75395882  0.61335970  0.37013369  1
  V  V79  1  0.13064948  0.37396669  0.25140555  1
  V  V80  1  0.24690740  0.24742785  0.50281878  1
  V  V81  1  0.50126072  0.62525077  0.62657085  1
  V  V82  1  0.37310150  0.50179657  0.37352031  1
  V  V83  1  0.74874872  0.74949244  0.00115980  1
  V  V84  1  0.20441075  0.31897505  0.07044088  1
  Zn  Zn85  1  0.12744871  0.50410752  0.61826051  1
  Zn  Zn86  1  0.25334709  0.49776078  0.24435050  1
  Zn  Zn87  1  0.36955809  0.87567549  0.00266088  1
  Zn  Zn88  1  0.62427820  0.75096126  0.87468156  1
  Zn  Zn89  1  0.09744283  0.09349904  0.49139797  1
  Zn  Zn90  1  0.87017498  0.87794817  0.00062012  1
  Zn  Zn91  1  0.51422009  0.12669238  0.13268366  1
  Zn  Zn92  1  0.18830800  0.16816216  0.94723530  1
  Zn  Zn93  1  0.36898844  0.75235640  0.11836853  1
  Zn  Zn94  1  0.50339927  0.24925878  0.75363361  1
  Zn  Zn95  1  0.49884505  0.50264056  0.00290439  1
  Zn  Zn96  1  0.00663230  0.51043469  0.49126152  1
  Zn  Zn97  1  -0.00756246  0.25014636  0.24973609  1
  Zn  Zn98  1  0.00421949  0.63054887  0.12354594  1
  Zn  Zn99  1  0.62164144  0.00204309  0.62394735  1
  Zn  Zn100  1  0.37379607  0.50075759  0.88026957  1
  Zn  Zn101  1  0.37667954  0.12540859  0.75859179  1
  Zn  Zn102  1  0.87100211  0.24381829  0.12123095  1
  Zn  Zn103  1  0.63128974  0.38154655  0.25523314  1
  Zn  Zn104  1  0.33378914  0.04470693  0.90833057  1
  Zn  Zn105  1  0.87664974  0.75421705  0.62018432  1
  Zn  Zn106  1  0.00354406  0.01275865  0.00170621  1
  Zn  Zn107  1  0.19071479  0.18367102  0.19767583  1
  Zn  Zn108  1  0.18233198  0.18369102  0.79080129  1
  Zn  Zn109  1  0.18679867  0.68920485  0.18799603  1
  Zn  Zn110  1  0.18881137  0.68840456  0.68712721  1
  Zn  Zn111  1  0.69614457  0.21036103  0.18900094  1
  Zn  Zn112  1  0.68584770  0.19069173  0.68680287  1
  Zn  Zn113  1  0.69016412  0.68706992  0.19011424  1
  Zn  Zn114  1  0.68819511  0.69114987  0.68680269  1
  Zn  Zn115  1  0.31075473  0.31080764  0.31152778  1
  Zn  Zn116  1  0.31540509  0.30056368  0.82473663  1
  Zn  Zn117  1  0.30657063  0.81119258  0.30968092  1
  Zn  Zn118  1  0.31181712  0.81967572  0.81354149  1
  Zn  Zn119  1  0.81585910  0.30929719  0.31119796  1
  Zn  Zn120  1  0.81175101  0.31439236  0.81301303  1
  Zn  Zn121  1  0.81260714  0.81342252  0.31126235  1
  Zn  Zn122  1  0.80918011  0.80817180  0.80827851  1
  Zn  Zn123  1  0.18463487  0.43892443  0.44022359  1
  Zn  Zn124  1  0.18667603  0.44103283  0.93038620  1
  Zn  Zn125  1  0.18411628  0.92995793  0.43351242  1
  Zn  Zn126  1  0.19154688  0.97235380  0.95149735  1
  Zn  Zn127  1  0.68551986  0.43749501  0.43990830  1
  Zn  Zn128  1  0.68936259  0.44199473  0.94030963  1
  Zn  Zn129  1  0.68082032  0.93418645  0.43766695  1
  Zn  Zn130  1  0.68306231  0.93806477  0.93855005  1
  Zn  Zn131  1  0.31634432  0.05750576  0.07277787  1
  Zn  Zn132  1  0.27091003  0.04070638  0.55095902  1
  Zn  Zn133  1  0.31659371  0.56138635  0.06341728  1
  Zn  Zn134  1  0.31236556  0.56457023  0.56419702  1
  Zn  Zn135  1  0.82168509  0.06098436  0.05834082  1
  Zn  Zn136  1  0.81642875  0.06012135  0.58181418  1
  Zn  Zn137  1  0.81361635  0.56283077  0.06308711  1
  Zn  Zn138  1  0.81306529  0.56704521  0.56124262  1
  Zn  Zn139  1  0.43961325  0.44586674  0.18676781  1
  Zn  Zn140  1  0.44075043  0.43781597  0.69131804  1
  Zn  Zn141  1  0.43167105  0.93564782  0.18592127  1
  Zn  Zn142  1  0.43024192  0.93954715  0.68483047  1
  Zn  Zn143  1  0.94525743  0.43837438  0.18303677  1
  Zn  Zn144  1  0.93665193  0.44318330  0.68564013  1
  Zn  Zn145  1  0.93942289  0.94131399  0.18581153  1
  Zn  Zn146  1  0.93891670  0.93586171  0.69459386  1
  Zn  Zn147  1  0.05629970  0.06140250  0.31142915  1
  Zn  Zn148  1  0.06283685  0.05561689  0.80684403  1
  Zn  Zn149  1  0.06007776  0.56488188  0.30451547  1
  Zn  Zn150  1  0.06318350  0.56444528  0.80656884  1
  Zn  Zn151  1  0.55605651  0.06111569  0.31929076  1
  Zn  Zn152  1  0.56262129  0.06836019  0.81423225  1
  Zn  Zn153  1  0.55930756  0.56346808  0.31242977  1
  Zn  Zn154  1  0.56266033  0.56099907  0.81307102  1
  Zn  Zn155  1  0.43394341  0.18871957  0.43793695  1
  Zn  Zn156  1  0.44359203  0.19224419  0.94610887  1
  Zn  Zn157  1  0.43595070  0.68552434  0.43701484  1
  Zn  Zn158  1  0.43614318  0.69496108  0.94032458  1
  Zn  Zn159  1  0.93825278  0.19535353  0.43736499  1
  Zn  Zn160  1  0.94603151  0.18579204  0.93377175  1
  Zn  Zn161  1  0.93534384  0.69309398  0.43209751  1
  Zn  Zn162  1  0.94101094  0.69675599  0.93778727  1
  Zn  Zn163  1  0.03908989  0.31012618  0.05924552  1
  Zn  Zn164  1  0.06167904  0.31445197  0.56373138  1
  Zn  Zn165  1  0.06826243  0.82312973  0.05002226  1
  Zn  Zn166  1  0.06037028  0.80854033  0.55821131  1
  Zn  Zn167  1  0.56545213  0.31778046  0.06787947  1
  Zn  Zn168  1  0.56290392  0.31396628  0.56011279  1
  Zn  Zn169  1  0.55949771  0.81240062  0.05948009  1
  Zn  Zn170  1  0.56264429  0.81266325  0.56133290  1
  O  O171  1  0.11468749  0.12999124  0.13079821  1
  O  O172  1  0.10309157  0.12428097  0.61947532  1
  O  O173  1  0.12440856  0.61998467  0.11398666  1
  O  O174  1  0.10813072  0.62752937  0.62844766  1
  O  O175  1  0.63500283  0.11826236  0.14381341  1
  O  O176  1  0.61567815  0.12906871  0.61178648  1
  O  O177  1  0.62240212  0.62173703  0.12034893  1
  O  O178  1  0.62120467  0.61894801  0.62273477  1
  O  O179  1  0.38011801  0.38002551  0.37901173  1
  O  O180  1  0.38683439  0.37198919  0.88495333  1
  O  O181  1  0.38110426  0.87329012  0.37928465  1
  O  O182  1  0.39166882  0.87369931  0.87343314  1
  O  O183  1  0.88460716  0.37069189  0.38205519  1
  O  O184  1  0.87678980  0.38600919  0.87912027  1
  O  O185  1  0.88671728  0.87355288  0.37207309  1
  O  O186  1  0.86271126  0.88793291  0.87157491  1
  O  O187  1  0.25634466  0.00009355  0.36355543  1
  O  O188  1  0.25385804  -0.01933819  0.85279228  1
  O  O189  1  0.25535151  0.50691122  0.37440936  1
  O  O190  1  0.25607297  0.49501461  0.85772911  1
  O  O191  1  0.74141579  0.00659629  0.37136388  1
  O  O192  1  0.75185511  0.00896003  0.87204463  1
  O  O193  1  0.74486140  0.51458368  0.38006842  1
  O  O194  1  0.75536015  0.51618767  0.87887599  1
  O  O195  1  0.23752446  0.50090775  0.12451299  1
  O  O196  1  0.25456882  0.48818115  0.63180926  1
  O  O197  1  0.25178785  0.98973931  0.14213116  1
  O  O198  1  0.26282825  0.98188740  0.64596032  1
  O  O199  1  0.74351156  0.49188496  0.12133062  1
  O  O200  1  0.73755219  0.49814794  0.61927921  1
  O  O201  1  0.74745821  0.99377648  0.12415704  1
  O  O202  1  0.74214063  0.99278913  0.63403877  1
  O  O203  1  0.01033766  0.37247103  0.25415770  1
  O  O204  1  0.00626733  0.37238112  0.74927463  1
  O  O205  1  -0.00496518  0.86592337  0.25449805  1
  O  O206  1  0.00946950  0.86847016  0.75951627  1
  O  O207  1  0.50316790  0.38275977  0.26348364  1
  O  O208  1  0.50885796  0.37282196  0.76012053  1
  O  O209  1  0.50514526  0.87936726  0.26101392  1
  O  O210  1  0.50386221  0.87210074  0.75540261  1
  O  O211  1  0.48578011  0.11935703  0.25017406  1
  O  O212  1  0.50284634  0.13050979  0.73807210  1
  O  O213  1  0.48907677  0.62140655  0.24303406  1
  O  O214  1  0.49619031  0.63386980  0.74602781  1
  O  O215  1  0.99287495  0.12673386  0.24080183  1
  O  O216  1  0.99127786  0.13435718  0.74038775  1
  O  O217  1  0.98817463  0.63612088  0.24665870  1
  O  O218  1  0.99263775  0.63321475  0.74094452  1
  O  O219  1  0.37978678  0.26350515  0.01476865  1
  O  O220  1  0.37073892  0.25883029  0.50974037  1
  O  O221  1  0.37869998  0.76083305  0.00450609  1
  O  O222  1  0.37008428  0.75200719  0.50711173  1
  O  O223  1  0.88555427  0.26765780  -0.00198618  1
  O  O224  1  0.86606780  0.26045931  0.50387492  1
  O  O225  1  0.86016737  0.74224556  0.01210631  1
  O  O226  1  0.85881475  0.74857896  0.49942145  1
  O  O227  1  0.13360826  0.25577885  0.49153734  1
  O  O228  1  0.14014822  0.26124336  1.01692741  1
  O  O229  1  0.13430202  0.74900083  0.49036119  1
  O  O230  1  0.12369444  0.74226426  0.97959853  1
  O  O231  1  0.63218830  0.24496142  0.49399839  1
  O  O232  1  0.62807364  0.25790018  0.98961242  1
  O  O233  1  0.63112607  0.74454767  0.49071763  1
  O  O234  1  0.63438914  0.74052400  0.99993060  1
  O  O235  1  0.49541193  0.24732898  0.12838264  1
  O  O236  1  0.49337287  0.24627958  0.62327784  1
  O  O237  1  0.50227323  0.73703752  0.12455819  1
  O  O238  1  0.49589216  0.74621394  0.63511429  1
  O  O239  1  0.99317848  0.23771709  0.13036144  1
  O  O240  1  0.99091846  0.24830656  0.63153035  1
  O  O241  1  0.99273945  0.75312187  0.12846325  1
  O  O242  1  0.99624455  0.74249711  0.63300062  1
  O  O243  1  0.00887825  0.26063793  0.37316556  1
  O  O244  1  -0.00956701  0.26260400  0.85992888  1
  O  O245  1  0.00518112  0.75584424  0.36651028  1
  O  O246  1  0.00839655  0.75261606  0.85991229  1
  O  O247  1  0.50738928  0.26217912  0.38494279  1
  O  O248  1  0.51645125  0.26191237  0.87723075  1
  O  O249  1  0.50896880  0.75707943  0.38138536  1
  O  O250  1  0.50340242  0.75859468  0.86212751  1
  O  O251  1  0.26230225  0.14282448  0.49448511  1
  O  O252  1  0.24141505  0.07587200  0.98783008  1
  O  O253  1  0.25776145  0.63419489  0.48853594  1
  O  O254  1  0.24108002  0.61843422  0.99734631  1
  O  O255  1  0.74493577  0.12971469  0.49251926  1
  O  O256  1  0.75409701  0.12315335  0.98867348  1
  O  O257  1  0.74437985  0.63350259  0.49220991  1
  O  O258  1  0.74278589  0.63117135  0.99498651  1
  O  O259  1  0.25629084  0.37734649  0.00258748  1
  O  O260  1  0.25661716  0.36722902  0.50531941  1
  O  O261  1  0.24832790  0.88845663  0.01669155  1
  O  O262  1  0.26330305  0.85759605  0.49063405  1
  O  O263  1  0.76283955  0.38574509  0.00815075  1
  O  O264  1  0.75615247  0.37089280  0.50576818  1
  O  O265  1  0.74678501  0.86679321  0.01003655  1
  O  O266  1  0.73794772  0.86725160  0.51074680  1
  O  O267  1  0.12380179  0.49276465  0.23683946  1
  O  O268  1  0.13418302  0.49539579  0.74182811  1
  O  O269  1  0.13894827  1.00537640  0.25460609  1
  O  O270  1  0.13307883  0.98346253  0.74811078  1
  O  O271  1  0.62553968  0.50268620  0.23973046  1
  O  O272  1  0.62136464  0.48825539  0.74263774  1
  O  O273  1  0.62648960  0.99282897  0.25300488  1
  O  O274  1  0.62826695  0.99435705  0.74853818  1
  O  O275  1  0.36893744  0.00687640  0.25710848  1
  O  O276  1  0.36866369  0.00419480  0.75324645  1
  O  O277  1  0.37226357  0.50815244  0.25819843  1
  O  O278  1  0.37078349  0.50942921  0.75017001  1
  O  O279  1  0.87533120  0.01279982  0.24987056  1
  O  O280  1  0.86490044  0.00764780  0.75593418  1
  O  O281  1  0.88337084  0.51575372  0.24325312  1
  O  O282  1  0.87862206  0.51610529  0.75614504  1
  O  O283  1  0.11877083  0.36928037  0.36747991  1
  O  O284  1  0.11702220  0.38259978  0.85898618  1
  O  O285  1  0.11559441  0.86158156  0.37418612  1
  O  O286  1  0.12681222  0.85506077  0.85726163  1
  O  O287  1  0.61554474  0.37054413  0.37743470  1
  O  O288  1  0.62572098  0.37037126  0.87038933  1
  O  O289  1  0.61688392  0.86657050  0.36557651  1
  O  O290  1  0.61799574  0.87290014  0.86247657  1
  O  O291  1  0.37483617  0.13575585  0.13500659  1
  O  O292  1  0.38771046  0.13645548  0.62417983  1
  O  O293  1  0.38238807  0.62575601  0.13382626  1
  O  O294  1  0.38382291  0.63446782  0.63082149  1
  O  O295  1  0.87860693  0.12570541  0.13149445  1
  O  O296  1  0.87521090  0.13843078  0.63490148  1
  O  O297  1  0.87660285  0.63284386  0.13401918  1
  O  O298  1  0.87975169  0.63015443  0.63244533  1
  O  O299  1  0.25804130  0.25526605  0.12894841  1
  O  O300  1  0.25960826  0.26384338  0.61789621  1
  O  O301  1  0.24888135  0.76559688  0.13121051  1
  O  O302  1  0.25954452  0.74167634  0.61395591  1
  O  O303  1  0.75448979  0.27337176  0.11805541  1
  O  O304  1  0.75373872  0.25684319  0.61328456  1
  O  O305  1  0.75542016  0.75630760  0.12019289  1
  O  O306  1  0.74893688  0.75828532  0.61488204  1
  O  O307  1  0.24151939  0.24561367  0.38293715  1
  O  O308  1  0.23636407  0.24322564  0.87223806  1
  O  O309  1  0.24028088  0.74196527  0.37877625  1
  O  O310  1  0.24132335  0.74407644  0.86564908  1
  O  O311  1  0.74006756  0.25916651  0.38772477  1
  O  O312  1  0.74004747  0.24575762  0.87335729  1
  O  O313  1  0.74132419  0.74555314  0.37977772  1
  O  O314  1  0.74796650  0.74152524  0.88416646  1
  O  O315  1  0.00213144  0.12828145  0.01493933  1
  O  O316  1  -0.00840435  0.12924236  0.51359878  1
  O  O317  1  0.00518303  0.61733005  -0.00170482  1
  O  O318  1  -0.01061700  0.62967982  0.51366435  1
  O  O319  1  0.50309819  0.11507690  0.01132502  1
  O  O320  1  0.50344679  0.11989455  0.50511850  1
  O  O321  1  0.50979838  0.62477531  0.00511183  1
  O  O322  1  0.50667746  0.62014904  0.50614609  1
  O  O323  1  0.49438654  0.38307160  0.49419605  1
  O  O324  1  0.49607050  0.37863387  0.99538135  1
  O  O325  1  0.49049365  0.87669858  0.49175619  1
  O  O326  1  0.50493063  0.88035234  0.98493441  1
  O  O327  1  0.99062926  0.37566324  0.49109421  1
  O  O328  1  0.99397903  0.38933973  0.99087508  1
  O  O329  1  0.99541969  0.86838221  0.48767203  1
  O  O330  1  0.97765469  0.83878664  0.97663152  1
  O  O331  1  0.49374733  0.49470474  0.38232820  1
  O  O332  1  0.50091461  0.48751286  0.87832307  1
  O  O333  1  0.49101015  0.98825216  0.38308664  1
  O  O334  1  0.50364934  0.99013206  0.87533332  1
  O  O335  1  1.00431101  0.48906010  0.37238820  1
  O  O336  1  0.99500707  0.49775526  0.87787595  1
  O  O337  1  1.00585341  0.98507725  0.37826058  1
  O  O338  1  0.98699569  0.98683708  0.86585482  1
  O  O339  1  0.00024439  0.01619621  0.12237281  1
  O  O340  1  -0.01309036  0.01573564  0.62971104  1
  O  O341  1  0.01390613  0.50178088  0.11247567  1
  O  O342  1  -0.00124449  0.51835708  0.62427064  1
  O  O343  1  0.50202518  0.00131396  0.11803812  1
  O  O344  1  0.49874272  0.00888001  0.61808025  1
  O  O345  1  0.51150977  0.51258147  0.12290236  1
  O  O346  1  0.51051665  0.50443543  0.62179515  1
  O  O347  1  0.23546384  0.37888673  0.25556071  1
  O  O348  1  0.24397525  0.37857332  0.74295272  1
  O  O349  1  0.24742517  0.88575202  0.24742403  1
  O  O350  1  0.23831630  0.86891039  0.74242805  1
  O  O351  1  0.75392659  0.37790960  0.23693823  1
  O  O352  1  0.74407455  0.37464558  0.74009626  1
  O  O353  1  0.74038003  0.87022701  0.23859359  1
  O  O354  1  0.73895361  0.87855095  0.74423803  1
  O  O355  1  0.25893408  0.11533684  0.25957389  1
  O  O356  1  0.25338763  0.10931456  0.74015393  1
  O  O357  1  0.25620486  0.62121828  0.25839447  1
  O  O358  1  0.26191635  0.61523401  0.73985601  1
  O  O359  1  0.75152952  0.11647893  0.24284227  1
  O  O360  1  0.75351568  0.12239126  0.75535774  1
  O  O361  1  0.76501205  0.62890376  0.25627685  1
  O  O362  1  0.75840837  0.63456446  0.75907809  1
  O  O363  1  0.36858861  0.11946788  0.37040383  1
  O  O364  1  0.38401988  0.13683366  0.87124788  1
  O  O365  1  0.36804653  0.61994752  0.36890810  1
  O  O366  1  0.38504913  0.62285676  0.86252790  1
  O  O367  1  0.87066765  0.12810524  0.36710893  1
  O  O368  1  0.86886682  0.11781473  0.87068318  1
  O  O369  1  0.86852857  0.62927140  0.36024177  1
  O  O370  1  0.86871723  0.62538661  0.86875873  1
  O  O371  1  0.13033519  0.37544771  0.12540185  1
  O  O372  1  0.13406739  0.37614785  0.63405603  1
  O  O373  1  0.13612042  0.87204120  0.12681412  1
  O  O374  1  0.11836540  0.86542881  0.63811458  1
  O  O375  1  0.63701502  0.38526676  0.12898336  1
  O  O376  1  0.62988697  0.38226743  0.63106098  1
  O  O377  1  0.62759039  0.86726855  0.13810305  1
  O  O378  1  0.62860521  0.87626644  0.63569018  1
  O  O379  1  0.12530425  0.25671055  0.26224315  1
  O  O380  1  0.11047721  0.26123374  0.74030365  1
  O  O381  1  0.11233608  0.74184721  0.25909027  1
  O  O382  1  0.11945196  0.75002466  0.75490307  1
  O  O383  1  0.62881496  0.25755432  0.26724029  1
  O  O384  1  0.62505509  0.26509466  0.75349053  1
  O  O385  1  0.62669344  0.75514976  0.26164403  1
  O  O386  1  0.61587618  0.75840425  0.74959671  1
  O  O387  1  0.37095072  0.24120363  0.24404734  1
  O  O388  1  0.37910362  0.25368564  0.73699158  1
  O  O389  1  0.37201396  0.73714310  0.25063556  1
  O  O390  1  0.38002698  0.74538728  0.74377175  1
  O  O391  1  0.87174538  0.23533056  0.24649759  1
  O  O392  1  0.88109748  0.24959717  0.74381175  1
  O  O393  1  0.87969430  0.74569679  0.23896426  1
  O  O394  1  0.88335531  0.74192135  0.74865845  1
  O  O395  1  0.37958155  0.49630983  0.49414502  1
  O  O396  1  0.37785123  0.48752782  0.99987905  1
  O  O397  1  0.37127301  0.98743591  0.49382005  1
  O  O398  1  0.39299035  0.99446590  0.99962233  1
  O  O399  1  0.87820440  0.49080177  0.50173218  1
  O  O400  1  0.88439695  0.49944502  0.99273710  1
  O  O401  1  0.85355066  1.01316767  0.48481368  1
  O  O402  1  0.88403593  0.99481833  0.98881665  1
  O  O403  1  0.08474923  -0.06158673  -0.02702340  1
  O  O404  1  0.16916922  0.01228080  0.50322977  1
  O  O405  1  0.12007588  0.50725529  0.00079212  1
  O  O406  1  0.11906426  0.49757119  0.50603301  1
  O  O407  1  0.60613936  -0.00257289  -0.00310981  1
  O  O408  1  0.61393611  0.00870169  0.50036215  1
  O  O409  1  0.62558505  0.51208250  0.00913217  1
  O  O410  1  0.61953548  0.50707039  0.50850608  1
  O  O411  1  0.38235599  0.36882461  0.12194488  1
  O  O412  1  0.37144688  0.37154381  0.62121637  1
  O  O413  1  0.36088175  0.87161560  0.12778505  1
  O  O414  1  0.38351645  0.85891178  0.61471036  1
  O  O415  1  0.86886765  0.38062436  0.11659326  1
  O  O416  1  0.87048666  0.37384093  0.61739197  1
  O  O417  1  0.86562105  0.86845519  0.12408389  1
  O  O418  1  0.85879665  0.87412451  0.63400104  1
  O  O419  1  0.12555439  0.13367461  0.37929147  1
  O  O420  1  0.11190080  0.13301896  0.86749927  1
  O  O421  1  0.13389241  0.62906864  0.36965047  1
  O  O422  1  0.12362261  0.63477485  0.87693488  1
  O  O423  1  0.61450997  0.13487826  0.38752756  1
  O  O424  1  0.63232776  0.14365673  0.87159194  1
  O  O425  1  0.63031042  0.63163195  0.37710975  1
  O  O426  1  0.63124200  0.62641217  0.88188484  1
