# generated using pymatgen
data_V85Zn86O256
_symmetry_space_group_name_H-M   'P 1'
_cell_length_a   16.93081063
_cell_length_b   16.93733643
_cell_length_c   16.93267748
_cell_angle_alpha   90.04302790
_cell_angle_beta   89.90797465
_cell_angle_gamma   90.05198408
_symmetry_Int_Tables_number   1
_chemical_formula_structural   V85Zn86O256
_chemical_formula_sum   'V85 Zn86 O256'
_cell_volume   4855.65298303
_cell_formula_units_Z   1
loop_
 _symmetry_equiv_pos_site_id
 _symmetry_equiv_pos_as_xyz
  1  'x, y, z'
loop_
 _atom_site_type_symbol
 _atom_site_label
 _atom_site_symmetry_multiplicity
 _atom_site_fract_x
 _atom_site_fract_y
 _atom_site_fract_z
 _atom_site_occupancy
  V  V0  1  0.48530127  0.11770410  0.12352248  1
  V  V1  1  0.24991716  0.61410285  0.87210767  1
  V  V2  1  0.75392501  0.13478518  0.88199531  1
  V  V3  1  0.46453096  0.20501327  0.28672589  1
  V  V4  1  0.75434200  0.00633579  0.75312188  1
  V  V5  1  0.24824527  0.26045722  0.00309804  1
  V  V6  1  0.88585382  0.63092569  0.75128531  1
  V  V7  1  0.00851647  0.87505799  0.37199103  1
  V  V8  1  0.87863929  0.50410406  0.36982126  1
  V  V9  1  0.37261932  0.61611681  0.75015506  1
  V  V10  1  0.50400541  0.50013575  0.50052366  1
  V  V11  1  0.12591290  0.37122035  0.24937903  1
  V  V12  1  0.74713406  0.62836973  0.87505976  1
  V  V13  1  0.50482369  0.25237386  0.75563593  1
  V  V14  1  0.12179595  0.62149133  -0.00159494  1
  V  V15  1  0.75767244  0.75609014  0.50148739  1
  V  V16  1  0.24845407  0.75044705  -0.00180951  1
  V  V17  1  0.37334156  0.87197397  -0.00796685  1
  V  V18  1  0.00264262  0.00119872  0.00657476  1
  V  V19  1  0.75113305  0.74827214  0.00631405  1
  V  V20  1  0.50501152  0.12542356  0.63167696  1
  V  V21  1  0.37652400  0.26404316  0.11539876  1
  V  V22  1  0.50098660  0.62575753  0.62642824  1
  V  V23  1  0.62183448  0.87218064  0.75641534  1
  V  V24  1  0.74927750  0.25203640  0.50196875  1
  V  V25  1  0.86151502  0.36277318  0.01233542  1
  V  V26  1  -0.04238031  0.32362825  0.33849331  1
  V  V27  1  0.26142881  0.00807624  0.25643119  1
  V  V28  1  0.24194786  0.87582040  0.13386312  1
  V  V29  1  0.87214533  0.37608068  0.49485843  1
  V  V30  1  0.12545659  0.00039659  0.62413811  1
  V  V31  1  -0.00188725  0.14212731  0.13343287  1
  V  V32  1  0.48092574  0.87413632  0.38243889  1
  V  V33  1  0.50222240  0.37766239  0.36561673  1
  V  V34  1  0.75354861  0.01228235  0.25413842  1
  V  V35  1  0.62506236  -0.00184319  0.12582295  1
  V  V36  1  0.37661289  0.75068731  0.61923615  1
  V  V37  1  0.75264708  0.50047890  0.74474227  1
  V  V38  1  0.63199772  0.12113829  0.49753128  1
  V  V39  1  0.63484342  0.35819800  0.23419580  1
  V  V40  1  0.48787972  -0.00411262  0.50299224  1
  V  V41  1  -0.00254110  0.87524677  0.87083547  1
  V  V42  1  0.63034722  0.49810500  0.62495556  1
  V  V43  1  -0.00270256  -0.00665941  0.49936677  1
  V  V44  1  0.24224517  0.74287525  0.50105515  1
  V  V45  1  0.25185515  -0.00069728  0.75308952  1
  V  V46  1  0.12779479  0.12013784  0.49205216  1
  V  V47  1  0.12969526  0.24634791  0.36585022  1
  V  V48  1  0.62790880  0.00078702  0.62586818  1
  V  V49  1  0.01045114  0.75533887  0.23869810  1
  V  V50  1  0.00299120  0.62556141  0.61083849  1
  V  V51  1  0.38150644  -0.00097935  0.87370050  1
  V  V52  1  0.61925126  0.51102876  0.12274935  1
  V  V53  1  0.62875131  0.13372154  0.00333290  1
  V  V54  1  0.25134908  0.49656025  0.24591714  1
  V  V55  1  0.23594574  0.37116262  0.62978198  1
  V  V56  1  0.48295082  0.50544331  0.00055019  1
  V  V57  1  0.37779540  0.25291535  0.63133418  1
  V  V58  1  0.48723145  0.38094941  0.88033427  1
  V  V59  1  0.25513518  0.87556129  0.61427448  1
  V  V60  1  -0.00260220  0.49288298  0.00074552  1
  V  V61  1  0.25156982  0.24728214  0.49691070  1
  V  V62  1  0.87321585  0.63799129  0.23786634  1
  V  V63  1  0.88308577  0.75763222  0.62900741  1
  V  V64  1  0.88131780  0.25472124  0.62810678  1
  V  V65  1  0.50303207  -0.00805671  -0.00363939  1
  V  V66  1  0.75677497  0.87869454  0.62442916  1
  V  V67  1  0.00147229  0.36983349  0.86071809  1
  V  V68  1  0.74659490  0.50353497  0.24365385  1
  V  V69  1  0.37520055  0.50353550  0.37451068  1
  V  V70  1  0.75583691  0.87392544  0.13024043  1
  V  V71  1  0.63000750  0.37676797  0.75138745  1
  V  V72  1  0.12717372  0.49503989  0.12458842  1
  V  V73  1  0.12440615  0.87195525  0.74946593  1
  V  V74  1  0.75202566  0.63127724  0.37551817  1
  V  V75  1  0.87438877  0.00069753  0.37645220  1
  V  V76  1  0.23846719  0.61883826  0.38010694  1
  V  V77  1  0.87514516  0.49809222  0.87585158  1
  V  V78  1  0.37851034  0.37541174  0.50050985  1
  V  V79  1  0.11831987  0.74718540  0.87123593  1
  V  V80  1  0.87508418  0.87209590  0.00210775  1
  V  V81  1  0.62920539  0.62561216  0.50210045  1
  V  V82  1  0.62706407  0.87497134  0.26049202  1
  V  V83  1  0.62243564  0.24478547  0.37455890  1
  V  V84  1  0.12292543  0.24742332  0.86265600  1
  Zn  Zn85  1  0.62886881  0.25814802  0.88453468  1
  Zn  Zn86  1  -0.00410295  0.62805915  0.11976795  1
  Zn  Zn87  1  0.62282911  0.75306730  0.37951087  1
  Zn  Zn88  1  0.88479277  0.13581629  0.75597679  1
  Zn  Zn89  1  0.12636290  0.12712269  0.00402101  1
  Zn  Zn90  1  0.38220239  0.74395585  0.12288757  1
  Zn  Zn91  1  0.28664922  0.12438576  0.36876917  1
  Zn  Zn92  1  0.49964366  0.74513263  0.24663110  1
  Zn  Zn93  1  0.49269809  0.75355081  0.75636599  1
  Zn  Zn94  1  0.24369425  0.49039962  0.75258579  1
  Zn  Zn95  1  0.61732010  0.75681227  0.88238298  1
  Zn  Zn96  1  0.38175678  0.62564015  0.24225573  1
  Zn  Zn97  1  0.61597128  0.62798699  0.00107057  1
  Zn  Zn98  1  0.00507222  0.49641958  0.48722977  1
  Zn  Zn99  1  0.37662505  0.12580701  0.75447074  1
  Zn  Zn100  1  0.00597683  0.13269759  0.62874027  1
  Zn  Zn101  1  0.87738048  0.00616413  0.87815532  1
  Zn  Zn102  1  0.12542112  0.74963465  0.37378595  1
  Zn  Zn103  1  0.12104463  0.50002381  0.62216650  1
  Zn  Zn104  1  0.12325410  0.00049932  0.13422152  1
  Zn  Zn105  1  0.25042511  0.12506196  0.88116606  1
  Zn  Zn106  1  0.88285151  0.13818146  0.25537095  1
  Zn  Zn107  1  0.19374547  0.18068641  0.18327604  1
  Zn  Zn108  1  0.18869010  0.18402441  0.68630384  1
  Zn  Zn109  1  0.19767801  0.67944869  0.18207204  1
  Zn  Zn110  1  0.18567054  0.68673069  0.68797680  1
  Zn  Zn111  1  0.66573203  0.18114200  0.19733124  1
  Zn  Zn112  1  0.69415319  0.19191584  0.68774639  1
  Zn  Zn113  1  0.68294477  0.69102254  0.18742756  1
  Zn  Zn114  1  0.69216867  0.68899531  0.68772733  1
  Zn  Zn115  1  0.31131399  0.31585046  0.31011403  1
  Zn  Zn116  1  0.31031952  0.31005719  0.81461835  1
  Zn  Zn117  1  0.31085433  0.80614746  0.31178805  1
  Zn  Zn118  1  0.31108928  0.80831105  0.80997596  1
  Zn  Zn119  1  0.78746359  0.29843400  0.28943580  1
  Zn  Zn120  1  0.81325418  0.31636112  0.81617394  1
  Zn  Zn121  1  0.82063673  0.81851427  0.31515863  1
  Zn  Zn122  1  0.81025959  0.81322561  0.81334605  1
  Zn  Zn123  1  0.18383444  0.43401005  0.43867258  1
  Zn  Zn124  1  0.18396574  0.43135140  0.93587206  1
  Zn  Zn125  1  0.19365409  0.93907737  0.42878683  1
  Zn  Zn126  1  0.18508662  0.93919754  0.93736177  1
  Zn  Zn127  1  0.69069411  0.43640515  0.42851340  1
  Zn  Zn128  1  0.68508652  0.44124800  0.93782982  1
  Zn  Zn129  1  0.69132611  0.93997311  0.43992365  1
  Zn  Zn130  1  0.69240075  0.94270837  0.93806633  1
  Zn  Zn131  1  0.30706797  0.06022723  0.05890550  1
  Zn  Zn132  1  0.31168534  0.06761205  0.56866391  1
  Zn  Zn133  1  0.30931594  0.56090842  0.06109303  1
  Zn  Zn134  1  0.31138232  0.56000071  0.56279453  1
  Zn  Zn135  1  0.81797175  0.06558638  0.06773353  1
  Zn  Zn136  1  0.81619079  0.06723453  0.56138725  1
  Zn  Zn137  1  0.80955684  0.55693560  0.06169324  1
  Zn  Zn138  1  0.81915055  0.56423672  0.56174084  1
  Zn  Zn139  1  0.44039599  0.44195946  0.18591116  1
  Zn  Zn140  1  0.43888140  0.43805896  0.69009982  1
  Zn  Zn141  1  0.43954133  0.91058700  0.18035635  1
  Zn  Zn142  1  0.43814064  0.93615126  0.68617403  1
  Zn  Zn143  1  0.93572676  0.43926582  0.18552630  1
  Zn  Zn144  1  0.93416536  0.43951469  0.68191303  1
  Zn  Zn145  1  0.93627921  0.93664277  0.18972560  1
  Zn  Zn146  1  0.93970322  0.94521588  0.68984194  1
  Zn  Zn147  1  0.07115050  0.05710130  0.30769260  1
  Zn  Zn148  1  0.06059623  0.06380967  0.81396740  1
  Zn  Zn149  1  0.06141663  0.56765139  0.30528405  1
  Zn  Zn150  1  0.06557655  0.55439328  0.80539842  1
  Zn  Zn151  1  0.55851327  0.05031285  0.31736645  1
  Zn  Zn152  1  0.56776833  0.06331563  0.81667699  1
  Zn  Zn153  1  0.56552609  0.56448870  0.31078101  1
  Zn  Zn154  1  0.56055054  0.56401762  0.81529462  1
  Zn  Zn155  1  0.44403772  0.18571789  0.45619422  1
  Zn  Zn156  1  0.43861645  0.18606610  0.93937400  1
  Zn  Zn157  1  0.43413644  0.68727423  0.43460472  1
  Zn  Zn158  1  0.43600748  0.68776740  0.93081301  1
  Zn  Zn159  1  0.93715798  0.17680795  0.44292689  1
  Zn  Zn160  1  0.93959023  0.18988242  0.94381759  1
  Zn  Zn161  1  0.93558678  0.69481874  0.43329852  1
  Zn  Zn162  1  0.93611276  0.68813354  0.93822995  1
  Zn  Zn163  1  0.06324740  0.31346833  0.05894442  1
  Zn  Zn164  1  0.05717724  0.31646984  0.54379615  1
  Zn  Zn165  1  0.06359256  0.81321232  0.05944821  1
  Zn  Zn166  1  0.06302500  0.81454456  0.56133384  1
  Zn  Zn167  1  0.55374962  0.31352846  0.06351954  1
  Zn  Zn168  1  0.56528293  0.31545687  0.56497663  1
  Zn  Zn169  1  0.56530227  0.81329946  0.06389120  1
  Zn  Zn170  1  0.56567846  0.81350997  0.56467948  1
  O  O171  1  0.11292546  0.12178114  0.12426896  1
  O  O172  1  0.12992702  0.11874948  0.61061413  1
  O  O173  1  0.12293669  0.61450799  0.11512576  1
  O  O174  1  0.10446433  0.63224099  0.62705860  1
  O  O175  1  0.61465678  0.11605400  0.11965260  1
  O  O176  1  0.62447929  0.12000610  0.62139100  1
  O  O177  1  0.62239025  0.61570889  0.12441997  1
  O  O178  1  0.62238463  0.61995536  0.62161911  1
  O  O179  1  0.38243249  0.38229061  0.37959101  1
  O  O180  1  0.38882625  0.37584334  0.86840404  1
  O  O181  1  0.38269988  0.87101568  0.37957452  1
  O  O182  1  0.36843606  0.88155084  0.88301667  1
  O  O183  1  0.87067117  0.38692399  0.37206451  1
  O  O184  1  0.88701830  0.37756985  0.88245557  1
  O  O185  1  0.89232337  0.88854926  0.37229466  1
  O  O186  1  0.88240782  0.87684071  0.88097584  1
  O  O187  1  0.26114254  0.00599045  0.36404463  1
  O  O188  1  0.25873767  0.00041152  0.86778871  1
  O  O189  1  0.25488597  0.50159695  0.37130691  1
  O  O190  1  0.24155255  0.51021936  0.87422389  1
  O  O191  1  0.76149739  -0.00640922  0.36692940  1
  O  O192  1  0.75229774  0.01346010  0.86844800  1
  O  O193  1  0.75838578  0.51578662  0.37057494  1
  O  O194  1  0.75634032  0.50956664  0.86726903  1
  O  O195  1  0.23554824  0.49871770  0.13107559  1
  O  O196  1  0.25064000  0.47746910  0.61811755  1
  O  O197  1  0.24674084  0.98791096  0.12735787  1
  O  O198  1  0.24695028  0.99264146  0.63110769  1
  O  O199  1  0.73743061  0.50369890  0.13420156  1
  O  O200  1  0.74870564  0.50827464  0.63709513  1
  O  O201  1  0.74636382  0.99383912  0.13413366  1
  O  O202  1  0.74962303  0.99646755  0.63114517  1
  O  O203  1  0.00442325  0.37861605  0.26088908  1
  O  O204  1  -0.00785293  0.37865856  0.76257111  1
  O  O205  1  -0.00031070  0.86194816  0.25308594  1
  O  O206  1  0.00800306  0.88297574  0.76305258  1
  O  O207  1  0.50808865  0.38299248  0.26200110  1
  O  O208  1  0.50731318  0.37421525  0.76105840  1
  O  O209  1  0.51027793  0.88277492  0.27334838  1
  O  O210  1  0.51895090  0.87648372  0.74391147  1
  O  O211  1  0.50136776  0.11462173  0.23823037  1
  O  O212  1  0.50346232  0.13277268  0.74783515  1
  O  O213  1  0.49526420  0.63180814  0.26165343  1
  O  O214  1  0.49135838  0.62309195  0.74269402  1
  O  O215  1  1.00287983  0.11946676  0.23672777  1
  O  O216  1  0.99484740  0.11244597  0.73974001  1
  O  O217  1  0.99057869  0.63841948  0.24522600  1
  O  O218  1  0.98799574  0.62293078  0.74463801  1
  O  O219  1  0.36895852  0.24910131  0.00846750  1
  O  O220  1  0.37012190  0.25493442  0.51049078  1
  O  O221  1  0.36506737  0.75602406  -0.00317166  1
  O  O222  1  0.36452437  0.74381595  0.51349972  1
  O  O223  1  0.87517491  0.26370933  0.00241212  1
  O  O224  1  0.86558078  0.25397190  0.49884259  1
  O  O225  1  0.86850245  0.76326879  -0.00308462  1
  O  O226  1  0.86432542  0.74962088  0.50969750  1
  O  O227  1  0.13520262  0.24296096  0.48876545  1
  O  O228  1  0.13239724  0.24919639  0.99313376  1
  O  O229  1  0.13853468  0.75277235  0.49994849  1
  O  O230  1  0.12884683  0.74347626  0.99029565  1
  O  O231  1  0.62885991  0.24411962  0.49675919  1
  O  O232  1  0.62119938  0.23756890  1.00578420  1
  O  O233  1  0.64015444  0.74386770  0.50418589  1
  O  O234  1  0.63365153  0.74769712  1.00073687  1
  O  O235  1  0.48572832  0.23691329  0.12035902  1
  O  O236  1  0.49561234  0.24731791  0.63256947  1
  O  O237  1  0.48683701  0.79567100  0.13998013  1
  O  O238  1  0.49308746  0.74507282  0.62824811  1
  O  O239  1  1.00274869  0.24050683  0.12621874  1
  O  O240  1  0.98531306  0.25199803  0.61171851  1
  O  O241  1  1.00209948  0.74971857  0.13423587  1
  O  O242  1  0.98959034  0.74379049  0.61912661  1
  O  O243  1  0.01542825  0.24293369  0.38079459  1
  O  O244  1  0.00974983  0.25961976  0.87770785  1
  O  O245  1  0.00337138  0.75754790  0.36538091  1
  O  O246  1  0.01070398  0.75775939  0.87911476  1
  O  O247  1  0.50163577  0.26123757  0.38345228  1
  O  O248  1  0.50401093  0.26209533  0.87386449  1
  O  O249  1  0.50308152  0.76567432  0.38403158  1
  O  O250  1  0.50584908  0.74746245  0.86812163  1
  O  O251  1  0.25073356  0.13386302  0.49453187  1
  O  O252  1  0.24651438  0.13623864  0.99902633  1
  O  O253  1  0.25094272  0.63033236  0.49434157  1
  O  O254  1  0.24122799  0.63072847  0.98946705  1
  O  O255  1  0.73821964  0.13137256  0.50080811  1
  O  O256  1  0.74118540  0.11791070  0.99587738  1
  O  O257  1  0.75063439  0.63394871  0.49407781  1
  O  O258  1  0.75238404  0.63379809  0.99288464  1
  O  O259  1  0.24791343  0.36114820  -0.00166758  1
  O  O260  1  0.25705921  0.36065189  0.50646408  1
  O  O261  1  0.25323511  0.86558012  -0.00328457  1
  O  O262  1  0.24772416  0.87035023  0.51052552  1
  O  O263  1  0.76325589  0.37832747  -0.00765943  1
  O  O264  1  0.76057733  0.36630594  0.48973613  1
  O  O265  1  0.75621984  0.87068975  0.00677027  1
  O  O266  1  0.74780197  0.87099276  0.51569389  1
  O  O267  1  0.12826807  0.49245659  0.24385337  1
  O  O268  1  0.13143856  0.50021004  0.73517246  1
  O  O269  1  0.14982565  0.99807016  0.24923409  1
  O  O270  1  0.13394769  0.98981471  0.74857118  1
  O  O271  1  0.62952419  0.49654469  0.24097268  1
  O  O272  1  0.63354737  0.49734191  0.74632291  1
  O  O273  1  0.63394677  0.99126246  0.24835108  1
  O  O274  1  0.63660528  0.99413457  0.74700122  1
  O  O275  1  0.35680929  -0.02186488  0.23808472  1
  O  O276  1  0.37038922  -0.00144482  0.75728393  1
  O  O277  1  0.36643707  0.49819244  0.25604367  1
  O  O278  1  0.36638173  0.51193272  0.74172853  1
  O  O279  1  0.86682900  0.00021427  0.25684223  1
  O  O280  1  0.86202966  0.00080404  0.75401531  1
  O  O281  1  0.86606592  0.51097659  0.25267339  1
  O  O282  1  0.86871622  0.50750189  0.75473822  1
  O  O283  1  0.12806811  0.36151255  0.36245617  1
  O  O284  1  0.11064888  0.36398877  0.87520601  1
  O  O285  1  0.11427097  0.87325407  0.37599656  1
  O  O286  1  0.11844125  0.86835141  0.86879968  1
  O  O287  1  0.61824848  0.36547021  0.36602517  1
  O  O288  1  0.61862344  0.37670287  0.86461935  1
  O  O289  1  0.62844213  0.87399449  0.36980522  1
  O  O290  1  0.63539976  0.87770388  0.85937988  1
  O  O291  1  0.38401749  0.12511578  0.11916935  1
  O  O292  1  0.38304758  0.13827895  0.62956081  1
  O  O293  1  0.35195976  0.63424618  0.13075028  1
  O  O294  1  0.37988824  0.62981302  0.62974260  1
  O  O295  1  0.89085253  0.12479102  0.13416027  1
  O  O296  1  0.87633978  0.14392698  0.62242189  1
  O  O297  1  0.87422315  0.62159699  0.13465143  1
  O  O298  1  0.88265999  0.63553505  0.63198143  1
  O  O299  1  0.26797871  0.24617233  0.11978558  1
  O  O300  1  0.25859441  0.25387578  0.61922855  1
  O  O301  1  0.24212469  0.75965130  0.10932655  1
  O  O302  1  0.25462126  0.75563221  0.61974960  1
  O  O303  1  0.71212907  0.28259757  0.20120473  1
  O  O304  1  0.75783522  0.25103672  0.60853163  1
  O  O305  1  0.74713844  0.75770798  0.11474243  1
  O  O306  1  0.76057013  0.75904721  0.62110065  1
  O  O307  1  0.24973222  0.24407871  0.38061548  1
  O  O308  1  0.23834235  0.24957357  0.88060762  1
  O  O309  1  0.24762885  0.73888982  0.38346907  1
  O  O310  1  0.23787525  0.74390118  0.88124306  1
  O  O311  1  0.72871568  0.24846085  0.38243931  1
  O  O312  1  0.74711296  0.23882344  0.87136742  1
  O  O313  1  0.75333772  0.74874753  0.38442572  1
  O  O314  1  0.74745251  0.74498180  0.88643331  1
  O  O315  1  -0.00120962  0.11677862  0.01345439  1
  O  O316  1  0.01285059  0.11223425  0.50406336  1
  O  O317  1  0.00289242  0.61191345  -0.00234329  1
  O  O318  1  -0.00801943  0.62571528  0.50872985  1
  O  O319  1  0.50730796  0.11234669  0.00536667  1
  O  O320  1  0.51301708  0.11635948  0.51376167  1
  O  O321  1  0.49790012  0.60966867  -0.00853665  1
  O  O322  1  0.50798445  0.62024786  0.50497541  1
  O  O323  1  0.49860777  0.38134208  0.49209960  1
  O  O324  1  0.50342236  0.38511325  0.98656772  1
  O  O325  1  0.50460155  0.88278402  0.49354135  1
  O  O326  1  0.49169955  0.88623644  0.99822098  1
  O  O327  1  0.98095808  0.36958689  0.47302254  1
  O  O328  1  0.99330915  0.38391427  0.99443135  1
  O  O329  1  1.00484711  0.88597711  0.49169982  1
  O  O330  1  0.99327561  0.87866719  0.99200517  1
  O  O331  1  0.49727135  0.49414173  0.38208266  1
  O  O332  1  0.50261431  0.49002054  0.88539103  1
  O  O333  1  0.50057767  0.98530711  0.39056463  1
  O  O334  1  0.49052197  1.00232891  0.88032367  1
  O  O335  1  0.98281167  0.51314127  0.37012932  1
  O  O336  1  0.99709893  0.48898655  0.88047207  1
  O  O337  1  0.99974323  0.99403251  0.37935434  1
  O  O338  1  0.99934943  0.99187761  0.88798783  1
  O  O339  1  0.00251373  -0.00552146  0.11516268  1
  O  O340  1  0.01033879  -0.00418000  0.61462674  1
  O  O341  1  0.00859901  0.50228522  0.11729040  1
  O  O342  1  -0.00799647  0.51692571  0.61864715  1
  O  O343  1  0.50386521  -0.00074188  0.11665211  1
  O  O344  1  0.50830284  0.00444894  0.62264232  1
  O  O345  1  0.50313661  0.49853458  0.10837415  1
  O  O346  1  0.50770199  0.50528359  0.61926770  1
  O  O347  1  0.24116538  0.38743161  0.25252631  1
  O  O348  1  0.25490412  0.37021831  0.73252192  1
  O  O349  1  0.24583241  0.86714582  0.23467297  1
  O  O350  1  0.24432375  0.88309537  0.74322001  1
  O  O351  1  0.73797125  0.40226666  0.27218518  1
  O  O352  1  0.74338675  0.38850309  0.75678965  1
  O  O353  1  0.74653189  0.87956346  0.24518067  1
  O  O354  1  0.74456533  0.88336841  0.74189669  1
  O  O355  1  0.26285382  0.11323723  0.24947322  1
  O  O356  1  0.25268142  0.10938461  0.74955544  1
  O  O357  1  0.24672223  0.60894008  0.26067733  1
  O  O358  1  0.25459893  0.62462338  0.75615463  1
  O  O359  1  0.75059319  0.11444519  0.24716615  1
  O  O360  1  0.75363989  0.12039043  0.75865277  1
  O  O361  1  0.75422223  0.62504287  0.25615078  1
  O  O362  1  0.75871822  0.62119932  0.75711909  1
  O  O363  1  0.40254110  0.14710818  0.35828131  1
  O  O364  1  0.37325943  0.11440613  0.87364605  1
  O  O365  1  0.36323856  0.61358155  0.37778485  1
  O  O366  1  0.36048338  0.62958619  0.86307738  1
  O  O367  1  0.88250288  0.10786470  0.37028551  1
  O  O368  1  0.86941096  0.12654040  0.87625777  1
  O  O369  1  0.86544352  0.62490068  0.36629689  1
  O  O370  1  0.86751490  0.62218841  0.86827832  1
  O  O371  1  0.11548259  0.37967783  0.14034835  1
  O  O372  1  0.13608329  0.35931510  0.62029885  1
  O  O373  1  0.13922697  0.87898797  0.11473396  1
  O  O374  1  0.13241999  0.87946542  0.63281546  1
  O  O375  1  0.60986586  0.38557498  0.13602471  1
  O  O376  1  0.62074835  0.38408865  0.64017066  1
  O  O377  1  0.63847032  0.88201319  0.13368076  1
  O  O378  1  0.63537583  0.88225600  0.63425810  1
  O  O379  1  0.13678009  0.25358138  0.25815446  1
  O  O380  1  0.12984986  0.24588615  0.76341360  1
  O  O381  1  0.11210736  0.74024866  0.24904376  1
  O  O382  1  0.12949050  0.76365435  0.75646781  1
  O  O383  1  0.58506327  0.24278393  0.26691084  1
  O  O384  1  0.62200072  0.26063716  0.75065420  1
  O  O385  1  0.62333070  0.76380307  0.25445831  1
  O  O386  1  0.63054379  0.76629459  0.74859376  1
  O  O387  1  0.38647236  0.25660166  0.24081167  1
  O  O388  1  0.38361098  0.24874474  0.74564802  1
  O  O389  1  0.37800802  0.74702998  0.24574498  1
  O  O390  1  0.37226882  0.73977018  0.73721655  1
  O  O391  1  0.89171927  0.25744057  0.28365473  1
  O  O392  1  0.86802977  0.25650735  0.73102033  1
  O  O393  1  0.88582833  0.74432395  0.25288373  1
  O  O394  1  0.86960666  0.74296700  0.74146446  1
  O  O395  1  0.38211038  0.49286704  0.49492189  1
  O  O396  1  0.38407385  0.49791739  1.00041920  1
  O  O397  1  0.38885221  1.00730847  0.50964648  1
  O  O398  1  0.38055231  0.99311449  0.99121194  1
  O  O399  1  0.87478338  0.49263633  0.48872976  1
  O  O400  1  0.88152700  0.49567157  0.99286911  1
  O  O401  1  0.88681614  1.00519827  0.49356481  1
  O  O402  1  0.88036243  0.98783405  0.99998670  1
  O  O403  1  0.11540472  0.00454101  0.00060328  1
  O  O404  1  0.12435502  0.00535644  0.50122374  1
  O  O405  1  0.11728608  0.49858704  0.00635762  1
  O  O406  1  0.11451516  0.48341001  0.50933977  1
  O  O407  1  0.61799413  0.00374107  0.00474102  1
  O  O408  1  0.62237303  0.00682356  0.50723634  1
  O  O409  1  0.61931493  0.50398704  0.00889923  1
  O  O410  1  0.62584162  0.50434125  0.50394421  1
  O  O411  1  0.38382522  0.36220952  0.12329521  1
  O  O412  1  0.37542924  0.36444331  0.62067844  1
  O  O413  1  0.35413497  0.87474010  0.10416360  1
  O  O414  1  0.36562314  0.86511218  0.63124072  1
  O  O415  1  0.87263905  0.38091616  0.11205438  1
  O  O416  1  0.87871942  0.36674187  0.60909162  1
  O  O417  1  0.86305525  0.87762979  0.11887234  1
  O  O418  1  0.86963644  0.86892841  0.63361893  1
  O  O419  1  0.12978744  0.12823623  0.38346110  1
  O  O420  1  0.12411469  0.13785433  0.87882875  1
  O  O421  1  0.13485482  0.62308444  0.37541379  1
  O  O422  1  0.12621178  0.63148269  0.87663880  1
  O  O423  1  0.61113899  0.13069853  0.38718484  1
  O  O424  1  0.63258780  0.12841087  0.88752751  1
  O  O425  1  0.63901686  0.62900847  0.38216010  1
  O  O426  1  0.63920623  0.62572530  0.87536281  1
