# generated using pymatgen
data_V85Zn86O256
_symmetry_space_group_name_H-M   'P 1'
_cell_length_a   16.92206069
_cell_length_b   16.92703214
_cell_length_c   16.93038558
_cell_angle_alpha   89.99929526
_cell_angle_beta   90.02270272
_cell_angle_gamma   89.97882390
_symmetry_Int_Tables_number   1
_chemical_formula_structural   V85Zn86O256
_chemical_formula_sum   'V85 Zn86 O256'
_cell_volume   4849.54342522
_cell_formula_units_Z   1
loop_
 _symmetry_equiv_pos_site_id
 _symmetry_equiv_pos_as_xyz
  1  'x, y, z'
loop_
 _atom_site_type_symbol
 _atom_site_label
 _atom_site_symmetry_multiplicity
 _atom_site_fract_x
 _atom_site_fract_y
 _atom_site_fract_z
 _atom_site_occupancy
  V  V0  1  0.37548354  0.37311452  -0.00330948  1
  V  V1  1  0.75137598  0.25030261  -0.00453237  1
  V  V2  1  -0.00075406  0.24553258  0.24950484  1
  V  V3  1  0.37942298  0.24944611  0.13291878  1
  V  V4  1  0.24646779  0.87941671  0.62225981  1
  V  V5  1  0.00867675  0.25538565  0.75691596  1
  V  V6  1  0.75167866  0.75139971  -0.01102115  1
  V  V7  1  0.61113033  0.75008229  0.86997768  1
  V  V8  1  0.24888902  0.74979264  0.00322491  1
  V  V9  1  0.49853005  -0.00233353  -0.01396910  1
  V  V10  1  0.87420787  0.12543908  0.24846842  1
  V  V11  1  0.87812724  0.75183621  0.11904807  1
  V  V12  1  -0.00262235  0.62238330  0.11389742  1
  V  V13  1  0.75077556  0.11737581  0.86752712  1
  V  V14  1  0.87790257  0.11481254  0.74979793  1
  V  V15  1  0.37414456  0.24657871  0.63012372  1
  V  V16  1  0.50026809  0.37512610  0.87387713  1
  V  V17  1  0.51090948  0.74780837  0.25692066  1
  V  V18  1  0.50234625  0.63204201  0.63284164  1
  V  V19  1  0.75064381  0.50527916  0.75382827  1
  V  V20  1  0.87709813  -0.00388755  0.88946194  1
  V  V21  1  0.74960663  0.13757295  0.38098622  1
  V  V22  1  0.38116081  -0.00012445  0.37730780  1
  V  V23  1  0.00713231  -0.00759512  0.50305577  1
  V  V24  1  0.37459462  0.49984749  0.87567129  1
  V  V25  1  0.62082212  0.36511804  0.25454966  1
  V  V26  1  0.24733719  0.24900116  0.50279567  1
  V  V27  1  0.62198370  0.50056064  0.62299983  1
  V  V28  1  0.12121619  0.88498848  0.74710830  1
  V  V29  1  0.87730468  0.87415719  0.49400565  1
  V  V30  1  0.25094250  0.37473047  0.12672878  1
  V  V31  1  0.25640598  0.12324454  0.87829085  1
  V  V32  1  0.51146770  0.87256427  0.37817931  1
  V  V33  1  0.49940140  0.62632895  0.12570439  1
  V  V34  1  0.62466779  0.62812497  0.49092930  1
  V  V35  1  0.37561764  0.75450095  0.12834140  1
  V  V36  1  0.61154760  0.87391578  0.75392368  1
  V  V37  1  0.24750506  0.50618854  0.25772704  1
  V  V38  1  0.37437872  0.37842638  0.50191727  1
  V  V39  1  0.25976856  -0.00297596  0.75556507  1
  V  V40  1  0.61997392  -0.00347872  0.12628317  1
  V  V41  1  0.62401314  0.12354588  -0.00095136  1
  V  V42  1  0.24008826  0.25067897  -0.00105721  1
  V  V43  1  0.88217932  0.50344256  0.87461068  1
  V  V44  1  0.23907797  0.37363533  0.63233887  1
  V  V45  1  0.74986825  -0.00338890  0.25456952  1
  V  V46  1  0.00307694  0.74778785  0.74698977  1
  V  V47  1  0.24467706  0.49602980  0.75253484  1
  V  V48  1  0.24961188  0.62813178  0.87389475  1
  V  V49  1  0.75065892  0.75052103  0.49114540  1
  V  V50  1  0.87976360  0.62541978  0.24659892  1
  V  V51  1  -0.00144879  0.37196161  0.37699181  1
  V  V52  1  0.00043214  0.11262300  0.11692965  1
  V  V53  1  0.87373313  0.49986328  0.37555121  1
  V  V54  1  0.62651822  0.24962750  0.87270442  1
  V  V55  1  -0.00297374  0.50968522  0.50451117  1
  V  V56  1  0.87512512  0.24620098  0.62706493  1
  V  V57  1  0.11984407  0.50102069  0.12181406  1
  V  V58  1  0.23953042  0.88268494  0.12976708  1
  V  V59  1  0.75411264  0.87385563  0.63594469  1
  V  V60  1  0.62555235  0.37464601  0.74626677  1
  V  V61  1  -0.00141059  0.87811598  0.88801071  1
  V  V62  1  0.37981781  0.87862380  -0.00980494  1
  V  V63  1  0.12442548  0.37064050  0.25020839  1
  V  V64  1  0.75227983  0.87431361  0.11769942  1
  V  V65  1  0.87596239  0.25061180  0.12062613  1
  V  V66  1  0.12220814  0.51324331  0.62594291  1
  V  V67  1  0.24754932  0.74557846  0.48955182  1
  V  V68  1  0.49668027  0.24805723  0.74811177  1
  V  V69  1  0.88059578  0.74471829  0.61906910  1
  V  V70  1  0.62850579  0.62501256  -0.00768418  1
  V  V71  1  0.63162084  -0.00168176  0.62667081  1
  V  V72  1  0.62481454  0.50030230  0.12340029  1
  V  V73  1  0.37657519  0.75310186  0.63180044  1
  V  V74  1  0.25077050  0.12336205  0.37347325  1
  V  V75  1  0.88276387  0.37903397  -0.00499000  1
  V  V76  1  0.37136005  0.62764237  0.26103679  1
  V  V77  1  0.12206506  0.10716737  -0.00239366  1
  V  V78  1  0.12608263  0.11970418  0.50615616  1
  V  V79  1  0.05729643  0.82176500  0.30641664  1
  V  V80  1  0.62774631  0.13353601  0.50023021  1
  V  V81  1  0.87440264  0.62757690  0.74951184  1
  V  V82  1  0.87373523  0.36739490  0.50056470  1
  V  V83  1  0.74731096  0.37239467  0.61956938  1
  V  V84  1  0.74860727  0.49977740  0.24915090  1
  Zn  Zn85  1  0.37796930  0.87384585  0.50021170  1
  Zn  Zn86  1  0.38215927  0.11746520  0.76048690  1
  Zn  Zn87  1  0.50102350  0.12084927  0.62610605  1
  Zn  Zn88  1  0.00781904  0.12041636  0.62987584  1
  Zn  Zn89  1  0.12445681  0.75136038  0.87471732  1
  Zn  Zn90  1  0.12194061  0.62432014  -0.00136318  1
  Zn  Zn91  1  0.12247503  0.24782730  0.37772733  1
  Zn  Zn92  1  0.38709860  0.12802297  0.25635989  1
  Zn  Zn93  1  0.49609730  0.50355404  0.49650914  1
  Zn  Zn94  1  0.49471730  0.36768944  0.36573324  1
  Zn  Zn95  1  0.75008604  0.37513811  0.12135041  1
  Zn  Zn96  1  0.37894441  0.62773341  0.75204672  1
  Zn  Zn97  1  0.63339673  0.86618000  0.25541901  1
  Zn  Zn98  1  0.01299659  0.37838636  0.87503227  1
  Zn  Zn99  1  0.50591476  0.13112510  0.13249372  1
  Zn  Zn100  1  0.87632088  0.00184688  0.37752093  1
  Zn  Zn101  1  0.74881001  0.62955312  0.37139581  1
  Zn  Zn102  1  0.50541510  -0.00219901  0.50191249  1
  Zn  Zn103  1  0.37185723  0.50100325  0.37883169  1
  Zn  Zn104  1  0.13259900  0.62593557  0.48302389  1
  Zn  Zn105  1  0.24750652  -0.00944830  0.25450360  1
  Zn  Zn106  1  0.49919683  0.50159041  -0.00104792  1
  Zn  Zn107  1  0.16111679  0.14613866  0.21142996  1
  Zn  Zn108  1  0.19010067  0.17889532  0.68919899  1
  Zn  Zn109  1  0.18257649  0.69203807  0.19363763  1
  Zn  Zn110  1  0.18984307  0.69185029  0.68672884  1
  Zn  Zn111  1  0.69040706  0.18436499  0.18634477  1
  Zn  Zn112  1  0.69012723  0.18755580  0.68519524  1
  Zn  Zn113  1  0.69221989  0.68508282  0.18210079  1
  Zn  Zn114  1  0.68969913  0.69002014  0.68589939  1
  Zn  Zn115  1  0.30862049  0.31280636  0.31545421  1
  Zn  Zn116  1  0.18694439  0.30867622  0.81681856  1
  Zn  Zn117  1  0.31799903  0.81646934  0.31279457  1
  Zn  Zn118  1  0.31319780  0.81289523  0.81142080  1
  Zn  Zn119  1  0.80943522  0.31430778  0.30923962  1
  Zn  Zn120  1  0.81703563  0.31238014  0.80868793  1
  Zn  Zn121  1  0.82638524  0.81015123  0.31052599  1
  Zn  Zn122  1  0.81541543  0.81257892  0.81448738  1
  Zn  Zn123  1  0.18427410  0.43650888  0.44025127  1
  Zn  Zn124  1  0.18825219  0.44092394  0.94150638  1
  Zn  Zn125  1  0.18840740  0.93377545  0.43625300  1
  Zn  Zn126  1  0.19042579  0.93354508  0.93573666  1
  Zn  Zn127  1  0.68727390  0.43824496  0.43668952  1
  Zn  Zn128  1  0.69260078  0.43755865  0.93510143  1
  Zn  Zn129  1  0.69130590  0.93908558  0.44061771  1
  Zn  Zn130  1  0.68669868  0.93676724  0.93434141  1
  Zn  Zn131  1  0.31522830  0.06330412  0.06301732  1
  Zn  Zn132  1  0.31455880  0.05944033  0.56334405  1
  Zn  Zn133  1  0.31103086  0.56317277  0.06711125  1
  Zn  Zn134  1  0.31037468  0.56679602  0.56590214  1
  Zn  Zn135  1  0.80877536  0.06279053  0.06169424  1
  Zn  Zn136  1  0.81352781  0.05871372  0.56362936  1
  Zn  Zn137  1  0.80992713  0.56310961  0.05723465  1
  Zn  Zn138  1  0.81228616  0.56312337  0.56352222  1
  Zn  Zn139  1  0.43809266  0.43926924  0.18826885  1
  Zn  Zn140  1  0.43356820  0.43603509  0.68586351  1
  Zn  Zn141  1  0.43745799  0.93656271  0.19281069  1
  Zn  Zn142  1  0.43923375  0.93728155  0.68483671  1
  Zn  Zn143  1  0.93814570  0.43648442  0.18507456  1
  Zn  Zn144  1  0.93892922  0.43711491  0.68671388  1
  Zn  Zn145  1  0.93291128  0.93647842  0.18123900  1
  Zn  Zn146  1  0.94012084  0.93621414  0.68438694  1
  Zn  Zn147  1  0.05790956  0.00415939  0.30433436  1
  Zn  Zn148  1  0.06521410  0.06232474  0.81641131  1
  Zn  Zn149  1  0.06127713  0.56127833  0.30833197  1
  Zn  Zn150  1  0.06361491  0.56492990  0.81140069  1
  Zn  Zn151  1  0.56460583  0.06571634  0.31282749  1
  Zn  Zn152  1  0.56722544  0.05905293  0.80738654  1
  Zn  Zn153  1  0.55669078  0.55483674  0.31447069  1
  Zn  Zn154  1  0.56343608  0.56344394  0.81264618  1
  Zn  Zn155  1  0.44082316  0.18996212  0.43694563  1
  Zn  Zn156  1  0.43762870  0.18773784  0.94238091  1
  Zn  Zn157  1  0.43754776  0.69122027  0.44380297  1
  Zn  Zn158  1  0.43618662  0.68793081  0.94009460  1
  Zn  Zn159  1  0.93934975  0.18195395  0.43953408  1
  Zn  Zn160  1  0.93974361  0.18600223  0.93455903  1
  Zn  Zn161  1  0.97469985  0.67759667  0.40779635  1
  Zn  Zn162  1  0.93599783  0.68923881  0.93314840  1
  Zn  Zn163  1  0.06103308  0.31168649  0.06316326  1
  Zn  Zn164  1  0.05974684  0.31289041  0.56719589  1
  Zn  Zn165  1  0.06403206  0.80935700  0.06753020  1
  Zn  Zn166  1  0.06569218  0.81132716  0.56178483  1
  Zn  Zn167  1  0.56290435  0.31489806  0.06235359  1
  Zn  Zn168  1  0.54807138  0.29826123  0.53344250  1
  Zn  Zn169  1  0.56333370  0.81350028  0.06184691  1
  Zn  Zn170  1  0.56561777  0.81110512  0.56318779  1
  O  O171  1  0.11278601  0.13226174  0.10694494  1
  O  O172  1  0.12862774  0.12403225  0.61178025  1
  O  O173  1  0.11372099  0.61945392  0.12721317  1
  O  O174  1  0.13064248  0.61511116  0.62031608  1
  O  O175  1  0.62963044  0.11466137  0.11627887  1
  O  O176  1  0.63168673  0.11379276  0.61925766  1
  O  O177  1  0.62137204  0.61510968  0.11801916  1
  O  O178  1  0.62109172  0.61897615  0.61943969  1
  O  O179  1  0.37275120  0.37523118  0.38891205  1
  O  O180  1  0.38015506  0.38168188  0.88845016  1
  O  O181  1  0.38830040  0.88315512  0.37728583  1
  O  O182  1  0.37161817  0.86980765  0.89105753  1
  O  O183  1  0.87560807  0.37786438  0.38306416  1
  O  O184  1  0.87746043  0.38324159  0.87944177  1
  O  O185  1  0.86384862  0.88194012  0.39129155  1
  O  O186  1  0.88834010  0.88218965  0.87086341  1
  O  O187  1  0.26054027  0.00711572  0.37882836  1
  O  O188  1  0.24784460  0.00608251  0.86688626  1
  O  O189  1  0.24680722  0.49732656  0.36165241  1
  O  O190  1  0.25569645  0.50805266  0.87021493  1
  O  O191  1  0.75170950  0.00740652  0.36660883  1
  O  O192  1  0.75909787  0.00784785  0.87721665  1
  O  O193  1  0.75641562  0.50349255  0.36641226  1
  O  O194  1  0.76029062  0.49433398  0.85922063  1
  O  O195  1  0.24428560  0.49413904  0.13664670  1
  O  O196  1  0.24383179  0.49400083  0.63362125  1
  O  O197  1  0.25847842  0.98482576  0.12677000  1
  O  O198  1  0.25533750  0.98634874  0.63281646  1
  O  O199  1  0.74219481  0.49969192  0.13044299  1
  O  O200  1  0.74100720  0.49446811  0.63236801  1
  O  O201  1  0.74259662  0.99206878  0.12871410  1
  O  O202  1  0.74209789  0.98802077  0.62265321  1
  O  O203  1  0.00384391  0.36629114  0.25459370  1
  O  O204  1  -0.00499358  0.35832921  0.75009888  1
  O  O205  1  0.01426752  0.90319963  0.25332578  1
  O  O206  1  0.00606781  0.86742709  0.75318788  1
  O  O207  1  0.51523176  0.37684666  0.24819316  1
  O  O208  1  0.50469904  0.36892204  0.75402255  1
  O  O209  1  0.50493436  0.86391569  0.25775076  1
  O  O210  1  0.51304822  0.87286062  0.74760768  1
  O  O211  1  0.50073769  0.12744982  0.24659085  1
  O  O212  1  0.50091082  0.13197317  0.74726133  1
  O  O213  1  0.49290194  0.62957076  0.24546639  1
  O  O214  1  0.50056517  0.62352919  0.73739602  1
  O  O215  1  0.98953995  0.13155270  0.23741664  1
  O  O216  1  0.99613145  0.13213549  0.74989495  1
  O  O217  1  0.98388000  0.61584283  0.23393348  1
  O  O218  1  0.99491352  0.64051279  0.75328848  1
  O  O219  1  0.36709908  0.25803695  0.00549959  1
  O  O220  1  0.36233773  0.25568549  0.51205190  1
  O  O221  1  0.36785608  0.75500073  0.00916986  1
  O  O222  1  0.36490593  0.75133725  0.51201893  1
  O  O223  1  0.87119368  0.25465833  0.00266446  1
  O  O224  1  0.88093482  0.25963867  0.50933468  1
  O  O225  1  0.86287275  0.74222643  0.00570616  1
  O  O226  1  0.87129213  0.75657496  0.50719602  1
  O  O227  1  0.13500306  0.24565384  0.50478951  1
  O  O228  1  0.13817258  0.25030574  1.00501355  1
  O  O229  1  0.14258579  0.74784948  0.50666252  1
  O  O230  1  0.13846219  0.74753505  0.99988544  1
  O  O231  1  0.64109401  0.23040920  0.52017029  1
  O  O232  1  0.63078974  0.24551754  0.99358151  1
  O  O233  1  0.63816002  0.73968301  0.50756092  1
  O  O234  1  0.62921442  0.74430253  0.99192843  1
  O  O235  1  0.48348625  0.25107407  0.11490676  1
  O  O236  1  0.49101695  0.24833604  0.63020779  1
  O  O237  1  0.49407125  0.74598326  0.13226319  1
  O  O238  1  0.49159038  0.74279534  0.62017925  1
  O  O239  1  0.98812506  0.24477700  0.12708189  1
  O  O240  1  0.99037449  0.24724055  0.63521266  1
  O  O241  1  0.98619677  0.74222791  0.11893113  1
  O  O242  1  0.98838017  0.75552807  0.63119076  1
  O  O243  1  -0.00197735  0.25392793  0.36858328  1
  O  O244  1  -0.00277124  0.25215334  0.85976082  1
  O  O245  1  -0.02306371  0.77630395  0.35189720  1
  O  O246  1  0.00004074  0.76142467  0.86669005  1
  O  O247  1  0.51235073  0.27230161  0.42345277  1
  O  O248  1  0.50668224  0.25367156  0.86807324  1
  O  O249  1  0.49637245  0.75736970  0.36736827  1
  O  O250  1  0.51137143  0.74812932  0.87744929  1
  O  O251  1  0.24820928  0.13146375  0.49769615  1
  O  O252  1  0.24102940  0.12953924  0.99845473  1
  O  O253  1  0.25036420  0.63960826  0.49943687  1
  O  O254  1  0.25192852  0.63422344  0.99441567  1
  O  O255  1  0.74743434  0.11952957  0.48732293  1
  O  O256  1  0.74491312  0.13119878  0.98821800  1
  O  O257  1  0.74403285  0.63217164  0.49840045  1
  O  O258  1  0.73595101  0.63525705  1.00388907  1
  O  O259  1  0.25825717  0.36986561  0.00577005  1
  O  O260  1  0.25444085  0.36819263  0.50876719  1
  O  O261  1  0.25781315  0.86841508  0.00968618  1
  O  O262  1  0.25266558  0.86865881  0.50834355  1
  O  O263  1  0.75970020  0.36612765  -0.00099096  1
  O  O264  1  0.75643655  0.37935537  0.51187977  1
  O  O265  1  0.74390980  0.86745876  0.00955033  1
  O  O266  1  0.75570232  0.86709752  0.50995771  1
  O  O267  1  0.12939954  0.49488312  0.24200552  1
  O  O268  1  0.13617105  0.50660632  0.74245630  1
  O  O269  1  0.14505347  1.03941955  0.25104845  1
  O  O270  1  0.13343150  0.98980140  0.75310638  1
  O  O271  1  0.63161943  0.49737705  0.24075414  1
  O  O272  1  0.63311277  0.49540084  0.74483763  1
  O  O273  1  0.63729514  0.99834187  0.24280001  1
  O  O274  1  0.62771047  0.98399599  0.74391740  1
  O  O275  1  0.37171224  0.00228601  0.26423753  1
  O  O276  1  0.36486423  -0.00098504  0.74857553  1
  O  O277  1  0.36552212  0.50968369  0.24956616  1
  O  O278  1  0.36254194  0.50110233  0.75590157  1
  O  O279  1  0.86304893  0.00688463  0.24828234  1
  O  O280  1  0.88216128  0.01170448  0.75458073  1
  O  O281  1  0.86588567  0.50211285  0.25201709  1
  O  O282  1  0.86987060  0.50753100  0.75044161  1
  O  O283  1  0.11743712  0.37060379  0.36926322  1
  O  O284  1  0.12524766  0.38003771  0.87585263  1
  O  O285  1  0.11868044  0.87141541  0.37166298  1
  O  O286  1  0.11417791  0.87348009  0.86847406  1
  O  O287  1  0.62977323  0.37894841  0.35676752  1
  O  O288  1  0.62178703  0.36998285  0.86693282  1
  O  O289  1  0.61658373  0.87842801  0.37369837  1
  O  O290  1  0.62844821  0.86861721  0.86060062  1
  O  O291  1  0.37322468  0.14125879  0.12761278  1
  O  O292  1  0.37398914  0.13695007  0.62904927  1
  O  O293  1  0.37917481  0.63693929  0.13141172  1
  O  O294  1  0.38485977  0.63227223  0.62736476  1
  O  O295  1  0.87772311  0.13331155  0.12516089  1
  O  O296  1  0.87376033  0.13140339  0.63272069  1
  O  O297  1  0.87874381  0.62804481  0.12544911  1
  O  O298  1  0.87220447  0.63269458  0.63624955  1
  O  O299  1  0.26431516  0.26130258  0.11572049  1
  O  O300  1  0.25373166  0.25553281  0.62493290  1
  O  O301  1  0.25665335  0.75607856  0.12030828  1
  O  O302  1  0.25782264  0.76105449  0.62120261  1
  O  O303  1  0.76186432  0.24903402  0.11624712  1
  O  O304  1  0.76534519  0.25977526  0.63404031  1
  O  O305  1  0.75363222  0.75701042  0.11362413  1
  O  O306  1  0.76221568  0.75497794  0.61734164  1
  O  O307  1  0.24957443  0.24512247  0.38931843  1
  O  O308  1  0.24847703  0.23890059  0.88671729  1
  O  O309  1  0.25799957  0.75726776  0.39103343  1
  O  O310  1  0.25004856  0.74373939  0.88333293  1
  O  O311  1  0.75098088  0.23626475  0.37096207  1
  O  O312  1  0.74581513  0.24371001  0.87633028  1
  O  O313  1  0.75710823  0.74904914  0.38713509  1
  O  O314  1  0.74265371  0.75648255  0.88570178  1
  O  O315  1  0.01349414  0.12852416  0.00109660  1
  O  O316  1  0.01005985  0.11756643  0.50544979  1
  O  O317  1  0.00039880  0.62692652  0.00862950  1
  O  O318  1  -0.01654948  0.60941881  0.50484394  1
  O  O319  1  0.50733725  0.11679731  0.00600560  1
  O  O320  1  0.51802903  0.12222467  0.50475185  1
  O  O321  1  0.51062770  0.62470203  0.00716305  1
  O  O322  1  0.50826079  0.62344368  0.51055734  1
  O  O323  1  0.47655141  0.38844325  0.52742923  1
  O  O324  1  0.49430766  0.37791138  0.99171986  1
  O  O325  1  0.50109314  0.87454103  0.49229866  1
  O  O326  1  0.49258793  0.88438153  1.00479660  1
  O  O327  1  0.99117310  0.37953427  0.49637350  1
  O  O328  1  0.98657033  0.37004413  0.99651858  1
  O  O329  1  0.99420006  0.88415575  0.50539335  1
  O  O330  1  1.00402061  0.86866578  0.98614869  1
  O  O331  1  0.49253207  0.48824620  0.38004586  1
  O  O332  1  0.49197067  0.49470874  0.87434361  1
  O  O333  1  0.49763608  0.99179789  0.37678392  1
  O  O334  1  0.50540597  1.00376863  0.88676041  1
  O  O335  1  0.99130576  0.48918303  0.38250400  1
  O  O336  1  0.98660382  0.49812002  0.86590174  1
  O  O337  1  0.99268196  1.00804842  0.39578362  1
  O  O338  1  0.99431374  0.98579497  0.87222229  1
  O  O339  1  -0.00889818  0.01368848  0.11946236  1
  O  O340  1  -0.00285035  0.00360130  0.60982349  1
  O  O341  1  0.00810951  0.50640337  0.12559453  1
  O  O342  1  0.01107636  0.49247812  0.61743919  1
  O  O343  1  0.51354315  -0.00274576  0.12513486  1
  O  O344  1  0.51516536  0.00051342  0.62430797  1
  O  O345  1  0.50790447  0.50759020  0.12263173  1
  O  O346  1  0.51265740  0.50691056  0.62942518  1
  O  O347  1  0.24236432  0.38106294  0.24572311  1
  O  O348  1  0.24666259  0.38286289  0.74403785  1
  O  O349  1  0.25423237  0.87252649  0.23476873  1
  O  O350  1  0.24255553  0.88054998  0.74682574  1
  O  O351  1  0.74354692  0.38609904  0.24412357  1
  O  O352  1  0.74764806  0.38160020  0.73853240  1
  O  O353  1  0.75242397  0.88063820  0.24267280  1
  O  O354  1  0.74872502  0.86877077  0.73822546  1
  O  O355  1  0.26452661  0.13989377  0.27097029  1
  O  O356  1  0.25200509  0.11498579  0.76101068  1
  O  O357  1  0.25772037  0.61912531  0.24449095  1
  O  O358  1  0.25241616  0.62011757  0.75911211  1
  O  O359  1  0.75322442  0.11838268  0.25979457  1
  O  O360  1  0.76000422  0.13013840  0.76109113  1
  O  O361  1  0.75633909  0.61390090  0.24938152  1
  O  O362  1  0.75827518  0.61596844  0.74474008  1
  O  O363  1  0.37234171  0.11898786  0.38070502  1
  O  O364  1  0.36183785  0.12655283  0.87964182  1
  O  O365  1  0.37972368  0.62539511  0.36356798  1
  O  O366  1  0.36622783  0.62011341  0.87502677  1
  O  O367  1  0.86387342  0.12466428  0.37019039  1
  O  O368  1  0.87069832  0.11649193  0.86933029  1
  O  O369  1  0.87784689  0.61735816  0.36222801  1
  O  O370  1  0.87611227  0.61901629  0.86082794  1
  O  O371  1  0.12819231  0.38146804  0.13127250  1
  O  O372  1  0.13570634  0.38481913  0.61866133  1
  O  O373  1  0.14099701  0.87551548  0.12012153  1
  O  O374  1  0.13393983  0.87187275  0.63502173  1
  O  O375  1  0.62673695  0.38732115  0.12842392  1
  O  O376  1  0.63177671  0.38215836  0.62743675  1
  O  O377  1  0.63454442  0.88001998  0.12950197  1
  O  O378  1  0.63296544  0.87699802  0.63495304  1
  O  O379  1  0.11483803  0.24869150  0.25144339  1
  O  O380  1  0.11375079  0.24612717  0.74633129  1
  O  O381  1  0.10868147  0.75921389  0.24535515  1
  O  O382  1  0.11799767  0.75874623  0.75126560  1
  O  O383  1  0.63251717  0.26754765  0.23917757  1
  O  O384  1  0.61644893  0.25503926  0.75107695  1
  O  O385  1  0.61467993  0.74482560  0.24515410  1
  O  O386  1  0.63084366  0.76146794  0.75662258  1
  O  O387  1  0.37461156  0.25982276  0.23499409  1
  O  O388  1  0.39026814  0.24777720  0.74575840  1
  O  O389  1  0.38341780  0.74448424  0.24465570  1
  O  O390  1  0.37083314  0.74783541  0.73710528  1
  O  O391  1  0.87744798  0.24699005  0.23936030  1
  O  O392  1  0.88503024  0.23898910  0.74525612  1
  O  O393  1  0.86197051  0.73548977  0.23208401  1
  O  O394  1  0.88085648  0.74419142  0.74415274  1
  O  O395  1  0.36776883  0.49307770  0.49954354  1
  O  O396  1  0.37458963  0.49300610  0.99597823  1
  O  O397  1  0.38199332  0.99796457  0.49071792  1
  O  O398  1  0.38739817  0.99133955  1.00767649  1
  O  O399  1  0.87775969  0.48781242  0.49870708  1
  O  O400  1  0.86640963  0.49219872  0.98664297  1
  O  O401  1  0.88385118  0.99073285  0.50229528  1
  O  O402  1  0.87410428  1.00288946  0.98897626  1
  O  O403  1  0.12876152  0.00880637  0.00112117  1
  O  O404  1  0.11527464  0.00336447  0.49766963  1
  O  O405  1  0.13438417  0.50614233  0.01821318  1
  O  O406  1  0.11613369  0.50594077  0.50538635  1
  O  O407  1  0.61947729  0.00228497  0.00695143  1
  O  O408  1  0.62820935  0.00750952  0.51055957  1
  O  O409  1  0.62685608  0.50681368  0.00395033  1
  O  O410  1  0.62527533  0.50727592  0.50902178  1
  O  O411  1  0.37344382  0.37204988  0.11525199  1
  O  O412  1  0.35991434  0.36429629  0.62601721  1
  O  O413  1  0.37309101  0.86337523  0.12130741  1
  O  O414  1  0.36946906  0.86856667  0.62299628  1
  O  O415  1  0.87341039  0.36807187  0.11544453  1
  O  O416  1  0.86866958  0.36888464  0.61892733  1
  O  O417  1  0.86582372  0.86391552  0.12568367  1
  O  O418  1  0.86932953  0.86813442  0.61836863  1
  O  O419  1  0.13850410  0.13038576  0.39394634  1
  O  O420  1  0.13373144  0.12181775  0.89054548  1
  O  O421  1  0.08249903  0.63947866  0.38253591  1
  O  O422  1  0.13683276  0.62697889  0.87856359  1
  O  O423  1  0.63668420  0.12184293  0.39019844  1
  O  O424  1  0.63404206  0.12864406  0.87682305  1
  O  O425  1  0.62483708  0.61854711  0.38773937  1
  O  O426  1  0.62329377  0.63298195  0.88203151  1
