# generated using pymatgen
data_V85Zn86O256
_symmetry_space_group_name_H-M   'P 1'
_cell_length_a   16.95807002
_cell_length_b   16.95461789
_cell_length_c   16.94575023
_cell_angle_alpha   89.98741926
_cell_angle_beta   90.07344039
_cell_angle_gamma   90.00456936
_symmetry_Int_Tables_number   1
_chemical_formula_structural   V85Zn86O256
_chemical_formula_sum   'V85 Zn86 O256'
_cell_volume   4872.19725761
_cell_formula_units_Z   1
loop_
 _symmetry_equiv_pos_site_id
 _symmetry_equiv_pos_as_xyz
  1  'x, y, z'
loop_
 _atom_site_type_symbol
 _atom_site_label
 _atom_site_symmetry_multiplicity
 _atom_site_fract_x
 _atom_site_fract_y
 _atom_site_fract_z
 _atom_site_occupancy
  V  V0  1  0.79902632  0.44340902  0.69184813  1
  V  V1  1  0.75081959  0.87367260  0.62291306  1
  V  V2  1  -0.00383048  0.50425365  0.49652120  1
  V  V3  1  -0.00475833  0.87245914  0.86011400  1
  V  V4  1  0.49683380  0.12444864  0.61960755  1
  V  V5  1  0.85931825  0.62359956  0.25049658  1
  V  V6  1  0.24742251  0.13221281  0.39632014  1
  V  V7  1  0.75115445  0.38380470  0.12888459  1
  V  V8  1  0.12232634  0.25088529  0.87765165  1
  V  V9  1  0.50593569  0.75013368  0.75227364  1
  V  V10  1  0.75095232  0.11756625  0.38186640  1
  V  V11  1  0.62515960  0.00440206  0.61827003  1
  V  V12  1  0.11781504  0.75054265  0.86457392  1
  V  V13  1  0.37545554  0.75148112  0.62610541  1
  V  V14  1  0.62842300  0.87183619  0.75405958  1
  V  V15  1  0.62869804  0.38013590  0.25239256  1
  V  V16  1  0.25011545  0.49404215  0.74795452  1
  V  V17  1  0.74434332  0.75032197  -0.00782380  1
  V  V18  1  0.36814666  0.37610722  0.51316095  1
  V  V19  1  0.25031863  0.49757642  0.25049132  1
  V  V20  1  0.62734334  0.38129107  0.74393548  1
  V  V21  1  0.75284858  0.12541426  0.87708897  1
  V  V22  1  0.24838287  0.86959197  0.14032795  1
  V  V23  1  0.87358193  0.75271607  0.12313659  1
  V  V24  1  0.00007811  0.12289645  0.12675203  1
  V  V25  1  0.49984754  0.87175490  0.87961572  1
  V  V26  1  0.50302486  0.37787560  0.87481745  1
  V  V27  1  0.50293482  0.50066520  0.00231399  1
  V  V28  1  0.00058322  -0.00518590  -0.00136595  1
  V  V29  1  0.00112448  0.00898696  0.49285681  1
  V  V30  1  -0.00868781  0.24208277  0.75143603  1
  V  V31  1  0.24770291  0.62415703  0.87488145  1
  V  V32  1  0.50023131  0.38017513  0.38677184  1
  V  V33  1  -0.00063430  0.63214394  0.62531247  1
  V  V34  1  0.87512353  0.24999890  0.12777804  1
  V  V35  1  0.24302069  0.74909476  -0.00055806  1
  V  V36  1  0.62761385  0.25043550  0.87798326  1
  V  V37  1  0.12569437  0.01195585  0.61947817  1
  V  V38  1  0.49966617  0.24650968  0.25490569  1
  V  V39  1  0.25903101  0.00108496  0.75858938  1
  V  V40  1  0.38617127  0.87941255  0.49828095  1
  V  V41  1  0.75801931  0.25352706  0.51144864  1
  V  V42  1  0.74232105  0.74954667  0.48295400  1
  V  V43  1  0.12841071  0.49510125  0.62293763  1
  V  V44  1  0.37356952  0.62606104  0.74904134  1
  V  V45  1  0.74919470  0.25179617  0.00469748  1
  V  V46  1  0.73677023  0.88218720  0.12125430  1
  V  V47  1  0.12320173  -0.00924247  0.13234989  1
  V  V48  1  0.62078560  0.62145298  0.48544626  1
  V  V49  1  0.87523597  0.00363840  0.87388373  1
  V  V50  1  0.12818314  0.75908742  0.36649785  1
  V  V51  1  0.38071155  0.74465138  0.12267245  1
  V  V52  1  0.11954726  0.49793030  0.11715942  1
  V  V53  1  0.62207245  0.62811386  -0.00795206  1
  V  V54  1  0.12317523  0.37070439  0.75333272  1
  V  V55  1  -0.00232988  0.62169903  0.12223052  1
  V  V56  1  0.87285170  0.11657071  0.25340096  1
  V  V57  1  0.37800025  0.62310524  0.25032108  1
  V  V58  1  0.61357552  0.87903610  0.26111841  1
  V  V59  1  0.62634172  0.11200947  0.00588569  1
  V  V60  1  0.88885080  0.38003889  0.00096061  1
  V  V61  1  0.88548424  0.50032210  0.88137223  1
  V  V62  1  0.37620096  0.24660860  0.13391157  1
  V  V63  1  0.38137236  0.00646875  0.37170704  1
  V  V64  1  0.24786138  0.87642997  0.62471084  1
  V  V65  1  0.44536674  0.03842867  -0.04960518  1
  V  V66  1  0.87988610  0.75781237  0.62313516  1
  V  V67  1  0.12198795  0.37396757  0.25359322  1
  V  V68  1  0.62750240  0.24532132  0.38428082  1
  V  V69  1  0.37624023  0.37725118  0.00238034  1
  V  V70  1  0.37194446  0.87378428  -0.00370452  1
  V  V71  1  0.74522875  0.61966977  0.86894641  1
  V  V72  1  0.24855578  0.62279058  0.37619784  1
  V  V73  1  -0.00614272  0.37602908  0.37683317  1
  V  V74  1  0.25119371  0.37420415  0.12782499  1
  V  V75  1  0.12515072  0.62682109  0.49861246  1
  V  V76  1  0.12774744  0.12053170  -0.00228835  1
  V  V77  1  0.87330422  0.63411174  0.74840800  1
  V  V78  1  0.25087905  0.01157296  0.25249246  1
  V  V79  1  0.50158340  0.11581426  0.12943831  1
  V  V80  1  0.25081668  0.24838365  0.00037836  1
  V  V81  1  0.49589180  0.24357701  0.75122300  1
  V  V82  1  0.87804605  0.87732549  0.48377986  1
  V  V83  1  0.75220119  0.01018059  0.74648526  1
  V  V84  1  0.86107226  0.50423796  0.37084807  1
  Zn  Zn85  1  0.37024865  0.24652675  0.63007580  1
  Zn  Zn86  1  0.25085759  0.75178800  0.49964000  1
  Zn  Zn87  1  0.00368653  0.75507550  0.24602639  1
  Zn  Zn88  1  0.12085078  0.24614591  0.38547553  1
  Zn  Zn89  1  0.27014652  0.11738088  0.87898193  1
  Zn  Zn90  1  0.50779846  0.00309135  0.49214198  1
  Zn  Zn91  1  0.37864218  0.50076559  0.38429966  1
  Zn  Zn92  1  0.50283388  0.62344052  0.61716359  1
  Zn  Zn93  1  0.63095340  0.50634895  0.12879807  1
  Zn  Zn94  1  -0.00038248  0.24756751  0.25402520  1
  Zn  Zn95  1  0.21919469  0.26987689  0.54269141  1
  Zn  Zn96  1  0.37420393  0.49961924  0.87496095  1
  Zn  Zn97  1  0.74432577  0.00170036  0.24603036  1
  Zn  Zn98  1  0.50433110  0.62487436  0.12834100  1
  Zn  Zn99  1  0.86893071  0.37999792  0.51296489  1
  Zn  Zn100  1  -0.01646875  0.13424264  0.62389884  1
  Zn  Zn101  1  0.87272288  0.87361405  0.00021123  1
  Zn  Zn102  1  0.11554545  0.61850933  -0.00495510  1
  Zn  Zn103  1  0.00464733  0.88349839  0.36441597  1
  Zn  Zn104  1  0.52135806  0.74293974  0.28502186  1
  Zn  Zn105  1  0.62368714  0.50283812  0.61845411  1
  Zn  Zn106  1  0.11757086  0.87436928  0.74177319  1
  Zn  Zn107  1  0.18428719  0.18843560  0.18911596  1
  Zn  Zn108  1  0.18999437  0.18048503  0.69697750  1
  Zn  Zn109  1  0.18872899  0.68262320  0.18710038  1
  Zn  Zn110  1  0.18799779  0.68685593  0.68616308  1
  Zn  Zn111  1  0.68551401  0.19018864  0.19180259  1
  Zn  Zn112  1  0.68104976  0.18825339  0.68867299  1
  Zn  Zn113  1  0.68327384  0.69495321  0.18132329  1
  Zn  Zn114  1  0.68931539  0.68642675  0.67917307  1
  Zn  Zn115  1  0.31567380  0.31156319  0.31830413  1
  Zn  Zn116  1  0.31040472  0.31018840  0.81210859  1
  Zn  Zn117  1  0.34149600  0.80318301  0.32383589  1
  Zn  Zn118  1  0.31027711  0.81592989  0.81149710  1
  Zn  Zn119  1  0.81121981  0.30946778  0.31396362  1
  Zn  Zn120  1  0.81675024  0.31203368  0.82284745  1
  Zn  Zn121  1  0.80942508  0.81460406  0.30260379  1
  Zn  Zn122  1  0.81302008  0.81278283  0.81188590  1
  Zn  Zn123  1  0.18653598  0.43591753  0.43808192  1
  Zn  Zn124  1  0.18725889  0.43506551  0.93687042  1
  Zn  Zn125  1  0.19420520  0.94076079  0.44061995  1
  Zn  Zn126  1  0.18453832  0.93159180  0.93762956  1
  Zn  Zn127  1  0.68697009  0.43438002  0.44134364  1
  Zn  Zn128  1  0.69166687  0.44051778  0.93835222  1
  Zn  Zn129  1  0.68788507  0.93470534  0.43544320  1
  Zn  Zn130  1  0.68551579  0.93670316  0.93475190  1
  Zn  Zn131  1  0.30838908  0.06510114  0.07417642  1
  Zn  Zn132  1  0.31712140  0.06212799  0.56617072  1
  Zn  Zn133  1  0.31066424  0.56133851  0.06136876  1
  Zn  Zn134  1  0.31493941  0.55930426  0.56232355  1
  Zn  Zn135  1  0.81467467  0.06223158  0.06122065  1
  Zn  Zn136  1  0.81766879  0.06433863  0.55891878  1
  Zn  Zn137  1  0.81275509  0.56425131  0.05908508  1
  Zn  Zn138  1  0.81063617  0.57421778  0.55295515  1
  Zn  Zn139  1  0.44180695  0.43589527  0.19089603  1
  Zn  Zn140  1  0.44322710  0.44192477  0.68826249  1
  Zn  Zn141  1  0.43278870  0.93521838  0.18871625  1
  Zn  Zn142  1  0.43911987  0.93805232  0.68712037  1
  Zn  Zn143  1  0.93647964  0.44049595  0.19039726  1
  Zn  Zn144  1  0.96113410  0.44310424  0.69729883  1
  Zn  Zn145  1  0.93453773  0.93260706  0.18970021  1
  Zn  Zn146  1  0.92322184  0.96825070  0.67105070  1
  Zn  Zn147  1  0.06788548  0.06583375  0.31204745  1
  Zn  Zn148  1  0.06834955  0.05983942  0.80952600  1
  Zn  Zn149  1  0.05740703  0.56502321  0.30699816  1
  Zn  Zn150  1  0.06085620  0.56627570  0.80732763  1
  Zn  Zn151  1  0.56876843  0.06174704  0.30842444  1
  Zn  Zn152  1  0.56926546  0.06390836  0.80787252  1
  Zn  Zn153  1  0.56458701  0.56026455  0.31364591  1
  Zn  Zn154  1  0.55964736  0.55490123  0.79527738  1
  Zn  Zn155  1  0.43352486  0.18967147  0.44246870  1
  Zn  Zn156  1  0.44244053  0.20365049  0.94389947  1
  Zn  Zn157  1  0.43755878  0.68883891  0.43909618  1
  Zn  Zn158  1  0.43618486  0.68816940  0.93438053  1
  Zn  Zn159  1  0.93337906  0.19010947  0.43778718  1
  Zn  Zn160  1  0.93930680  0.18735879  0.93837209  1
  Zn  Zn161  1  0.93785774  0.69135253  0.43232946  1
  Zn  Zn162  1  0.93581772  0.68721518  0.93831735  1
  Zn  Zn163  1  0.06328398  0.30924443  0.06589480  1
  Zn  Zn164  1  0.04931218  0.31473332  0.56581113  1
  Zn  Zn165  1  0.06141284  0.81112761  0.06048118  1
  Zn  Zn166  1  0.06302543  0.81641125  0.55354723  1
  Zn  Zn167  1  0.56497293  0.31085785  0.06632947  1
  Zn  Zn168  1  0.56604484  0.31001182  0.56469307  1
  Zn  Zn169  1  0.56120817  0.81271921  0.05788698  1
  Zn  Zn170  1  0.56478289  0.81066901  0.56485984  1
  O  O171  1  0.12029625  0.11686811  0.11612824  1
  O  O172  1  0.12000093  0.11232603  0.62905576  1
  O  O173  1  0.11741786  0.61486954  0.12396266  1
  O  O174  1  0.11991595  0.62076737  0.61900486  1
  O  O175  1  0.61453552  0.13404586  0.11681038  1
  O  O176  1  0.61452563  0.11349511  0.63042886  1
  O  O177  1  0.62254277  0.62402362  0.11049034  1
  O  O178  1  0.62496981  0.62624908  0.60824958  1
  O  O179  1  0.38732606  0.37508653  0.38478393  1
  O  O180  1  0.38798974  0.37336650  0.88208217  1
  O  O181  1  0.35926233  0.89831843  0.38799962  1
  O  O182  1  0.37910608  0.87180375  0.88846049  1
  O  O183  1  0.88435136  0.38465149  0.36779167  1
  O  O184  1  0.86948855  0.38769231  0.88939102  1
  O  O185  1  0.87435601  0.87125189  0.38126790  1
  O  O186  1  0.88069547  0.87963749  0.88117658  1
  O  O187  1  0.25361958  0.01490408  0.37049801  1
  O  O188  1  0.24522495  -0.00571240  0.86293490  1
  O  O189  1  0.25022037  0.50787106  0.36921424  1
  O  O190  1  0.24819911  0.50920788  0.86907348  1
  O  O191  1  0.74695013  0.01478829  0.37449652  1
  O  O192  1  0.75593344  0.00521356  0.87016491  1
  O  O193  1  0.76235630  0.49357155  0.37676513  1
  O  O194  1  0.76162921  0.51564461  0.88165143  1
  O  O195  1  0.24330398  0.49287292  0.13080212  1
  O  O196  1  0.23899932  0.50742629  0.63548211  1
  O  O197  1  0.24313786  0.99050665  0.13337978  1
  O  O198  1  0.24172456  0.99649028  0.63020348  1
  O  O199  1  0.75031350  0.48705542  0.12028806  1
  O  O200  1  0.74845315  0.50373094  0.62704668  1
  O  O201  1  0.75302331  0.98440124  0.11927622  1
  O  O202  1  0.74247507  0.99434630  0.63113657  1
  O  O203  1  0.00666109  0.37456706  0.25698290  1
  O  O204  1  0.01585099  0.36383552  0.75644103  1
  O  O205  1  -0.00228101  0.86890031  0.25314099  1
  O  O206  1  -0.00373791  0.88457712  0.75960709  1
  O  O207  1  0.50650397  0.36393958  0.25922639  1
  O  O208  1  0.50990068  0.36988661  0.76026012  1
  O  O209  1  0.51208736  0.87358148  0.24194479  1
  O  O210  1  0.50508463  0.86762650  0.75619140  1
  O  O211  1  0.50854843  0.13894606  0.24424508  1
  O  O212  1  0.50684233  0.13475699  0.74346498  1
  O  O213  1  0.49286797  0.62899565  0.24939960  1
  O  O214  1  0.48973744  0.64371636  0.76718626  1
  O  O215  1  0.99245138  0.12520227  0.24542349  1
  O  O216  1  1.00693280  0.13937995  0.75305209  1
  O  O217  1  0.99163076  0.63258401  0.23662826  1
  O  O218  1  0.98315489  0.62137528  0.74011897  1
  O  O219  1  0.37000719  0.25975301  0.01116965  1
  O  O220  1  0.38022535  0.26763908  0.50768404  1
  O  O221  1  0.36170645  0.75248909  0.00379737  1
  O  O222  1  0.37197132  0.75716072  0.51416721  1
  O  O223  1  0.87171848  0.25522728  0.01115492  1
  O  O224  1  0.86332064  0.25593170  0.50318344  1
  O  O225  1  0.86526151  0.74855553  0.00966736  1
  O  O226  1  0.86696448  0.75636820  0.50220552  1
  O  O227  1  0.12076847  0.26496788  0.49705392  1
  O  O228  1  0.13049211  0.24127831  0.99761082  1
  O  O229  1  0.13051556  0.74217176  0.48979962  1
  O  O230  1  0.13334462  0.74843885  0.98995649  1
  O  O231  1  0.63435381  0.25335250  0.48927080  1
  O  O232  1  0.62950002  0.24360858  0.99509710  1
  O  O233  1  0.63709882  0.74950586  0.49939781  1
  O  O234  1  0.63113615  0.74086300  0.99815980  1
  O  O235  1  0.49322623  0.24640582  0.13419701  1
  O  O236  1  0.50440248  0.23774977  0.63378965  1
  O  O237  1  0.48430885  0.74689452  0.11592825  1
  O  O238  1  0.49224737  0.74872527  0.63552006  1
  O  O239  1  0.99251043  0.24125209  0.12844981  1
  O  O240  1  0.99682932  0.24947942  0.64447783  1
  O  O241  1  0.98971816  0.74538141  0.12292465  1
  O  O242  1  0.98776138  0.74876536  0.61483482  1
  O  O243  1  -0.00147436  0.26125741  0.37322866  1
  O  O244  1  0.01552151  0.24410095  0.87240067  1
  O  O245  1  0.01944887  0.74975130  0.37324131  1
  O  O246  1  0.00620315  0.75895548  0.87957859  1
  O  O247  1  0.50671188  0.25404676  0.37207667  1
  O  O248  1  0.50917777  0.25810028  0.87037521  1
  O  O249  1  0.44755460  0.76746423  0.36246528  1
  O  O250  1  0.49595681  0.76461870  0.86967552  1
  O  O251  1  0.25045837  0.12957973  0.49688715  1
  O  O252  1  0.24313349  0.12807242  1.00055204  1
  O  O253  1  0.24539892  0.62427882  0.49146903  1
  O  O254  1  0.24480404  0.63097738  0.99165466  1
  O  O255  1  0.75800972  0.13293225  0.48819288  1
  O  O256  1  0.74343473  0.13148933  0.99946549  1
  O  O257  1  0.73864612  0.64192900  0.49566914  1
  O  O258  1  0.74179463  0.63166017  0.99256124  1
  O  O259  1  0.25607385  0.36917869  0.00710502  1
  O  O260  1  0.26373477  0.37482942  0.49914588  1
  O  O261  1  0.25454273  0.86601463  0.00609719  1
  O  O262  1  0.26110903  0.87662122  0.51296762  1
  O  O263  1  0.75613133  0.36846386  0.00974130  1
  O  O264  1  0.75271498  0.35988448  0.50008113  1
  O  O265  1  0.74751012  0.86796825  0.00447900  1
  O  O266  1  0.75695391  0.86804809  0.50187935  1
  O  O267  1  0.12876406  0.48973394  0.24161743  1
  O  O268  1  0.12895567  0.49332232  0.74472998  1
  O  O269  1  0.13233937  1.00167683  0.23846333  1
  O  O270  1  0.13235633  0.99493493  0.73632357  1
  O  O271  1  0.61962615  0.48523923  0.24641038  1
  O  O272  1  0.64297734  0.48081581  0.76321521  1
  O  O273  1  0.62745779  0.98622536  0.24600077  1
  O  O274  1  0.63469475  0.99186368  0.74267329  1
  O  O275  1  0.36708510  -0.00297334  0.26401408  1
  O  O276  1  0.35771044  -0.00843054  0.74765304  1
  O  O277  1  0.37093355  0.50936569  0.24921147  1
  O  O278  1  0.36478435  0.50437278  0.75399707  1
  O  O279  1  0.86862533  0.01382271  0.24075498  1
  O  O280  1  0.86190698  -0.01279776  0.76807882  1
  O  O281  1  0.87585022  0.51565710  0.25441011  1
  O  O282  1  0.86539275  0.50206440  0.75220237  1
  O  O283  1  0.11203856  0.37959799  0.36761395  1
  O  O284  1  0.13131384  0.36231437  0.86904239  1
  O  O285  1  0.13493304  0.86033568  0.37945148  1
  O  O286  1  0.11386240  0.86692489  0.87102395  1
  O  O287  1  0.61599610  0.36896506  0.37214919  1
  O  O288  1  0.61806370  0.37001151  0.87595250  1
  O  O289  1  0.62214005  0.87800397  0.36104859  1
  O  O290  1  0.61647577  0.87865367  0.86241162  1
  O  O291  1  0.38297104  0.14057563  0.12035048  1
  O  O292  1  0.39222942  0.12477138  0.62795197  1
  O  O293  1  0.37680332  0.62804592  0.12978223  1
  O  O294  1  0.37793290  0.63363995  0.63089896  1
  O  O295  1  0.87973404  0.13227619  0.12878091  1
  O  O296  1  0.88703668  0.07829231  0.64339243  1
  O  O297  1  0.87826272  0.62972232  0.13108181  1
  O  O298  1  0.87672731  0.63637456  0.62914049  1
  O  O299  1  0.25691862  0.25473722  0.12255936  1
  O  O300  1  0.25778287  0.24915143  0.64266749  1
  O  O301  1  0.25163690  0.75291872  0.11591039  1
  O  O302  1  0.25765849  0.75837184  0.62622781  1
  O  O303  1  0.75783025  0.25664071  0.12236748  1
  O  O304  1  0.74440720  0.23966831  0.60919043  1
  O  O305  1  0.75425517  0.75967922  0.11213687  1
  O  O306  1  0.76150642  0.75771675  0.61512030  1
  O  O307  1  0.25231331  0.23437850  0.37331928  1
  O  O308  1  0.24416560  0.24152518  0.88246936  1
  O  O309  1  0.24530752  0.73786369  0.37528264  1
  O  O310  1  0.24171545  0.74476543  0.87961444  1
  O  O311  1  0.74406302  0.24247191  0.38326122  1
  O  O312  1  0.74693296  0.24413432  0.88403336  1
  O  O313  1  0.75262338  0.75608823  0.38527569  1
  O  O314  1  0.75680796  0.74055460  0.88607608  1
  O  O315  1  0.00643680  0.11273918  0.00529786  1
  O  O316  1  -0.00752560  0.11316248  0.50377905  1
  O  O317  1  -0.00043718  0.62879767  0.01486189  1
  O  O318  1  0.00469067  0.62227009  0.50366483  1
  O  O319  1  0.50565830  0.11887445  0.00502863  1
  O  O320  1  0.50125497  0.12493946  0.51513954  1
  O  O321  1  0.50527721  0.61707046  -0.00428079  1
  O  O322  1  0.51467318  0.63278265  0.49997142  1
  O  O323  1  0.49859060  0.37200174  0.48965364  1
  O  O324  1  0.49834538  0.38063621  0.99501226  1
  O  O325  1  0.48913996  0.87886599  0.50771729  1
  O  O326  1  0.49018767  0.87622304  0.99173135  1
  O  O327  1  0.98793289  0.38575481  0.49370675  1
  O  O328  1  0.98788383  0.37090777  1.00671721  1
  O  O329  1  0.99366738  0.88284733  0.48840500  1
  O  O330  1  1.00017044  0.88611941  0.99302114  1
  O  O331  1  0.49842777  0.48225413  0.36958240  1
  O  O332  1  0.49950259  0.49202940  0.88246008  1
  O  O333  1  0.48544563  1.01201960  0.37416539  1
  O  O334  1  0.50280632  0.99151812  0.87457069  1
  O  O335  1  0.99267684  0.49604879  0.37836839  1
  O  O336  1  0.98481374  0.50573155  0.86726060  1
  O  O337  1  1.01366122  1.00099349  0.38901565  1
  O  O338  1  0.99398614  0.99585343  0.87978455  1
  O  O339  1  0.00639320  0.00055229  0.11767369  1
  O  O340  1  0.01877367  -0.00956292  0.60966820  1
  O  O341  1  0.00878749  0.50744439  0.13034596  1
  O  O342  1  0.00970799  0.51099974  0.61854685  1
  O  O343  1  0.48790619  0.01699504  0.12961679  1
  O  O344  1  0.50741797  0.01038370  0.62788760  1
  O  O345  1  0.50172662  0.49957335  0.11172206  1
  O  O346  1  0.51884318  0.52193263  0.67090161  1
  O  O347  1  0.24402602  0.37894083  0.24914389  1
  O  O348  1  0.24162772  0.38768672  0.75787844  1
  O  O349  1  0.26011037  0.88037251  0.24036761  1
  O  O350  1  0.24637820  0.88189067  0.73948897  1
  O  O351  1  0.74089726  0.36796063  0.24218052  1
  O  O352  1  0.74882169  0.36910120  0.74543481  1
  O  O353  1  0.74062779  0.87788617  0.23509196  1
  O  O354  1  0.74288929  0.88107896  0.74634711  1
  O  O355  1  0.25206560  0.11281227  0.24342496  1
  O  O356  1  0.25031211  0.10650758  0.76152531  1
  O  O357  1  0.25460409  0.61488370  0.25625574  1
  O  O358  1  0.25293644  0.61676762  0.75651162  1
  O  O359  1  0.75516275  0.12427699  0.25848839  1
  O  O360  1  0.74302486  0.11500341  0.75708358  1
  O  O361  1  0.76082284  0.62819258  0.23975812  1
  O  O362  1  0.75996434  0.63237665  0.75686732  1
  O  O363  1  0.36241374  0.11572947  0.38218283  1
  O  O364  1  0.38702240  0.11238832  0.89956225  1
  O  O365  1  0.36573423  0.61904527  0.36809101  1
  O  O366  1  0.36012025  0.62606633  0.87001491  1
  O  O367  1  0.86178492  0.13204359  0.36536311  1
  O  O368  1  0.86663649  0.11542629  0.88308868  1
  O  O369  1  0.87746483  0.62173866  0.35831637  1
  O  O370  1  0.86992720  0.62167053  0.86596106  1
  O  O371  1  0.12981852  0.37931524  0.13234745  1
  O  O372  1  0.11818396  0.38828659  0.63457388  1
  O  O373  1  0.13473481  0.88150234  0.11854901  1
  O  O374  1  0.13463259  0.87821557  0.62276342  1
  O  O375  1  0.63460418  0.37350789  0.13447133  1
  O  O376  1  0.61966257  0.38257553  0.63535672  1
  O  O377  1  0.63517161  0.87373136  0.12168426  1
  O  O378  1  0.62949961  0.88105378  0.63597524  1
  O  O379  1  0.12331251  0.26362761  0.25227169  1
  O  O380  1  0.12260302  0.25520006  0.76045722  1
  O  O381  1  0.12869399  0.74429892  0.26347839  1
  O  O382  1  0.12668155  0.75198263  0.76076234  1
  O  O383  1  0.61943350  0.25992832  0.26210697  1
  O  O384  1  0.62035279  0.26019401  0.75906341  1
  O  O385  1  0.62313177  0.76750878  0.24424349  1
  O  O386  1  0.61721153  0.75819885  0.74350429  1
  O  O387  1  0.38534911  0.25544134  0.24405297  1
  O  O388  1  0.39307394  0.25677214  0.75283404  1
  O  O389  1  0.35889075  0.73165465  0.23318139  1
  O  O390  1  0.37932636  0.74996850  0.74142277  1
  O  O391  1  0.87443183  0.24128679  0.23894556  1
  O  O392  1  0.89349662  0.25196421  0.76573083  1
  O  O393  1  0.87180447  0.74089952  0.23706299  1
  O  O394  1  0.87225336  0.74553975  0.73770909  1
  O  O395  1  0.37750891  0.48503252  0.50121624  1
  O  O396  1  0.38260017  0.49479028  0.99688424  1
  O  O397  1  0.38043519  0.99636636  0.49314406  1
  O  O398  1  0.37124247  0.98903549  1.00886464  1
  O  O399  1  0.87797481  0.50378790  0.49023309  1
  O  O400  1  0.87623102  0.49338519  0.99408351  1
  O  O401  1  0.89164285  0.99038228  0.49792294  1
  O  O402  1  0.88350661  0.99765860  0.99129439  1
  O  O403  1  0.12048165  0.00349637  0.00767802  1
  O  O404  1  0.12000648  -0.00143561  0.51029492  1
  O  O405  1  0.12849802  0.49815108  0.01310259  1
  O  O406  1  0.12009537  0.50549584  0.50694022  1
  O  O407  1  0.62755505  0.01247815  -0.00186844  1
  O  O408  1  0.62398117  -0.00884956  0.51359825  1
  O  O409  1  0.61769546  0.50644421  0.00188046  1
  O  O410  1  0.62989678  0.51676627  0.49743088  1
  O  O411  1  0.37117522  0.36734054  0.12343947  1
  O  O412  1  0.38475111  0.37621532  0.61568789  1
  O  O413  1  0.36719545  0.86445663  0.11634446  1
  O  O414  1  0.36955189  0.87005524  0.62037299  1
  O  O415  1  0.86983656  0.36886969  0.12382257  1
  O  O416  1  0.86938534  0.39467124  0.63619726  1
  O  O417  1  0.86345803  0.86666438  0.12091163  1
  O  O418  1  0.87035121  0.87296580  0.61407965  1
  O  O419  1  0.14363434  0.12880032  0.37150394  1
  O  O420  1  0.12616044  0.12600029  0.88942676  1
  O  O421  1  0.13192046  0.62815445  0.37837632  1
  O  O422  1  0.13082083  0.63086366  0.87459634  1
  O  O423  1  0.63925297  0.13295198  0.37109446  1
  O  O424  1  0.63245888  0.13019814  0.88398510  1
  O  O425  1  0.61960458  0.63072130  0.38437151  1
  O  O426  1  0.63215460  0.61709990  0.88201229  1
