# generated using pymatgen
data_V85Zn86O256
_symmetry_space_group_name_H-M   'P 1'
_cell_length_a   16.96204415
_cell_length_b   16.94137503
_cell_length_c   16.95954431
_cell_angle_alpha   89.98810549
_cell_angle_beta   89.91239304
_cell_angle_gamma   90.11469620
_symmetry_Int_Tables_number   1
_chemical_formula_structural   V85Zn86O256
_chemical_formula_sum   'V85 Zn86 O256'
_cell_volume   4873.48504155
_cell_formula_units_Z   1
loop_
 _symmetry_equiv_pos_site_id
 _symmetry_equiv_pos_as_xyz
  1  'x, y, z'
loop_
 _atom_site_type_symbol
 _atom_site_label
 _atom_site_symmetry_multiplicity
 _atom_site_fract_x
 _atom_site_fract_y
 _atom_site_fract_z
 _atom_site_occupancy
  V  V0  1  0.36689589  0.11303299  0.25022390  1
  V  V1  1  0.74902702  0.37741397  0.62892366  1
  V  V2  1  -0.00276879  0.74158398  0.75388022  1
  V  V3  1  0.50080847  0.86960958  0.36875311  1
  V  V4  1  0.89142985  0.49947168  0.90084248  1
  V  V5  1  0.12123183  0.87256233  0.75458906  1
  V  V6  1  0.50709564  0.75756860  0.74360263  1
  V  V7  1  0.12529562  0.00308815  0.62389148  1
  V  V8  1  0.24979428  -0.00060374  0.75268893  1
  V  V9  1  0.87387055  0.87584948  0.50163090  1
  V  V10  1  0.38588812  0.74922553  0.12810892  1
  V  V11  1  0.24914057  0.50288456  0.23971703  1
  V  V12  1  0.62630648  0.62438670  0.49390106  1
  V  V13  1  0.62353759  0.25819337  0.87148180  1
  V  V14  1  0.75545488  0.25918372  0.00065375  1
  V  V15  1  0.25144243  0.37529416  0.11978481  1
  V  V16  1  0.63140573  0.74642452  0.86941029  1
  V  V17  1  0.49979871  0.11951270  0.12562957  1
  V  V18  1  0.23574123  0.24024077  0.00280053  1
  V  V19  1  0.00623629  0.13137957  0.62314358  1
  V  V20  1  0.75361906  0.73626740  -0.00810859  1
  V  V21  1  0.37557077  0.49928345  0.37362019  1
  V  V22  1  0.49890878  0.24433619  0.25126770  1
  V  V23  1  0.00171453  0.00368732  0.50368418  1
  V  V24  1  0.26307294  0.62317288  0.86663594  1
  V  V25  1  0.62579780  0.86924327  0.24285806  1
  V  V26  1  0.12724785  0.37007035  0.24583779  1
  V  V27  1  0.49226075  0.25701386  0.74855716  1
  V  V28  1  0.50156187  -0.00184441  -0.00193084  1
  V  V29  1  0.87318285  0.74637383  0.62912903  1
  V  V30  1  -0.01009487  0.24533055  0.25241598  1
  V  V31  1  0.62766022  0.37248043  0.24495997  1
  V  V32  1  0.12770646  0.88232838  0.25099783  1
  V  V33  1  0.39240177  0.49251261  0.87234924  1
  V  V34  1  0.62475834  0.23991353  0.37714418  1
  V  V35  1  0.49408490  0.62341755  0.62703193  1
  V  V36  1  0.36421071  0.36572788  0.49991420  1
  V  V37  1  0.74958425  0.12684384  0.87563550  1
  V  V38  1  0.12408845  0.62215845  0.49795961  1
  V  V39  1  0.50519349  0.12547005  0.62091515  1
  V  V40  1  0.24391911  0.11725146  0.37900978  1
  V  V41  1  0.12690329  0.24868769  0.38315341  1
  V  V42  1  0.87358945  0.25295136  0.62550656  1
  V  V43  1  0.49893279  0.37113713  0.37494035  1
  V  V44  1  0.12744554  0.00855503  0.12161031  1
  V  V45  1  -0.00190097  0.62093560  0.62704659  1
  V  V46  1  0.75122360  0.74502072  0.49315160  1
  V  V47  1  0.62736625  -0.00464238  0.12234212  1
  V  V48  1  0.50588224  0.87832901  0.86612951  1
  V  V49  1  0.87643530  0.01023492  0.37217232  1
  V  V50  1  0.12477415  0.75172409  0.37473754  1
  V  V51  1  0.87576173  0.74690015  0.11815022  1
  V  V52  1  0.23481651  0.12171311  0.88286804  1
  V  V53  1  0.74652208  0.24355097  0.50017271  1
  V  V54  1  0.75542478  0.87464850  0.11077321  1
  V  V55  1  -0.00088570  0.87761800  0.37587102  1
  V  V56  1  -0.00400036  0.74961546  0.24875501  1
  V  V57  1  0.37528289  0.87463176  0.49813015  1
  V  V58  1  0.37568263  0.24786831  0.12256497  1
  V  V59  1  0.37550776  0.00662559  0.87569344  1
  V  V60  1  0.87608493  0.12608674  0.75012395  1
  V  V61  1  0.02657009  0.49582356  0.01580560  1
  V  V62  1  0.24827334  0.87403772  0.62551313  1
  V  V63  1  0.87198720  0.38412814  0.49257289  1
  V  V64  1  0.86650581  0.62352190  0.26599902  1
  V  V65  1  0.87562813  -0.00841059  0.87844862  1
  V  V66  1  0.62731788  0.74559811  0.36939550  1
  V  V67  1  0.75568629  0.00426291  0.24779480  1
  V  V68  1  0.24713000  0.74341582  0.00398184  1
  V  V69  1  0.51102754  0.00200154  0.49557638  1
  V  V70  1  0.25224142  0.62620490  0.37284862  1
  V  V71  1  0.62344833  0.49964286  0.62471582  1
  V  V72  1  0.12440834  0.73897884  0.88128593  1
  V  V73  1  0.00091048  -0.00247521  -0.00030387  1
  V  V74  1  0.75598857  0.51977906  0.75761815  1
  V  V75  1  0.24851230  0.87920754  0.12631061  1
  V  V76  1  0.74990729  0.50313234  0.26140441  1
  V  V77  1  0.38768143  0.62841920  0.24607203  1
  V  V78  1  0.74319861  -0.00590105  0.74869407  1
  V  V79  1  -0.00951737  0.12372961  0.12615467  1
  V  V80  1  0.37294361  0.74778314  0.63078234  1
  V  V81  1  0.00244810  0.26035649  0.76748319  1
  V  V82  1  0.49780806  0.49802622  0.49990533  1
  V  V83  1  -0.00139766  0.38796653  0.36993650  1
  V  V84  1  0.61524531  0.51009693  0.12201412  1
  Zn  Zn85  1  0.62445146  -0.00248098  0.62379172  1
  Zn  Zn86  1  0.75947204  0.38800618  0.11852929  1
  Zn  Zn87  1  0.01851384  0.62612085  0.11984819  1
  Zn  Zn88  1  0.39810000  0.39055042  0.00279005  1
  Zn  Zn89  1  -0.00479585  0.86525671  0.88595991  1
  Zn  Zn90  1  0.25332408  0.49952176  0.74328186  1
  Zn  Zn91  1  0.62526008  0.12501556  -0.00149286  1
  Zn  Zn92  1  0.37356216  0.87392645  -0.00238001  1
  Zn  Zn93  1  0.37489201  0.12564336  0.74922149  1
  Zn  Zn94  1  0.61127035  0.61611154  -0.00744631  1
  Zn  Zn95  1  0.87445888  0.25149484  0.12333985  1
  Zn  Zn96  1  0.23878584  0.36965292  0.62230103  1
  Zn  Zn97  1  0.36486191  0.24451275  0.62248547  1
  Zn  Zn98  1  0.74051073  0.87047135  0.62800785  1
  Zn  Zn99  1  0.75033952  0.12492642  0.37354520  1
  Zn  Zn100  1  0.24997984  0.74960081  0.50077188  1
  Zn  Zn101  1  -0.00645964  0.50526663  0.49240939  1
  Zn  Zn102  1  0.37028145  -0.00540242  0.37022427  1
  Zn  Zn103  1  0.18938846  0.18908916  0.54518510  1
  Zn  Zn104  1  0.12632522  0.49877094  0.63004012  1
  Zn  Zn105  1  0.61968821  0.38064780  0.75401350  1
  Zn  Zn106  1  0.12827695  0.38142039  0.75764875  1
  Zn  Zn107  1  0.18612298  0.18696557  0.19334718  1
  Zn  Zn108  1  0.18905694  0.19325744  0.70771125  1
  Zn  Zn109  1  0.19032944  0.69165932  0.18826494  1
  Zn  Zn110  1  0.18473957  0.68493509  0.68874415  1
  Zn  Zn111  1  0.68725256  0.18402348  0.18534165  1
  Zn  Zn112  1  0.68302525  0.18551412  0.68754930  1
  Zn  Zn113  1  0.69054525  0.68693418  0.18349076  1
  Zn  Zn114  1  0.68287100  0.68948021  0.68114043  1
  Zn  Zn115  1  0.31002902  0.30513231  0.31281416  1
  Zn  Zn116  1  0.27523399  0.33282039  0.83688282  1
  Zn  Zn117  1  0.31127855  0.81239962  0.30873286  1
  Zn  Zn118  1  0.31535307  0.81375420  0.81411759  1
  Zn  Zn119  1  0.81238527  0.31556398  0.31008827  1
  Zn  Zn120  1  0.81594744  0.31947591  0.81466880  1
  Zn  Zn121  1  0.81155259  0.81810517  0.30986322  1
  Zn  Zn122  1  0.81440903  0.81036138  0.81099064  1
  Zn  Zn123  1  0.18483739  0.44111139  0.43326114  1
  Zn  Zn124  1  0.18287405  0.44009390  0.93833107  1
  Zn  Zn125  1  0.18755804  0.94092922  0.43972266  1
  Zn  Zn126  1  0.18513017  0.93280073  0.94099682  1
  Zn  Zn127  1  0.68428217  0.43080469  0.43683637  1
  Zn  Zn128  1  0.68653375  0.44094526  0.93647217  1
  Zn  Zn129  1  0.68995166  0.93260086  0.43484090  1
  Zn  Zn130  1  0.68505166  0.93343902  0.93328729  1
  Zn  Zn131  1  0.31320370  0.06192973  0.06054176  1
  Zn  Zn132  1  0.32083090  0.05791316  0.56293175  1
  Zn  Zn133  1  0.31888538  0.56523050  0.05687096  1
  Zn  Zn134  1  0.31079294  0.56018962  0.56096444  1
  Zn  Zn135  1  0.81463622  0.06406434  0.05911830  1
  Zn  Zn136  1  0.81422242  0.06429744  0.56439355  1
  Zn  Zn137  1  0.80900417  0.56556767  0.07123879  1
  Zn  Zn138  1  0.81080244  0.56478507  0.56310352  1
  Zn  Zn139  1  0.43701772  0.43488378  0.18939006  1
  Zn  Zn140  1  0.42403340  0.43546035  0.69100453  1
  Zn  Zn141  1  0.43867329  0.93162517  0.18591119  1
  Zn  Zn142  1  0.43746177  0.94004004  0.68434242  1
  Zn  Zn143  1  0.93568960  0.43807788  0.18123504  1
  Zn  Zn144  1  0.93451151  0.43787021  0.69122442  1
  Zn  Zn145  1  0.93641492  0.93506946  0.18527777  1
  Zn  Zn146  1  0.93626003  0.93550744  0.69041960  1
  Zn  Zn147  1  0.06283415  0.06406817  0.31104992  1
  Zn  Zn148  1  0.05796721  0.06196600  0.81064848  1
  Zn  Zn149  1  0.07412438  0.57156486  0.28408441  1
  Zn  Zn150  1  0.06255524  0.55770650  0.81954382  1
  Zn  Zn151  1  0.56255115  0.05661012  0.31022572  1
  Zn  Zn152  1  0.56187217  0.07185248  0.81067591  1
  Zn  Zn153  1  0.56493645  0.55952401  0.31067797  1
  Zn  Zn154  1  0.56228639  0.56715363  0.80510013  1
  Zn  Zn155  1  0.43412531  0.18245022  0.43591271  1
  Zn  Zn156  1  0.45088520  0.21511959  0.95062090  1
  Zn  Zn157  1  0.43915749  0.68953484  0.43836295  1
  Zn  Zn158  1  0.43880043  0.68778818  0.93704225  1
  Zn  Zn159  1  0.93869568  0.19372773  0.44021656  1
  Zn  Zn160  1  0.93758313  0.17903568  0.94220626  1
  Zn  Zn161  1  0.93839817  0.68860367  0.43776395  1
  Zn  Zn162  1  0.93682022  0.67077335  0.93960169  1
  Zn  Zn163  1  0.05885596  0.31442005  0.06450806  1
  Zn  Zn164  1  0.05513985  0.32112933  0.56430450  1
  Zn  Zn165  1  0.06204040  0.81549151  0.06285147  1
  Zn  Zn166  1  0.06177262  0.81048732  0.56430806  1
  Zn  Zn167  1  0.56861636  0.31157954  0.06278011  1
  Zn  Zn168  1  0.56002909  0.31189596  0.56178515  1
  Zn  Zn169  1  0.55029938  0.78464020  0.04369866  1
  Zn  Zn170  1  0.56492335  0.81669266  0.55982902  1
  O  O171  1  0.11992488  0.11089457  0.13413676  1
  O  O172  1  0.11995693  0.12380939  0.62643111  1
  O  O173  1  0.11362263  0.61472729  0.18105407  1
  O  O174  1  0.11593900  0.62719202  0.61379961  1
  O  O175  1  0.61709640  0.11343407  0.12373113  1
  O  O176  1  0.61165026  0.11793631  0.62548947  1
  O  O177  1  0.62114453  0.61201196  0.13050223  1
  O  O178  1  0.61706181  0.61548469  0.61470163  1
  O  O179  1  0.37842373  0.37606899  0.38112025  1
  O  O180  1  0.37123105  0.39072501  0.87952651  1
  O  O181  1  0.38185766  0.87204197  0.37875206  1
  O  O182  1  0.38600138  0.88505514  0.87531581  1
  O  O183  1  0.88498674  0.37182058  0.38107821  1
  O  O184  1  0.86841305  0.40550926  0.86375260  1
  O  O185  1  0.88038517  0.88359716  0.38348485  1
  O  O186  1  0.87915793  0.88793790  0.86772290  1
  O  O187  1  0.24918860  0.01165280  0.37308762  1
  O  O188  1  0.25651709  0.00239073  0.87508317  1
  O  O189  1  0.25688349  0.51059171  0.36841245  1
  O  O190  1  0.25410426  0.52039861  0.87906314  1
  O  O191  1  0.75874684  0.00005416  0.36765065  1
  O  O192  1  0.75602720  0.00564364  0.86663604  1
  O  O193  1  0.73775966  0.49872494  0.36147816  1
  O  O194  1  0.74260752  0.50240993  0.85814733  1
  O  O195  1  0.26249392  0.49099287  0.13171423  1
  O  O196  1  0.24574920  0.49730105  0.62382986  1
  O  O197  1  0.24227952  0.98817917  0.11823323  1
  O  O198  1  0.24491706  0.99440982  0.63093614  1
  O  O199  1  0.73672178  0.50151913  0.13850020  1
  O  O200  1  0.73920420  0.49545869  0.62617348  1
  O  O201  1  0.74973043  0.99385052  0.12840188  1
  O  O202  1  0.75178590  1.00364549  0.63984474  1
  O  O203  1  0.00998111  0.36712408  0.25363446  1
  O  O204  1  -0.00409349  0.36297867  0.75192468  1
  O  O205  1  0.00297611  0.86610223  0.25500959  1
  O  O206  1  0.00852762  0.86334586  0.75099620  1
  O  O207  1  0.50526379  0.36433752  0.25572717  1
  O  O208  1  0.50144377  0.36040921  0.73984296  1
  O  O209  1  0.51211793  0.88059757  0.25836839  1
  O  O210  1  0.49670010  0.86957903  0.75314877  1
  O  O211  1  0.49194103  0.12618481  0.24672028  1
  O  O212  1  0.49675875  0.13097433  0.73774445  1
  O  O213  1  0.48624569  0.62197302  0.25637724  1
  O  O214  1  0.50300587  0.63681279  0.73225044  1
  O  O215  1  1.00561265  0.13419572  0.24142860  1
  O  O216  1  0.99238391  0.13152121  0.74185155  1
  O  O217  1  0.98166280  0.64125580  0.25804601  1
  O  O218  1  1.00669044  0.63531403  0.74317615  1
  O  O219  1  0.35955860  0.23106756  0.02071689  1
  O  O220  1  0.37742564  0.26289894  0.49734701  1
  O  O221  1  0.36673203  0.75451998  0.01413524  1
  O  O222  1  0.37579418  0.76115259  0.50833829  1
  O  O223  1  0.85881870  0.24405138  -0.00241863  1
  O  O224  1  0.86712800  0.26194604  0.50507576  1
  O  O225  1  0.86838850  0.74273148  0.00511384  1
  O  O226  1  0.86901032  0.75691870  0.50405316  1
  O  O227  1  0.11331664  0.25138792  0.48791485  1
  O  O228  1  0.13742405  0.24778768  1.01001295  1
  O  O229  1  0.12479197  0.74080102  0.49239561  1
  O  O230  1  0.13233635  0.75581164  0.99244182  1
  O  O231  1  0.63359570  0.25761069  0.48884777  1
  O  O232  1  0.63861706  0.24375723  0.98966582  1
  O  O233  1  0.63288525  0.74631138  0.49013216  1
  O  O234  1  0.64444540  0.76540165  0.98270941  1
  O  O235  1  0.49380655  0.23829760  0.13412993  1
  O  O236  1  0.50097249  0.24207846  0.63265680  1
  O  O237  1  0.48206883  0.77075507  0.13602784  1
  O  O238  1  0.49449727  0.74520633  0.62575755  1
  O  O239  1  1.00054755  0.24023865  0.13370976  1
  O  O240  1  0.99071926  0.24435573  0.62979431  1
  O  O241  1  0.99415886  0.74901455  0.13252909  1
  O  O242  1  0.99413863  0.74140430  0.63233943  1
  O  O243  1  0.00726438  0.25493342  0.36842016  1
  O  O244  1  -0.01098287  0.24589244  0.86491855  1
  O  O245  1  0.00377140  0.75880442  0.36913620  1
  O  O246  1  0.00575423  0.74553832  0.87082524  1
  O  O247  1  0.50572270  0.25052666  0.37052917  1
  O  O248  1  0.51075990  0.23683863  0.85451142  1
  O  O249  1  0.50928356  0.76217328  0.37916029  1
  O  O250  1  0.50338385  0.76089840  0.85988040  1
  O  O251  1  0.25549729  0.11808317  0.48577999  1
  O  O252  1  0.24367815  0.12970463  0.99902384  1
  O  O253  1  0.24284373  0.62779444  0.48917221  1
  O  O254  1  0.25377177  0.63921319  0.99219131  1
  O  O255  1  0.75563759  0.13960643  0.49922787  1
  O  O256  1  0.74965719  0.12712428  0.98507467  1
  O  O257  1  0.74319187  0.63751699  0.50195268  1
  O  O258  1  0.73865066  0.63586976  1.00436233  1
  O  O259  1  0.25524524  0.36051354  0.01388540  1
  O  O260  1  0.26197368  0.37803793  0.49476630  1
  O  O261  1  0.25157634  0.86431080  0.00838282  1
  O  O262  1  0.25758328  0.87242880  0.50439969  1
  O  O263  1  0.74585373  0.36212282  0.00109241  1
  O  O264  1  0.75379113  0.36784442  0.50768442  1
  O  O265  1  0.75378441  0.87670761  0.00875771  1
  O  O266  1  0.76154529  0.86682390  0.50110019  1
  O  O267  1  0.14521861  0.48106437  0.26276027  1
  O  O268  1  0.12924103  0.50135429  0.74961850  1
  O  O269  1  0.11669847  0.98733083  0.24248990  1
  O  O270  1  0.12773551  0.99062451  0.74507693  1
  O  O271  1  0.62863733  0.49080632  0.24369031  1
  O  O272  1  0.63156115  0.49965685  0.73913598  1
  O  O273  1  0.63287717  0.98850400  0.24342384  1
  O  O274  1  0.64199092  1.00659887  0.75364851  1
  O  O275  1  0.37910303  0.00927928  0.25039896  1
  O  O276  1  0.36622699  -0.00122551  0.75760220  1
  O  O277  1  0.36809170  0.50490047  0.25504432  1
  O  O278  1  0.37248083  0.50409896  0.76584928  1
  O  O279  1  0.86842031  -0.00706421  0.26035922  1
  O  O280  1  0.86953817  0.00907828  0.75529054  1
  O  O281  1  0.86681660  0.51679598  0.24859250  1
  O  O282  1  0.85418514  0.50424668  0.73696692  1
  O  O283  1  0.12000410  0.36576709  0.36971567  1
  O  O284  1  0.16434857  0.36178317  0.86632432  1
  O  O285  1  0.12002952  0.87305293  0.36973073  1
  O  O286  1  0.12225816  0.86515277  0.86643920  1
  O  O287  1  0.61789912  0.36394202  0.36383653  1
  O  O288  1  0.62867369  0.36243153  0.87227808  1
  O  O289  1  0.61975380  0.86614065  0.36632275  1
  O  O290  1  0.61229095  0.86932117  0.87035690  1
  O  O291  1  0.37925555  0.12510731  0.13418013  1
  O  O292  1  0.38667430  0.12633941  0.62640461  1
  O  O293  1  0.37338686  0.63990953  0.13096052  1
  O  O294  1  0.38293893  0.63648876  0.61297809  1
  O  O295  1  0.88657472  0.12708110  0.12550738  1
  O  O296  1  0.88013762  0.13104255  0.63593771  1
  O  O297  1  0.87289011  0.63989080  0.13781135  1
  O  O298  1  0.88307156  0.63913020  0.61663694  1
  O  O299  1  0.25492320  0.25240606  0.12267661  1
  O  O300  1  0.24789495  0.24649465  0.62397099  1
  O  O301  1  0.25180455  0.75896630  0.12032184  1
  O  O302  1  0.25681306  0.75450320  0.62444066  1
  O  O303  1  0.74827255  0.24258262  0.10701446  1
  O  O304  1  0.75176967  0.25658850  0.61909986  1
  O  O305  1  0.75591990  0.75646463  0.11301966  1
  O  O306  1  0.75806456  0.75126630  0.61686612  1
  O  O307  1  0.23842204  0.23707359  0.37456947  1
  O  O308  1  0.26119680  0.23339612  0.89742630  1
  O  O309  1  0.24535153  0.73988601  0.37410864  1
  O  O310  1  0.24683365  0.74510432  0.88257720  1
  O  O311  1  0.74273711  0.24856890  0.38132051  1
  O  O312  1  0.74715706  0.24525354  0.87943102  1
  O  O313  1  0.74075285  0.75862070  0.38260126  1
  O  O314  1  0.74408254  0.75409595  0.87796114  1
  O  O315  1  0.00052680  0.11274658  0.01180005  1
  O  O316  1  -0.00823016  0.12102866  0.51641712  1
  O  O317  1  0.00242363  0.60772865  0.00805915  1
  O  O318  1  0.00611193  0.62485522  0.50557251  1
  O  O319  1  0.50113406  0.11309559  0.00448359  1
  O  O320  1  0.49387026  0.11303796  0.50454183  1
  O  O321  1  0.51704696  0.67525767  0.01197079  1
  O  O322  1  0.50565979  0.61920871  0.50652684  1
  O  O323  1  0.49217695  0.37959228  0.49243901  1
  O  O324  1  0.48507653  0.32145625  0.99270388  1
  O  O325  1  0.49290053  0.88057456  0.49043120  1
  O  O326  1  0.49942797  0.88499969  0.98937109  1
  O  O327  1  0.98928831  0.38157798  0.48863819  1
  O  O328  1  1.00623345  0.39447237  1.00808537  1
  O  O329  1  0.99012740  0.87895016  0.49767135  1
  O  O330  1  0.99991673  0.88951767  1.00115439  1
  O  O331  1  0.49460258  0.49186651  0.37834432  1
  O  O332  1  0.49219087  0.50297528  0.86922721  1
  O  O333  1  0.49732250  0.98858615  0.37961730  1
  O  O334  1  0.49643991  0.99762850  0.87789525  1
  O  O335  1  1.00911081  0.48912788  0.36545358  1
  O  O336  1  0.99992644  0.50025622  0.89775168  1
  O  O337  1  0.99495176  0.99695840  0.38165615  1
  O  O338  1  0.99230035  0.99966395  0.88224286  1
  O  O339  1  0.00462664  0.00483756  0.12064439  1
  O  O340  1  0.00480360  0.00941397  0.62548650  1
  O  O341  1  0.00220496  0.50537234  0.11984451  1
  O  O342  1  -0.00436175  0.51442721  0.62405300  1
  O  O343  1  0.50507521  -0.00110965  0.11547951  1
  O  O344  1  0.49947808  0.00621001  0.61277282  1
  O  O345  1  0.51648496  0.49133748  0.13034082  1
  O  O346  1  0.50227965  0.50633054  0.62222442  1
  O  O347  1  0.24908423  0.37682526  0.24051779  1
  O  O348  1  0.25588560  0.37957168  0.73673135  1
  O  O349  1  0.23871428  0.87190124  0.24112428  1
  O  O350  1  0.24042966  0.87834201  0.74716291  1
  O  O351  1  0.73983677  0.38279682  0.25212745  1
  O  O352  1  0.74562103  0.37581125  0.73437694  1
  O  O353  1  0.74393309  0.88463224  0.24040404  1
  O  O354  1  0.75690760  0.89150247  0.74801376  1
  O  O355  1  0.25721229  0.12601832  0.26183366  1
  O  O356  1  0.25396471  0.11718621  0.76413761  1
  O  O357  1  0.26162509  0.61696465  0.25621605  1
  O  O358  1  0.25200834  0.63063988  0.76450258  1
  O  O359  1  0.74645547  0.10857735  0.25028934  1
  O  O360  1  0.75766981  0.12061915  0.75804621  1
  O  O361  1  0.75911016  0.62145454  0.25068750  1
  O  O362  1  0.74460100  0.61805925  0.74443582  1
  O  O363  1  0.36246630  0.12230400  0.36704896  1
  O  O364  1  0.37207188  0.11052489  0.87682809  1
  O  O365  1  0.36871090  0.62332913  0.37055432  1
  O  O366  1  0.36706967  0.62561827  0.87515697  1
  O  O367  1  0.87555842  0.11291049  0.38128186  1
  O  O368  1  0.86958113  0.11646496  0.86470826  1
  O  O369  1  0.86963470  0.63252614  0.36498274  1
  O  O370  1  0.87790037  0.59748299  0.87318482  1
  O  O371  1  0.13641048  0.36781837  0.13815860  1
  O  O372  1  0.12084653  0.38045934  0.63085833  1
  O  O373  1  0.13013050  0.88228349  0.13325374  1
  O  O374  1  0.12959669  0.87726171  0.63463506  1
  O  O375  1  0.62973381  0.37564297  0.13607942  1
  O  O376  1  0.62948139  0.38765157  0.62088308  1
  O  O377  1  0.63524030  0.87729542  0.12951705  1
  O  O378  1  0.62865830  0.88354289  0.61986400  1
  O  O379  1  0.11902598  0.25625598  0.26112666  1
  O  O380  1  0.10369920  0.24991140  0.75461751  1
  O  O381  1  0.11492960  0.76390606  0.25697925  1
  O  O382  1  0.11796847  0.75567136  0.75751606  1
  O  O383  1  0.62189207  0.25470269  0.25427893  1
  O  O384  1  0.61761110  0.25314647  0.75456298  1
  O  O385  1  0.63415252  0.76081754  0.25415345  1
  O  O386  1  0.61495646  0.75183160  0.75069825  1
  O  O387  1  0.37769833  0.23828648  0.24153495  1
  O  O388  1  0.38948894  0.24790105  0.74761799  1
  O  O389  1  0.36746901  0.74175324  0.23703823  1
  O  O390  1  0.38473924  0.75750898  0.73540213  1
  O  O391  1  0.88789607  0.24583559  0.25678520  1
  O  O392  1  0.87910008  0.24360890  0.74609973  1
  O  O393  1  0.87836221  0.74623335  0.24602793  1
  O  O394  1  0.88487610  0.75284036  0.74118702  1
  O  O395  1  0.38065799  0.49107530  0.49120546  1
  O  O396  1  0.37927151  0.50352113  0.98344362  1
  O  O397  1  0.38254538  0.98518833  0.49517646  1
  O  O398  1  0.38372693  0.99570569  0.99366680  1
  O  O399  1  0.87189429  0.48865050  0.50126819  1
  O  O400  1  0.86966243  0.49885576  1.00099847  1
  O  O401  1  0.87948778  0.99245872  0.49610251  1
  O  O402  1  0.88286397  1.00502367  0.98795453  1
  O  O403  1  0.11685860  -0.00515133  0.01121708  1
  O  O404  1  0.11401907  -0.00764745  0.51205575  1
  O  O405  1  0.12707556  0.50205818  0.01228891  1
  O  O406  1  0.11929881  0.51389413  0.49630867  1
  O  O407  1  0.61881951  0.00062156  0.00337534  1
  O  O408  1  0.61386656  -0.00260711  0.49301045  1
  O  O409  1  0.62699693  0.50106947  0.01529968  1
  O  O410  1  0.61792080  0.50311185  0.50368675  1
  O  O411  1  0.37055740  0.36423831  0.12374158  1
  O  O412  1  0.37556284  0.37073107  0.60639901  1
  O  O413  1  0.36316182  0.86776910  0.12670639  1
  O  O414  1  0.36845708  0.86987531  0.61641136  1
  O  O415  1  0.86615300  0.36271483  0.14191947  1
  O  O416  1  0.86628558  0.37155087  0.61733719  1
  O  O417  1  0.86660582  0.85945690  0.13134056  1
  O  O418  1  0.87492042  0.86422855  0.61752203  1
  O  O419  1  0.13602745  0.12958401  0.37317204  1
  O  O420  1  0.13592609  0.11721049  0.87293773  1
  O  O421  1  0.13257169  0.63112561  0.37657567  1
  O  O422  1  0.13652643  0.63695499  0.87359859  1
  O  O423  1  0.62601421  0.13638838  0.36819071  1
  O  O424  1  0.63561124  0.13535240  0.87348624  1
  O  O425  1  0.61846016  0.63881316  0.37640012  1
  O  O426  1  0.61740517  0.64265429  0.87381469  1
