# generated using pymatgen
data_V85Zn86O256
_symmetry_space_group_name_H-M   'P 1'
_cell_length_a   16.93652243
_cell_length_b   16.93284764
_cell_length_c   16.92733150
_cell_angle_alpha   90.07314127
_cell_angle_beta   90.00771877
_cell_angle_gamma   89.97897090
_symmetry_Int_Tables_number   1
_chemical_formula_structural   V85Zn86O256
_chemical_formula_sum   'V85 Zn86 O256'
_cell_volume   4854.47596035
_cell_formula_units_Z   1
loop_
 _symmetry_equiv_pos_site_id
 _symmetry_equiv_pos_as_xyz
  1  'x, y, z'
loop_
 _atom_site_type_symbol
 _atom_site_label
 _atom_site_symmetry_multiplicity
 _atom_site_fract_x
 _atom_site_fract_y
 _atom_site_fract_z
 _atom_site_occupancy
  V  V0  1  0.25492499  0.37148082  0.12188019  1
  V  V1  1  0.62551221  0.74741130  0.87561867  1
  V  V2  1  0.38150637  0.23378405  0.12387917  1
  V  V3  1  0.25120071  0.35813567  0.62154617  1
  V  V4  1  0.49682287  0.00467664  0.00693794  1
  V  V5  1  0.49805029  0.87809967  0.87538301  1
  V  V6  1  0.74832451  0.12258917  0.37317077  1
  V  V7  1  0.37638155  0.36488801  0.49651083  1
  V  V8  1  0.49947271  0.75250361  0.25106007  1
  V  V9  1  0.87190555  0.76140045  0.12867104  1
  V  V10  1  0.25566171  0.00675214  0.25086834  1
  V  V11  1  0.12632426  0.49773297  0.12391307  1
  V  V12  1  0.37348832  0.75383410  0.61274953  1
  V  V13  1  0.37153064  0.62443516  0.25540741  1
  V  V14  1  0.62062470  0.25744677  0.37426289  1
  V  V15  1  0.63042469  0.88057680  0.75191454  1
  V  V16  1  0.74785905  0.49716976  0.25037550  1
  V  V17  1  0.49857532  0.37191895  0.87026080  1
  V  V18  1  0.18257515  0.92950358  0.79881629  1
  V  V19  1  0.37697187  0.50010079  0.87599398  1
  V  V20  1  0.49274455  0.24237578  0.25468973  1
  V  V21  1  0.00616128  0.50744131  0.49988699  1
  V  V22  1  0.25755136  0.13122488  0.37630580  1
  V  V23  1  0.18420264  0.68145290  0.43133391  1
  V  V24  1  0.12409939  0.37457338  0.75292209  1
  V  V25  1  0.74506443  0.12332855  0.86810341  1
  V  V26  1  0.74770500  0.62580697  0.37852020  1
  V  V27  1  0.86863788  0.00100762  0.86744127  1
  V  V28  1  0.24732466  0.87369270  0.13045568  1
  V  V29  1  0.13454499  0.12955885  0.50633269  1
  V  V30  1  -0.00054304  0.01157448  -0.00150104  1
  V  V31  1  0.87349433  0.62949972  0.25290632  1
  V  V32  1  0.62413762  0.49454809  0.12381352  1
  V  V33  1  0.62143138  0.00704928  0.63087406  1
  V  V34  1  0.75086291  0.88280307  0.62822471  1
  V  V35  1  0.61898556  0.62738563  0.50792524  1
  V  V36  1  -0.02213236  0.60499702  0.10612002  1
  V  V37  1  0.25194477  0.49892460  0.25588613  1
  V  V38  1  0.87852947  0.13247558  0.24108728  1
  V  V39  1  0.00283900  0.86640127  0.37381162  1
  V  V40  1  0.38452370  0.49398543  0.37511872  1
  V  V41  1  0.75985566  0.25268449  0.00137950  1
  V  V42  1  0.63079676  0.87900071  0.24513958  1
  V  V43  1  0.37859950  0.11324051  0.75566116  1
  V  V44  1  0.24753013  0.23318094  -0.00629691  1
  V  V45  1  0.61760199  0.24842978  0.87195032  1
  V  V46  1  0.49997390  0.62120713  0.12609709  1
  V  V47  1  -0.01284007  0.38749188  0.88388259  1
  V  V48  1  0.62886059  0.37265621  0.74624057  1
  V  V49  1  0.01056867  0.75196359  0.74915189  1
  V  V50  1  0.12265790  0.62006688  -0.00002943  1
  V  V51  1  0.25236820  0.49778696  0.74607043  1
  V  V52  1  0.87481789  0.00313765  0.37531234  1
  V  V53  1  0.39843465  0.24391917  0.63377877  1
  V  V54  1  0.50123898  0.74699432  0.74351484  1
  V  V55  1  0.74818409  0.25225778  0.50231276  1
  V  V56  1  0.63373724  0.50025238  0.62723823  1
  V  V57  1  0.76195213  0.37163799  0.12174156  1
  V  V58  1  0.49353149  -0.00403574  0.50523453  1
  V  V59  1  0.61886348  0.12885618  0.00823451  1
  V  V60  1  0.25067795  0.62284522  0.87384383  1
  V  V61  1  0.37399023  -0.00535878  0.38051050  1
  V  V62  1  -0.00409934  0.87705010  0.87318195  1
  V  V63  1  0.37948981  0.62339494  0.74031569  1
  V  V64  1  0.62497646  0.75150126  0.37700484  1
  V  V65  1  0.12141843  0.01291853  0.12679210  1
  V  V66  1  -0.00058984  0.12523837  0.62258439  1
  V  V67  1  0.00359375  0.00110315  0.49978421  1
  V  V68  1  0.87112282  0.37678942  0.50464462  1
  V  V69  1  0.87454753  0.49993720  0.37645110  1
  V  V70  1  0.49886784  0.49765336  0.50836370  1
  V  V71  1  0.00266065  0.37329533  0.37659824  1
  V  V72  1  0.86961454  0.25284581  0.62478273  1
  V  V73  1  0.24849856  0.74650522  0.00412941  1
  V  V74  1  0.25009279  0.87430084  0.59815568  1
  V  V75  1  0.61879155  0.12468017  0.50186149  1
  V  V76  1  0.87455505  0.87679447  0.50092602  1
  V  V77  1  -0.00025144  0.25172623  0.74938658  1
  V  V78  1  0.75796577  0.61964990  0.87429301  1
  V  V79  1  0.37508534  0.87313113  0.00231342  1
  V  V80  1  0.87634268  0.74961822  0.62889316  1
  V  V81  1  0.12405880  0.87067453  0.25111346  1
  V  V82  1  0.13061437  0.25167239  0.37991197  1
  V  V83  1  0.74764751  0.75895248  0.00523038  1
  V  V84  1  0.13092418  0.50607358  0.61988594  1
  Zn  Zn85  1  0.12708644  0.74962664  0.87218875  1
  Zn  Zn86  1  0.74865423  0.75149486  0.50382966  1
  Zn  Zn87  1  0.62665701  0.00071164  0.12323263  1
  Zn  Zn88  1  0.86773641  0.12171044  0.74426247  1
  Zn  Zn89  1  0.86998038  0.88247025  0.00599338  1
  Zn  Zn90  1  -0.00020451  0.25268006  0.24576298  1
  Zn  Zn91  1  -0.00148655  0.14206706  0.11054281  1
  Zn  Zn92  1  0.37579541  0.37043017  -0.00157585  1
  Zn  Zn93  1  0.00737991  0.62851550  0.62393504  1
  Zn  Zn94  1  0.35817334  0.00006111  0.87424822  1
  Zn  Zn95  1  0.12136677  0.23817881  0.88541551  1
  Zn  Zn96  1  0.49986435  0.49883959  -0.00072552  1
  Zn  Zn97  1  0.00452912  0.74214802  0.24584754  1
  Zn  Zn98  1  0.75903244  0.49127044  0.75262128  1
  Zn  Zn99  1  0.12614674  0.37270299  0.24991443  1
  Zn  Zn100  1  0.75639450  -0.00264483  0.23531042  1
  Zn  Zn101  1  0.13242084  -0.00534281  0.62564423  1
  Zn  Zn102  1  0.62389374  0.62442203  0.00038983  1
  Zn  Zn103  1  0.62040556  0.37272824  0.25071929  1
  Zn  Zn104  1  0.88262021  0.61958955  0.75504079  1
  Zn  Zn105  1  0.37239723  0.74839636  0.12905147  1
  Zn  Zn106  1  0.49695180  0.87562395  0.37762086  1
  Zn  Zn107  1  0.18871717  0.19227230  0.19192138  1
  Zn  Zn108  1  0.18061129  0.16638949  0.72110311  1
  Zn  Zn109  1  0.18413978  0.68242338  0.19036689  1
  Zn  Zn110  1  0.19338354  0.69075405  0.68290212  1
  Zn  Zn111  1  0.68779857  0.18755727  0.18815203  1
  Zn  Zn112  1  0.68359659  0.19106503  0.68827500  1
  Zn  Zn113  1  0.68723010  0.68799362  0.18772783  1
  Zn  Zn114  1  0.68982416  0.68863211  0.68835969  1
  Zn  Zn115  1  0.31527104  0.31200926  0.31064271  1
  Zn  Zn116  1  0.31419128  0.30827406  0.80859643  1
  Zn  Zn117  1  0.30910106  0.81212949  0.31917792  1
  Zn  Zn118  1  0.31790995  0.80481869  0.81471723  1
  Zn  Zn119  1  0.80920816  0.31250019  0.31435057  1
  Zn  Zn120  1  0.81243674  0.31307219  0.81658649  1
  Zn  Zn121  1  0.81134615  0.81392709  0.31610388  1
  Zn  Zn122  1  0.81399552  0.81025143  0.81283306  1
  Zn  Zn123  1  0.19389741  0.44064824  0.43892149  1
  Zn  Zn124  1  0.18653246  0.43237722  0.93732476  1
  Zn  Zn125  1  0.18527598  0.93914292  0.43443986  1
  Zn  Zn126  1  0.18201992  0.93670538  0.95968679  1
  Zn  Zn127  1  0.68765171  0.43844300  0.44140376  1
  Zn  Zn128  1  0.68536276  0.43563836  0.93944421  1
  Zn  Zn129  1  0.68455615  0.93788949  0.43786765  1
  Zn  Zn130  1  0.68496047  0.94087208  0.93978004  1
  Zn  Zn131  1  0.31201126  0.05945527  0.06246748  1
  Zn  Zn132  1  0.31159522  0.06840724  0.57609300  1
  Zn  Zn133  1  0.31292490  0.56050959  0.06535245  1
  Zn  Zn134  1  0.30982913  0.56436763  0.55827993  1
  Zn  Zn135  1  0.80760121  0.06339112  0.05856644  1
  Zn  Zn136  1  0.80897026  0.06363091  0.56217160  1
  Zn  Zn137  1  0.80489472  0.56986078  0.06434448  1
  Zn  Zn138  1  0.81282850  0.56428863  0.56521890  1
  Zn  Zn139  1  0.43986702  0.42818349  0.18968076  1
  Zn  Zn140  1  0.44148376  0.43356490  0.68538897  1
  Zn  Zn141  1  0.43612620  0.93808378  0.18948761  1
  Zn  Zn142  1  0.43545347  0.93537819  0.68669895  1
  Zn  Zn143  1  0.93768060  0.43592418  0.18910793  1
  Zn  Zn144  1  0.93955963  0.44032357  0.68897813  1
  Zn  Zn145  1  0.93981240  0.94516921  0.18917913  1
  Zn  Zn146  1  0.94153044  0.93679620  0.68915861  1
  Zn  Zn147  1  0.06552993  0.06336728  0.31483221  1
  Zn  Zn148  1  0.05724657  0.06981130  0.81351043  1
  Zn  Zn149  1  0.06025224  0.56044128  0.30613908  1
  Zn  Zn150  1  0.06261918  0.56240810  0.80995718  1
  Zn  Zn151  1  0.55807457  0.06558497  0.31261615  1
  Zn  Zn152  1  0.55294571  0.06526395  0.81154545  1
  Zn  Zn153  1  0.56172873  0.56114215  0.31425027  1
  Zn  Zn154  1  0.56360731  0.56165368  0.80936205  1
  Zn  Zn155  1  0.43748896  0.18458112  0.43973905  1
  Zn  Zn156  1  0.43204451  0.18515204  0.93131894  1
  Zn  Zn157  1  0.43889846  0.68150118  0.43423085  1
  Zn  Zn158  1  0.43688940  0.68682988  0.93681940  1
  Zn  Zn159  1  0.93912467  0.18875002  0.43644532  1
  Zn  Zn160  1  0.93482776  0.19096922  0.92883529  1
  Zn  Zn161  1  0.93943344  0.69001652  0.44045397  1
  Zn  Zn162  1  0.93584907  0.69433879  0.93885957  1
  Zn  Zn163  1  0.06407934  0.31319686  0.06191971  1
  Zn  Zn164  1  0.06281156  0.31520889  0.56379691  1
  Zn  Zn165  1  0.05707539  0.81139356  0.06384100  1
  Zn  Zn166  1  0.06766692  0.80908110  0.55728315  1
  Zn  Zn167  1  0.55924129  0.31337995  0.05975609  1
  Zn  Zn168  1  0.56340888  0.31878664  0.56045028  1
  Zn  Zn169  1  0.56081001  0.81132420  0.06453351  1
  Zn  Zn170  1  0.56037049  0.81659946  0.56414598  1
  O  O171  1  0.12116687  0.11521330  0.13648818  1
  O  O172  1  0.11854539  0.12044478  0.62085073  1
  O  O173  1  0.11560066  0.61591893  0.11792383  1
  O  O174  1  0.12898364  0.61032031  0.63004583  1
  O  O175  1  0.62364979  0.12863464  0.11080220  1
  O  O176  1  0.63197564  0.11462849  0.61852171  1
  O  O177  1  0.61769789  0.61375875  0.12729150  1
  O  O178  1  0.62792756  0.61949920  0.61797944  1
  O  O179  1  0.37287988  0.38003114  0.38505695  1
  O  O180  1  0.38128434  0.38308511  0.87136542  1
  O  O181  1  0.37553219  0.89015011  0.37239711  1
  O  O182  1  0.38278468  0.87419620  0.88201507  1
  O  O183  1  0.88135145  0.37852467  0.38438472  1
  O  O184  1  0.88682755  0.37498877  0.87627569  1
  O  O185  1  0.88100486  0.88403200  0.37990350  1
  O  O186  1  0.88043298  0.88222695  0.87808468  1
  O  O187  1  0.25514703  0.00782395  0.36959700  1
  O  O188  1  0.23874118  -0.01649284  0.86680906  1
  O  O189  1  0.26375082  0.49215391  0.36173500  1
  O  O190  1  0.25815551  0.50195243  0.86669636  1
  O  O191  1  0.75267200  0.01191079  0.37512361  1
  O  O192  1  0.75620569  0.01048201  0.88156758  1
  O  O193  1  0.75511380  0.50518444  0.37188787  1
  O  O194  1  0.74306313  0.51718289  0.87828126  1
  O  O195  1  0.24697978  0.49214048  0.13359979  1
  O  O196  1  0.24831124  0.49250019  0.63017880  1
  O  O197  1  0.24215183  0.99647351  0.13261004  1
  O  O198  1  0.25367700  0.97824576  0.61763422  1
  O  O199  1  0.74176007  0.49467297  0.12845748  1
  O  O200  1  0.73673348  0.50063905  0.62276597  1
  O  O201  1  0.74135606  1.00225224  0.12337803  1
  O  O202  1  0.74226195  0.98971424  0.62401531  1
  O  O203  1  0.00099764  0.37689143  0.26680408  1
  O  O204  1  0.00704920  0.37006434  0.75479154  1
  O  O205  1  0.00729658  0.87786385  0.25772263  1
  O  O206  1  -0.00195692  0.86925597  0.76379150  1
  O  O207  1  0.50552709  0.35292645  0.24485744  1
  O  O208  1  0.51154709  0.38186966  0.76249187  1
  O  O209  1  0.50625916  0.86669636  0.25364130  1
  O  O210  1  0.50819749  0.86785942  0.75785400  1
  O  O211  1  0.50758993  0.14213554  0.24409347  1
  O  O212  1  0.48121340  0.12375123  0.74607353  1
  O  O213  1  0.49593215  0.63067548  0.24243590  1
  O  O214  1  0.49226016  0.63552877  0.75432845  1
  O  O215  1  0.98483908  0.12528549  0.25712503  1
  O  O216  1  0.99057035  0.13487651  0.73936405  1
  O  O217  1  0.98540189  0.62078538  0.23582347  1
  O  O218  1  0.99997030  0.63576380  0.74605490  1
  O  O219  1  0.36750728  0.24729619  0.01032785  1
  O  O220  1  0.38467058  0.26087109  0.50954535  1
  O  O221  1  0.36316701  0.75108536  0.00239121  1
  O  O222  1  0.38706276  0.74323985  0.51494225  1
  O  O223  1  0.85809822  0.24401239  -0.00249590  1
  O  O224  1  0.87063187  0.25708813  0.50481505  1
  O  O225  1  0.86551620  0.75492830  0.01049553  1
  O  O226  1  0.87521007  0.76054340  0.50896881  1
  O  O227  1  0.11993215  0.24257408  0.49140712  1
  O  O228  1  0.14306217  0.25002375  1.00051079  1
  O  O229  1  0.12214942  0.73602105  0.49246026  1
  O  O230  1  0.13688489  0.74647830  1.00070370  1
  O  O231  1  0.62672080  0.24352778  0.49594791  1
  O  O232  1  0.62590635  0.24475316  0.98935074  1
  O  O233  1  0.62265435  0.74352453  0.49733795  1
  O  O234  1  0.62862877  0.74911469  0.99288338  1
  O  O235  1  0.48607812  0.25016454  0.12750480  1
  O  O236  1  0.49653699  0.25788182  0.63136775  1
  O  O237  1  0.49834385  0.74153016  0.13671084  1
  O  O238  1  0.49047287  0.75817010  0.63662913  1
  O  O239  1  1.00563458  0.25151132  0.13242876  1
  O  O240  1  0.98800036  0.24688596  0.62607075  1
  O  O241  1  0.98621075  0.73553116  0.12256274  1
  O  O242  1  0.99451525  0.75355390  0.63191230  1
  O  O243  1  0.00837374  0.25901760  0.37564462  1
  O  O244  1  0.00289708  0.25705308  0.86317911  1
  O  O245  1  -0.00715701  0.76336184  0.36937863  1
  O  O246  1  0.00409101  0.76007706  0.86948939  1
  O  O247  1  0.50502519  0.24350969  0.36454940  1
  O  O248  1  0.50511311  0.25884686  0.87765818  1
  O  O249  1  0.50519132  0.74910593  0.36451341  1
  O  O250  1  0.50573232  0.75810413  0.86912523  1
  O  O251  1  0.23906437  0.12096758  0.49622659  1
  O  O252  1  0.25074942  0.13380032  0.99938611  1
  O  O253  1  0.24114025  0.61663672  0.48765177  1
  O  O254  1  0.24375294  0.63014763  0.99833170  1
  O  O255  1  0.74015419  0.13070288  0.49300388  1
  O  O256  1  0.73912036  0.13661700  0.99111475  1
  O  O257  1  0.73831088  0.62647159  0.49529989  1
  O  O258  1  0.74539014  0.63674844  0.99008842  1
  O  O259  1  0.25454404  0.37183619  0.01169128  1
  O  O260  1  0.26485381  0.38134301  0.51047026  1
  O  O261  1  0.25493367  0.86534540  0.00962307  1
  O  O262  1  0.25412736  0.87259614  0.49911380  1
  O  O263  1  0.74587622  0.36136666  0.00473285  1
  O  O264  1  0.76039703  0.36687731  0.49561035  1
  O  O265  1  0.74967938  0.86304889  -0.00562773  1
  O  O266  1  0.75577125  0.87554542  0.50932618  1
  O  O267  1  0.13794974  0.49619760  0.24532236  1
  O  O268  1  0.13172453  0.49146712  0.74182683  1
  O  O269  1  0.13279706  0.99282871  0.24611843  1
  O  O270  1  0.12093538  0.99080857  0.74428724  1
  O  O271  1  0.63002842  0.49640429  0.24453184  1
  O  O272  1  0.62960272  0.49426964  0.74265730  1
  O  O273  1  0.62079101  0.98666856  0.25151540  1
  O  O274  1  0.61807366  0.99208126  0.74391431  1
  O  O275  1  0.36216073  -0.00133726  0.25658391  1
  O  O276  1  0.38125309  0.00485015  0.75807328  1
  O  O277  1  0.37454419  0.50239645  0.25645571  1
  O  O278  1  0.37425690  0.50631700  0.75440961  1
  O  O279  1  0.87326283  0.01096607  0.25889927  1
  O  O280  1  0.87830772  0.00098003  0.76285599  1
  O  O281  1  0.86766875  0.50823906  0.25665854  1
  O  O282  1  0.86832936  0.50893883  0.73645601  1
  O  O283  1  0.12023552  0.36891131  0.37853487  1
  O  O284  1  0.12646222  0.36849345  0.85973761  1
  O  O285  1  0.11391285  0.88213798  0.36453303  1
  O  O286  1  0.12215711  0.87655030  0.87032945  1
  O  O287  1  0.62904485  0.36031952  0.37780741  1
  O  O288  1  0.61702483  0.36811554  0.87135892  1
  O  O289  1  0.62186367  0.86684425  0.36760443  1
  O  O290  1  0.62020861  0.86646834  0.86957150  1
  O  O291  1  0.37243720  0.13517732  0.12578564  1
  O  O292  1  0.38957618  0.14407964  0.61258512  1
  O  O293  1  0.38360413  0.62332240  0.13627876  1
  O  O294  1  0.36931431  0.63457752  0.63424112  1
  O  O295  1  0.87669815  0.12223259  0.13872466  1
  O  O296  1  0.87974938  0.13316876  0.62283551  1
  O  O297  1  0.86397916  0.64245197  0.14256535  1
  O  O298  1  0.87484940  0.64269527  0.62236587  1
  O  O299  1  0.25948784  0.25322353  0.11972820  1
  O  O300  1  0.25203886  0.25962992  0.62728077  1
  O  O301  1  0.25060172  0.75284117  0.12037133  1
  O  O302  1  0.26441959  0.75923355  0.62317037  1
  O  O303  1  0.74297501  0.25719600  0.11082859  1
  O  O304  1  0.76187477  0.24622219  0.62006924  1
  O  O305  1  0.75505245  0.74915104  0.11697989  1
  O  O306  1  0.75723088  0.76308114  0.62610528  1
  O  O307  1  0.24507908  0.24310602  0.37385030  1
  O  O308  1  0.25557563  0.25625056  0.89318193  1
  O  O309  1  0.24621004  0.74243803  0.37746891  1
  O  O310  1  0.24831666  0.74101391  0.88378398  1
  O  O311  1  0.74149321  0.24004649  0.38060315  1
  O  O312  1  0.74124544  0.24511754  0.88482373  1
  O  O313  1  0.74267438  0.74454283  0.38056854  1
  O  O314  1  0.74192458  0.74448798  0.88110975  1
  O  O315  1  -0.00321654  0.11675281  -0.00629293  1
  O  O316  1  0.00844134  0.11876913  0.50307573  1
  O  O317  1  0.01849546  0.63861733  -0.00114228  1
  O  O318  1  -0.00602097  0.61129630  0.50293025  1
  O  O319  1  0.50519489  0.11536705  -0.00995613  1
  O  O320  1  0.51412466  0.11630236  0.49558865  1
  O  O321  1  0.49929069  0.62597912  0.01486705  1
  O  O322  1  0.51227524  0.61514031  0.49583980  1
  O  O323  1  0.49039665  0.38597950  0.50102057  1
  O  O324  1  0.49552288  0.37877403  0.98675277  1
  O  O325  1  0.50626862  0.89067057  0.49528961  1
  O  O326  1  0.49418136  0.87703932  0.99401748  1
  O  O327  1  0.99391863  0.38374626  0.49142737  1
  O  O328  1  1.01031662  0.37331856  0.98105516  1
  O  O329  1  0.99688272  0.88205471  0.49322433  1
  O  O330  1  1.00019258  0.88421687  0.98759558  1
  O  O331  1  0.49097863  0.50020769  0.38345187  1
  O  O332  1  0.49223296  0.49621193  0.87572030  1
  O  O333  1  0.48973008  1.00259398  0.38206371  1
  O  O334  1  0.50191308  0.98556641  0.88408980  1
  O  O335  1  0.99442102  0.49456285  0.38078089  1
  O  O336  1  1.00348446  0.48648477  0.86962881  1
  O  O337  1  0.99602989  0.99609684  0.38589459  1
  O  O338  1  0.99430376  0.99696099  0.87925191  1
  O  O339  1  0.00491721  0.00741399  0.11591436  1
  O  O340  1  0.00044244  0.00232841  0.61271759  1
  O  O341  1  0.02099493  0.49813072  0.13925390  1
  O  O342  1  0.01253956  0.49970412  0.61551741  1
  O  O343  1  0.50126603  -0.00629274  0.11074180  1
  O  O344  1  0.51065103  -0.00635022  0.61853185  1
  O  O345  1  0.50589663  0.50457013  0.12603664  1
  O  O346  1  0.50833214  0.49913259  0.61480852  1
  O  O347  1  0.25238069  0.38000731  0.23870374  1
  O  O348  1  0.24421083  0.37822997  0.74215896  1
  O  O349  1  0.24291343  0.88237915  0.24787484  1
  O  O350  1  0.24454456  0.86781956  0.74819067  1
  O  O351  1  0.74599287  0.37911259  0.24229908  1
  O  O352  1  0.73425184  0.37540372  0.75966461  1
  O  O353  1  0.73454046  0.87817224  0.25727418  1
  O  O354  1  0.73791205  0.87092128  0.74592372  1
  O  O355  1  0.24416284  0.11707218  0.26271574  1
  O  O356  1  0.28184504  0.11574335  0.71277632  1
  O  O357  1  0.26141757  0.61308932  0.24172891  1
  O  O358  1  0.25938813  0.61966840  0.75375662  1
  O  O359  1  0.75961783  0.12448302  0.25724435  1
  O  O360  1  0.74891251  0.13109194  0.76365884  1
  O  O361  1  0.75465221  0.61980005  0.25822020  1
  O  O362  1  0.75066246  0.62945100  0.76753542  1
  O  O363  1  0.36241199  0.11787899  0.38150014  1
  O  O364  1  0.36636463  0.12115425  0.86104430  1
  O  O365  1  0.38054358  0.61346506  0.36199569  1
  O  O366  1  0.37162923  0.61877609  0.86497158  1
  O  O367  1  0.86606956  0.12109180  0.37363354  1
  O  O368  1  0.86333567  0.11886726  0.87117091  1
  O  O369  1  0.87062274  0.62263696  0.36942608  1
  O  O370  1  0.86121348  0.63061041  0.87746639  1
  O  O371  1  0.13682097  0.38140853  0.12746830  1
  O  O372  1  0.13349747  0.38358255  0.62924935  1
  O  O373  1  0.12736445  0.88533385  0.13090462  1
  O  O374  1  0.14484268  0.87206899  0.61551574  1
  O  O375  1  0.62976028  0.38529509  0.12320809  1
  O  O376  1  0.62204446  0.38407452  0.63526565  1
  O  O377  1  0.62003343  0.87270015  0.14249905  1
  O  O378  1  0.63222572  0.88261789  0.63314715  1
  O  O379  1  0.12387178  0.25315647  0.26677636  1
  O  O380  1  0.10809252  0.26289451  0.73058286  1
  O  O381  1  0.12090748  0.76525168  0.23953868  1
  O  O382  1  0.11503870  0.74681107  0.74960473  1
  O  O383  1  0.61918308  0.24965817  0.25951290  1
  O  O384  1  0.62592296  0.25673828  0.76256997  1
  O  O385  1  0.61902630  0.75792385  0.25535086  1
  O  O386  1  0.61802594  0.75658777  0.75528439  1
  O  O387  1  0.38387320  0.24867445  0.23962326  1
  O  O388  1  0.37535193  0.24217658  0.73741178  1
  O  O389  1  0.38192496  0.74200338  0.25260467  1
  O  O390  1  0.38338413  0.74189406  0.74277023  1
  O  O391  1  0.87547320  0.23544774  0.25854848  1
  O  O392  1  0.88242645  0.25364759  0.74060158  1
  O  O393  1  0.87582760  0.74593519  0.24773192  1
  O  O394  1  0.88656671  0.74913620  0.74380953  1
  O  O395  1  0.38324138  0.49567266  0.49451175  1
  O  O396  1  0.37462592  0.50168307  0.98551278  1
  O  O397  1  0.38440193  1.00879771  0.49546122  1
  O  O398  1  0.37834881  0.99349252  0.99401515  1
  O  O399  1  0.87990064  0.49352126  0.49654473  1
  O  O400  1  0.91480841  0.54507470  1.05012595  1
  O  O401  1  0.88166747  0.99661542  0.49547903  1
  O  O402  1  0.88200409  1.00022940  0.98974022  1
  O  O403  1  0.11346513  0.00382247  0.01368801  1
  O  O404  1  0.11783165  0.00905024  0.50107369  1
  O  O405  1  0.13480538  0.50888356  0.00965068  1
  O  O406  1  0.11696527  0.49316836  0.50657502  1
  O  O407  1  0.61429811  0.01010125  -0.00115794  1
  O  O408  1  0.62031563  0.00746310  0.50862553  1
  O  O409  1  0.62147073  0.50429853  0.00942251  1
  O  O410  1  0.61823735  0.50490681  0.50678322  1
  O  O411  1  0.36903558  0.36556961  0.12133740  1
  O  O412  1  0.37122815  0.36393540  0.62132485  1
  O  O413  1  0.36695405  0.87182871  0.12072374  1
  O  O414  1  0.36594193  0.86148705  0.62641514  1
  O  O415  1  0.86126741  0.38062758  0.12642835  1
  O  O416  1  0.88238359  0.36791332  0.61148362  1
  O  O417  1  0.88205968  0.86571048  0.12741663  1
  O  O418  1  0.86864646  0.87027518  0.62361685  1
  O  O419  1  0.13397210  0.13209774  0.38439155  1
  O  O420  1  0.13946270  0.14255156  0.82844932  1
  O  O421  1  0.12526848  0.63000574  0.36464284  1
  O  O422  1  0.13364904  0.62394764  0.88221285  1
  O  O423  1  0.63176924  0.13095714  0.38190544  1
  O  O424  1  0.62698174  0.13121884  0.87881689  1
  O  O425  1  0.62820237  0.63242126  0.38175894  1
  O  O426  1  0.62857336  0.63716642  0.87530295  1
