# generated using pymatgen
data_V85Zn86O256
_symmetry_space_group_name_H-M   'P 1'
_cell_length_a   16.94240777
_cell_length_b   16.94909908
_cell_length_c   16.95703439
_cell_angle_alpha   89.98419808
_cell_angle_beta   89.94187947
_cell_angle_gamma   90.00167184
_symmetry_Int_Tables_number   1
_chemical_formula_structural   V85Zn86O256
_chemical_formula_sum   'V85 Zn86 O256'
_cell_volume   4869.35467879
_cell_formula_units_Z   1
loop_
 _symmetry_equiv_pos_site_id
 _symmetry_equiv_pos_as_xyz
  1  'x, y, z'
loop_
 _atom_site_type_symbol
 _atom_site_label
 _atom_site_symmetry_multiplicity
 _atom_site_fract_x
 _atom_site_fract_y
 _atom_site_fract_z
 _atom_site_occupancy
  V  V0  1  0.00065029  0.87493331  0.87361827  1
  V  V1  1  0.12958937  -0.00337510  0.62057844  1
  V  V2  1  0.49875196  0.75330211  0.75414765  1
  V  V3  1  0.49792302  0.49722477  0.00315329  1
  V  V4  1  0.12571874  0.12494447  -0.00160990  1
  V  V5  1  0.51351086  0.12543515  0.61771273  1
  V  V6  1  0.24847514  0.62008582  0.37135878  1
  V  V7  1  0.12615575  0.13712965  0.49581499  1
  V  V8  1  0.37930634  0.12260821  0.74578563  1
  V  V9  1  -0.00166677  0.36888073  0.37501166  1
  V  V10  1  -0.00968845  0.87844438  0.37196815  1
  V  V11  1  -0.00535820  0.75115830  0.74420845  1
  V  V12  1  0.75189272  0.49242967  0.25031482  1
  V  V13  1  0.49851020  0.62123190  0.61129783  1
  V  V14  1  0.12591585  0.75023803  0.87357349  1
  V  V15  1  0.00074872  0.75160249  0.24907786  1
  V  V16  1  0.76899652  0.36812835  0.11801426  1
  V  V17  1  0.37908956  -0.00549698  0.88410384  1
  V  V18  1  0.37395767  0.62228228  0.74926175  1
  V  V19  1  0.25746918  -0.00727557  0.74293241  1
  V  V20  1  0.50285182  0.63017233  0.13001790  1
  V  V21  1  -0.00117239  0.12606783  0.62457867  1
  V  V22  1  -0.00365294  0.37290769  0.88024869  1
  V  V23  1  0.12876536  0.24918180  0.87250834  1
  V  V24  1  0.62972569  0.25710271  0.38361776  1
  V  V25  1  0.87060111  0.75435057  0.12650318  1
  V  V26  1  0.62630303  0.25191947  0.87416444  1
  V  V27  1  0.74999549  0.62557156  0.87660082  1
  V  V28  1  0.00004958  0.49779512  0.50060389  1
  V  V29  1  0.51280643  0.26367739  0.24926471  1
  V  V30  1  0.63182485  0.86076634  0.24888459  1
  V  V31  1  0.75412524  0.12453003  0.87055372  1
  V  V32  1  0.12570674  0.49753057  0.62683160  1
  V  V33  1  -0.01054033  0.12805581  0.12497882  1
  V  V34  1  0.87446527  0.00199349  0.86705695  1
  V  V35  1  0.12347350  0.62586763  0.49979013  1
  V  V36  1  0.51888520  0.00489009  0.49796367  1
  V  V37  1  0.62538503  0.12345376  0.00192444  1
  V  V38  1  0.12771032  0.37157307  0.74508008  1
  V  V39  1  0.12424602  0.62404098  0.00085486  1
  V  V40  1  0.12865160  0.87494761  0.74513533  1
  V  V41  1  0.87169935  0.24641356  0.62837703  1
  V  V42  1  0.00045044  -0.00086937  -0.00129594  1
  V  V43  1  0.74594561  -0.00180144  0.73842558  1
  V  V44  1  0.24728942  0.75759810  0.50047715  1
  V  V45  1  0.73492107  0.49839915  0.75167267  1
  V  V46  1  -0.00850960  0.25313405  0.24893654  1
  V  V47  1  0.87069675  0.62665616  0.74699069  1
  V  V48  1  0.25063887  0.49320274  0.74756866  1
  V  V49  1  0.38286329  0.12847891  0.25184111  1
  V  V50  1  0.25417428  -0.00048004  0.24983774  1
  V  V51  1  -0.00126058  0.62456524  0.62542127  1
  V  V52  1  0.50202130  0.25449551  0.74721255  1
  V  V53  1  0.63421087  -0.00131532  0.13138811  1
  V  V54  1  0.37660102  0.62799869  0.24710976  1
  V  V55  1  0.17227823  0.30851885  0.31647907  1
  V  V56  1  0.25230731  0.12563566  0.87279777  1
  V  V57  1  0.24976189  0.62407595  0.87502226  1
  V  V58  1  0.00137031  0.62578332  0.12554537  1
  V  V59  1  -0.00443667  0.00307186  0.49348871  1
  V  V60  1  0.25810726  0.75519551  0.00477084  1
  V  V61  1  0.37122259  0.39020201  0.50229289  1
  V  V62  1  0.87278764  0.49463742  0.87830917  1
  V  V63  1  0.87182374  0.11812258  0.25858497  1
  V  V64  1  0.12796583  0.48430810  0.12815335  1
  V  V65  1  0.87331934  0.87636104  0.00183494  1
  V  V66  1  -0.00413307  0.24542662  0.74962866  1
  V  V67  1  0.87179399  0.37821270  0.50346730  1
  V  V68  1  0.37358727  0.88211502  0.49752588  1
  V  V69  1  0.12502448  -0.00154739  0.12492269  1
  V  V70  1  0.37005935  0.75723989  0.62497163  1
  V  V71  1  0.50214394  0.37569228  0.87432352  1
  V  V72  1  0.50341598  0.86213268  0.36833387  1
  V  V73  1  0.62688143  0.48637213  0.12642208  1
  V  V74  1  0.12380166  0.75250639  0.37318179  1
  V  V75  1  0.74993004  0.75669665  0.00115280  1
  V  V76  1  0.74096113  0.37582983  0.62996925  1
  V  V77  1  0.74207418  0.63061198  0.37844528  1
  V  V78  1  0.24905624  0.25618012  0.00897515  1
  V  V79  1  0.61581983  0.49843176  0.61158004  1
  V  V80  1  0.62761306  0.62445297  0.00234624  1
  V  V81  1  0.36306398  0.25267997  0.61428505  1
  V  V82  1  0.87831094  0.86371428  0.51848651  1
  V  V83  1  0.24651644  0.12581880  0.37791839  1
  V  V84  1  0.74444630  0.11205293  0.38316285  1
  Zn  Zn85  1  0.74559102  0.24531349  0.50498146  1
  Zn  Zn86  1  0.62519082  0.75274804  0.87558720  1
  Zn  Zn87  1  0.73561660  0.75713131  0.51192900  1
  Zn  Zn88  1  0.24773721  0.49096003  0.24487004  1
  Zn  Zn89  1  0.37372795  0.49627030  0.87661297  1
  Zn  Zn90  1  0.38893137  0.76274010  0.12874268  1
  Zn  Zn91  1  0.63261825  0.87712999  0.74806405  1
  Zn  Zn92  1  0.75431566  -0.00885195  0.25424895  1
  Zn  Zn93  1  0.38870789  0.50624847  0.37392109  1
  Zn  Zn94  1  0.51067390  0.38766874  0.38704222  1
  Zn  Zn95  1  -0.00405507  0.49672724  0.00176538  1
  Zn  Zn96  1  0.50446200  0.12777452  0.12787701  1
  Zn  Zn97  1  0.37954017  0.00229708  0.37444636  1
  Zn  Zn98  1  0.26112755  0.88321996  0.11802343  1
  Zn  Zn99  1  0.76583800  0.25083126  -0.00096722  1
  Zn  Zn100  1  0.12680178  0.87642596  0.24943884  1
  Zn  Zn101  1  0.37593547  0.25801082  0.12998352  1
  Zn  Zn102  1  0.87624263  0.62419156  0.25268725  1
  Zn  Zn103  1  0.49846763  -0.00489102  0.01049346  1
  Zn  Zn104  1  0.87560037  0.50105144  0.37486210  1
  Zn  Zn105  1  0.50066291  0.86811304  0.88676736  1
  Zn  Zn106  1  0.36851231  0.37916331  0.00703763  1
  Zn  Zn107  1  0.18484630  0.17945154  0.18516563  1
  Zn  Zn108  1  0.18758685  0.18149327  0.68618704  1
  Zn  Zn109  1  0.18814846  0.68647052  0.18749294  1
  Zn  Zn110  1  0.18806928  0.68712724  0.68586759  1
  Zn  Zn111  1  0.69119142  0.18897548  0.19102214  1
  Zn  Zn112  1  0.68872257  0.18484101  0.69313242  1
  Zn  Zn113  1  0.69011528  0.67939397  0.18998784  1
  Zn  Zn114  1  0.68025974  0.68833522  0.68352020  1
  Zn  Zn115  1  0.33383902  0.31388612  0.31929170  1
  Zn  Zn116  1  0.31810760  0.31191747  0.81297131  1
  Zn  Zn117  1  0.31521420  0.81268570  0.30994375  1
  Zn  Zn118  1  0.31577395  0.81388138  0.81381404  1
  Zn  Zn119  1  0.81163825  0.31169785  0.31131874  1
  Zn  Zn120  1  0.81135755  0.31258998  0.81060341  1
  Zn  Zn121  1  0.81046080  0.80663631  0.31929997  1
  Zn  Zn122  1  0.81135693  0.81542061  0.81085950  1
  Zn  Zn123  1  0.19648924  0.43757016  0.44873448  1
  Zn  Zn124  1  0.18195268  0.43748815  0.93622568  1
  Zn  Zn125  1  0.18401705  0.93993781  0.43436528  1
  Zn  Zn126  1  0.19091440  0.93801168  0.93303992  1
  Zn  Zn127  1  0.68963326  0.44022213  0.44014421  1
  Zn  Zn128  1  0.68642985  0.43438936  0.94074957  1
  Zn  Zn129  1  0.67525041  0.90454190  0.45352876  1
  Zn  Zn130  1  0.68188575  0.93692186  0.93346855  1
  Zn  Zn131  1  0.31386472  0.07187797  0.06612283  1
  Zn  Zn132  1  0.31351407  0.06811368  0.56213084  1
  Zn  Zn133  1  0.31193398  0.56198240  0.06602576  1
  Zn  Zn134  1  0.30751922  0.56751728  0.56499972  1
  Zn  Zn135  1  0.81004310  0.06332484  0.05942524  1
  Zn  Zn136  1  0.81562630  0.06141741  0.55731783  1
  Zn  Zn137  1  0.81423433  0.56320815  0.06350129  1
  Zn  Zn138  1  0.79058674  0.59192024  0.57586805  1
  Zn  Zn139  1  0.43145615  0.43902889  0.18793795  1
  Zn  Zn140  1  0.43643214  0.43358296  0.68499145  1
  Zn  Zn141  1  0.44329512  0.93983711  0.18542895  1
  Zn  Zn142  1  0.45818235  0.93225839  0.68299978  1
  Zn  Zn143  1  0.94313887  0.44145310  0.19171764  1
  Zn  Zn144  1  0.93368492  0.43719392  0.69142135  1
  Zn  Zn145  1  0.93576515  0.93809365  0.18769961  1
  Zn  Zn146  1  0.93958270  0.94268398  0.68776471  1
  Zn  Zn147  1  0.06348096  0.06465770  0.31179409  1
  Zn  Zn148  1  0.06451431  0.06169426  0.80881414  1
  Zn  Zn149  1  0.06392521  0.55851141  0.31046597  1
  Zn  Zn150  1  0.06070721  0.56116417  0.81324027  1
  Zn  Zn151  1  0.56811812  0.06263654  0.31430010  1
  Zn  Zn152  1  0.56369710  0.06450631  0.81271229  1
  Zn  Zn153  1  0.56666634  0.56134331  0.31077425  1
  Zn  Zn154  1  0.55966598  0.56724307  0.81502146  1
  Zn  Zn155  1  0.44300772  0.18925242  0.43483501  1
  Zn  Zn156  1  0.43789303  0.18509162  0.93854689  1
  Zn  Zn157  1  0.43299949  0.68906310  0.43522712  1
  Zn  Zn158  1  0.43726178  0.68134649  0.93914131  1
  Zn  Zn159  1  0.93213330  0.18995429  0.43724206  1
  Zn  Zn160  1  0.93911958  0.18258531  0.93237187  1
  Zn  Zn161  1  0.93309566  0.68557924  0.43416627  1
  Zn  Zn162  1  0.93668395  0.68688781  0.93517580  1
  Zn  Zn163  1  -0.05272687  0.30865565  0.06101185  1
  Zn  Zn164  1  0.06212774  0.31387154  0.56406469  1
  Zn  Zn165  1  0.06537959  0.81294439  0.06228061  1
  Zn  Zn166  1  0.05915354  0.81481101  0.56180827  1
  Zn  Zn167  1  0.56518102  0.31048655  0.06072842  1
  Zn  Zn168  1  0.55882447  0.31402421  0.56243509  1
  Zn  Zn169  1  0.56526566  0.81794532  0.06287895  1
  Zn  Zn170  1  0.56042931  0.82117365  0.57400987  1
  O  O171  1  0.11429211  0.11409474  0.11997844  1
  O  O172  1  0.12021216  0.11542764  0.61750605  1
  O  O173  1  0.11439037  0.62641907  0.11651085  1
  O  O174  1  0.11837240  0.61868602  0.61987852  1
  O  O175  1  0.63039712  0.12208360  0.11698082  1
  O  O176  1  0.61261212  0.13089138  0.62696752  1
  O  O177  1  0.62117671  0.61374359  0.12009117  1
  O  O178  1  0.60376239  0.61535363  0.62874214  1
  O  O179  1  0.37954608  0.38530128  0.39060287  1
  O  O180  1  0.38919445  0.37498016  0.88152972  1
  O  O181  1  0.38535018  0.87706726  0.37924909  1
  O  O182  1  0.36620230  0.89369431  0.88159521  1
  O  O183  1  0.88139913  0.37550836  0.38504697  1
  O  O184  1  0.88353627  0.38300598  0.86661763  1
  O  O185  1  0.88854417  0.87093874  0.37855969  1
  O  O186  1  0.88234051  0.88120924  0.88129213  1
  O  O187  1  0.25068646  0.00981752  0.36629952  1
  O  O188  1  0.26018813  0.00710412  0.86629966  1
  O  O189  1  0.24544780  0.51440257  0.37588215  1
  O  O190  1  0.24799357  0.50592172  0.86485111  1
  O  O191  1  0.74183751  0.01229848  0.37804535  1
  O  O192  1  0.75854680  0.00676223  0.87157204  1
  O  O193  1  0.75133980  0.49033446  0.35652793  1
  O  O194  1  0.75373413  0.50170869  0.86964999  1
  O  O195  1  0.23362600  0.50162737  0.12339774  1
  O  O196  1  0.24133183  0.50615572  0.63948596  1
  O  O197  1  0.24308620  1.00447550  0.13124120  1
  O  O198  1  0.24247490  1.00615222  0.63187875  1
  O  O199  1  0.74871585  0.49131631  0.12892107  1
  O  O200  1  0.73634662  0.49685462  0.63337665  1
  O  O201  1  0.73945594  1.00328095  0.12803441  1
  O  O202  1  0.75791944  1.01018595  0.64097535  1
  O  O203  1  -0.00413976  0.36526828  0.25989010  1
  O  O204  1  0.00667094  0.36453760  0.75569059  1
  O  O205  1  0.00278973  0.87089416  0.25591690  1
  O  O206  1  0.00531454  0.86828594  0.75423722  1
  O  O207  1  0.49865790  0.36422617  0.25472786  1
  O  O208  1  0.49493243  0.36244204  0.75750374  1
  O  O209  1  0.50591593  0.87734036  0.26356705  1
  O  O210  1  0.46468085  0.85015070  0.77109319  1
  O  O211  1  0.49508660  0.13389162  0.25400041  1
  O  O212  1  0.49442855  0.13090289  0.74233960  1
  O  O213  1  0.49195237  0.61931481  0.23890928  1
  O  O214  1  0.48488792  0.63139094  0.74921598  1
  O  O215  1  0.99397340  0.13039889  0.24471968  1
  O  O216  1  1.00681863  0.13811057  0.74333519  1
  O  O217  1  1.00009019  0.63188690  0.24119937  1
  O  O218  1  0.99316469  0.63203628  0.74774482  1
  O  O219  1  0.35835043  0.24517681  -0.00069279  1
  O  O220  1  0.37451331  0.24316416  0.51330498  1
  O  O221  1  0.35982943  0.74134431  0.00254745  1
  O  O222  1  0.36658706  0.76003798  0.50422829  1
  O  O223  1  0.87893953  0.24749585  -0.00211605  1
  O  O224  1  0.87293389  0.26239969  0.50980854  1
  O  O225  1  0.87060156  0.75541446  0.00500124  1
  O  O226  1  0.88838943  0.76295707  0.50488559  1
  O  O227  1  0.12170948  0.23600671  0.50748219  1
  O  O228  1  0.13787582  0.24041825  0.98760879  1
  O  O229  1  0.12969391  0.74683473  0.49551860  1
  O  O230  1  0.12965614  0.74063142  0.99325937  1
  O  O231  1  0.62569355  0.25075452  0.48784180  1
  O  O232  1  0.62778393  0.24121327  0.98881615  1
  O  O233  1  0.63434483  0.80300062  0.49758783  1
  O  O234  1  0.63661423  0.74286675  1.00317042  1
  O  O235  1  0.50675226  0.24816591  0.13894967  1
  O  O236  1  0.49344334  0.24346238  0.63274353  1
  O  O237  1  0.50390007  0.73307372  0.11598039  1
  O  O238  1  0.48809129  0.73624134  0.63338560  1
  O  O239  1  1.00321157  0.23939889  0.13572997  1
  O  O240  1  0.99221632  0.24699489  0.63170900  1
  O  O241  1  0.99440664  0.74558005  0.12920354  1
  O  O242  1  1.00783361  0.74294744  0.63847712  1
  O  O243  1  -0.00161912  0.26053905  0.36924527  1
  O  O244  1  0.00746191  0.25378011  0.86603833  1
  O  O245  1  0.00507094  0.75523748  0.36724363  1
  O  O246  1  0.00663005  0.75350690  0.86470567  1
  O  O247  1  0.51474613  0.25216157  0.36749148  1
  O  O248  1  0.50532306  0.25502541  0.86948074  1
  O  O249  1  0.49915159  0.76418327  0.37925869  1
  O  O250  1  0.50327818  0.74204233  0.86960283  1
  O  O251  1  0.24277901  0.12193839  0.48601981  1
  O  O252  1  0.24452692  0.13133505  0.99239809  1
  O  O253  1  0.24303825  0.63574180  0.49292568  1
  O  O254  1  0.24124324  0.63239374  0.99583311  1
  O  O255  1  0.75572954  0.12828017  0.48695496  1
  O  O256  1  0.74399144  0.12879508  0.98822466  1
  O  O257  1  0.74584125  0.59113941  0.47180587  1
  O  O258  1  0.74867619  0.63340412  0.99545181  1
  O  O259  1  0.24776224  0.35887283  -0.01043185  1
  O  O260  1  0.27025336  0.36973633  0.50155206  1
  O  O261  1  0.24308196  0.85871828  -0.00147586  1
  O  O262  1  0.25390801  0.86368174  0.49057384  1
  O  O263  1  0.75232088  0.37401845  0.01421328  1
  O  O264  1  0.75670321  0.37478714  0.51357529  1
  O  O265  1  0.75431710  0.86276206  -0.00523900  1
  O  O266  1  0.77742534  0.87739913  0.50052827  1
  O  O267  1  0.12659542  0.50040957  0.23449324  1
  O  O268  1  0.13000178  0.49189303  0.74704750  1
  O  O269  1  0.13340610  1.00218352  0.24036906  1
  O  O270  1  0.13465747  0.99538433  0.74126499  1
  O  O271  1  0.64237336  0.50193558  0.23770760  1
  O  O272  1  0.63290890  0.50491116  0.74885391  1
  O  O273  1  0.63099199  0.99466216  0.24421969  1
  O  O274  1  0.64360990  1.00557556  0.75437804  1
  O  O275  1  0.36952442  0.01075167  0.25273327  1
  O  O276  1  0.37284036  0.00469106  0.75060215  1
  O  O277  1  0.36513683  0.51126338  0.25168703  1
  O  O278  1  0.36656618  0.50365991  0.75060390  1
  O  O279  1  0.87344870  0.01214999  0.24882124  1
  O  O280  1  0.86943655  -0.00331300  0.76181471  1
  O  O281  1  0.86496771  0.50275679  0.24850564  1
  O  O282  1  0.86495582  0.50634852  0.75973257  1
  O  O283  1  0.12089298  0.36981982  0.38284089  1
  O  O284  1  0.11645283  0.37068389  0.86306743  1
  O  O285  1  0.11505986  0.86674996  0.37449157  1
  O  O286  1  0.11985165  0.87167313  0.86600979  1
  O  O287  1  0.62833359  0.36164824  0.37810665  1
  O  O288  1  0.61375774  0.36601211  0.87992239  1
  O  O289  1  0.61086483  0.88157949  0.35920487  1
  O  O290  1  0.61935422  0.87111834  0.86540186  1
  O  O291  1  0.37695847  0.13484817  0.14017930  1
  O  O292  1  0.38068545  0.13406966  0.63276117  1
  O  O293  1  0.38577244  0.62542539  0.13037382  1
  O  O294  1  0.38003305  0.63097062  0.63110354  1
  O  O295  1  0.88595008  0.11863522  0.13059207  1
  O  O296  1  0.88112155  0.13973408  0.61771585  1
  O  O297  1  0.88873390  0.63266900  0.12284042  1
  O  O298  1  0.88538653  0.61085698  0.64197626  1
  O  O299  1  0.24459721  0.24513233  0.11058698  1
  O  O300  1  0.26539541  0.24487505  0.63130007  1
  O  O301  1  0.24528111  0.75158257  0.10988538  1
  O  O302  1  0.25786005  0.74442970  0.61309331  1
  O  O303  1  0.75053994  0.26651335  0.12543001  1
  O  O304  1  0.75450473  0.25709819  0.62845028  1
  O  O305  1  0.76431681  0.74070009  0.11741016  1
  O  O306  1  0.75631353  0.69931532  0.60492209  1
  O  O307  1  0.24039602  0.24686034  0.36439303  1
  O  O308  1  0.24674245  0.24167400  0.87395791  1
  O  O309  1  0.24306817  0.74228387  0.37996493  1
  O  O310  1  0.24549592  0.74473532  0.88299197  1
  O  O311  1  0.73982836  0.24789695  0.37656598  1
  O  O312  1  0.74313704  0.24421638  0.87334851  1
  O  O313  1  0.75919367  0.73364570  0.39205271  1
  O  O314  1  0.75144395  0.74323752  0.88313720  1
  O  O315  1  0.00656035  0.11790011  0.00669593  1
  O  O316  1  0.00505716  0.11984196  0.50139597  1
  O  O317  1  0.00835871  0.62539742  0.00482978  1
  O  O318  1  0.00458998  0.61817421  0.50465193  1
  O  O319  1  0.51177583  0.12243694  0.00219582  1
  O  O320  1  0.50024873  0.11440461  0.50231499  1
  O  O321  1  0.50642699  0.61209953  0.00518948  1
  O  O322  1  0.49148197  0.62873647  0.51336450  1
  O  O323  1  0.47859980  0.36543516  0.50100529  1
  O  O324  1  0.50248127  0.38537790  0.99458502  1
  O  O325  1  0.48986803  0.89051047  0.48894919  1
  O  O326  1  0.50337234  0.88255596  0.99801590  1
  O  O327  1  0.99429562  0.37758575  0.49497859  1
  O  O328  1  1.00420765  0.37659459  0.98371083  1
  O  O329  1  0.99548038  0.88303030  0.49254713  1
  O  O330  1  0.99732283  0.88047009  0.99272207  1
  O  O331  1  0.50185452  0.49933647  0.37303402  1
  O  O332  1  0.50070938  0.49221376  0.88258405  1
  O  O333  1  0.49887581  1.00120281  0.38794294  1
  O  O334  1  0.48444503  1.00088265  0.87046912  1
  O  O335  1  1.00119172  0.48668381  0.38016068  1
  O  O336  1  0.99136888  0.48971998  0.87190514  1
  O  O337  1  1.00733320  0.99175168  0.38265482  1
  O  O338  1  0.99415658  0.99665483  0.87759024  1
  O  O339  1  0.00660667  0.00515995  0.11888258  1
  O  O340  1  0.00855278  0.00938421  0.62024369  1
  O  O341  1  0.00754976  0.50990319  0.12174969  1
  O  O342  1  0.00698489  0.50257600  0.62278123  1
  O  O343  1  0.51658737  0.00956501  0.12785337  1
  O  O344  1  0.48544430  0.01496935  0.60334252  1
  O  O345  1  0.50974593  0.50286844  0.11934114  1
  O  O346  1  0.50141921  0.51203417  0.63216922  1
  O  O347  1  0.23911506  0.36783503  0.26641063  1
  O  O348  1  0.24235089  0.38255746  0.75678843  1
  O  O349  1  0.24840838  0.89066334  0.25253508  1
  O  O350  1  0.24751865  0.88627241  0.75194484  1
  O  O351  1  0.75896051  0.38396408  0.23416901  1
  O  O352  1  0.75374331  0.38503715  0.73853915  1
  O  O353  1  0.73679448  0.87331122  0.26088768  1
  O  O354  1  0.75115891  0.89093817  0.74899436  1
  O  O355  1  0.25548825  0.11867819  0.25785366  1
  O  O356  1  0.25848927  0.11355287  0.75280563  1
  O  O357  1  0.25299331  0.62279434  0.25743761  1
  O  O358  1  0.25748809  0.61837052  0.75360670  1
  O  O359  1  0.75840253  0.12439864  0.26089518  1
  O  O360  1  0.75155627  0.11731893  0.76337956  1
  O  O361  1  0.75642973  0.61179261  0.25676643  1
  O  O362  1  0.75492679  0.61783153  0.75751771  1
  O  O363  1  0.36628632  0.12847209  0.36630191  1
  O  O364  1  0.37235031  0.11975770  0.86095936  1
  O  O365  1  0.36513238  0.62527193  0.36846701  1
  O  O366  1  0.36696759  0.62039060  0.86602563  1
  O  O367  1  0.86110276  0.12870189  0.36928508  1
  O  O368  1  0.86791155  0.11294027  0.87644186  1
  O  O369  1  0.86832211  0.61804641  0.37075841  1
  O  O370  1  0.87037578  0.61849676  0.86490378  1
  O  O371  1  0.11704356  0.39006372  0.11798004  1
  O  O372  1  0.12177434  0.37933547  0.63788985  1
  O  O373  1  0.12817440  0.88885874  0.12492836  1
  O  O374  1  0.12033299  0.88850220  0.62874579  1
  O  O375  1  0.63540318  0.38434281  0.11948619  1
  O  O376  1  0.63052205  0.38117992  0.62577519  1
  O  O377  1  0.62209539  0.88334738  0.14197767  1
  O  O378  1  0.56376037  0.88837695  0.66071793  1
  O  O379  1  0.11689968  0.24966404  0.25155706  1
  O  O380  1  0.12093952  0.25510545  0.75155827  1
  O  O381  1  0.11932373  0.75366743  0.25459370  1
  O  O382  1  0.12129995  0.75553240  0.75432874  1
  O  O383  1  0.61730760  0.24906569  0.25978293  1
  O  O384  1  0.61556764  0.24357414  0.76438444  1
  O  O385  1  0.62868623  0.76188139  0.24216639  1
  O  O386  1  0.61168916  0.74837152  0.75089162  1
  O  O387  1  0.39281616  0.24525535  0.25257791  1
  O  O388  1  0.38352468  0.24174575  0.74339667  1
  O  O389  1  0.36681348  0.73400611  0.24493305  1
  O  O390  1  0.36936527  0.73844111  0.74107504  1
  O  O391  1  0.88517624  0.23815450  0.25339376  1
  O  O392  1  0.88467119  0.25352110  0.74170012  1
  O  O393  1  0.88069840  0.74966380  0.24121157  1
  O  O394  1  0.88351374  0.74066841  0.75576588  1
  O  O395  1  0.37013955  0.49325047  0.50485196  1
  O  O396  1  0.38421291  0.50109389  0.99735360  1
  O  O397  1  0.36390343  0.98712066  0.49674810  1
  O  O398  1  0.37561592  1.01443338  0.98578979  1
  O  O399  1  0.88353890  0.48609303  0.50334000  1
  O  O400  1  0.87690009  0.50786017  0.98276199  1
  O  O401  1  0.89246274  0.99162039  0.50658555  1
  O  O402  1  0.88019480  0.99457135  0.99162781  1
  O  O403  1  0.12232585  0.00458529  0.00409373  1
  O  O404  1  0.11719279  0.00582624  0.50622543  1
  O  O405  1  0.12186820  0.51137724  0.00539710  1
  O  O406  1  0.12100127  0.50401293  0.50817032  1
  O  O407  1  0.62866753  0.01073934  0.00651278  1
  O  O408  1  0.61643663  -0.00484850  0.50250915  1
  O  O409  1  0.61995860  0.50513888  0.00708826  1
  O  O410  1  0.61852212  0.49278567  0.51259686  1
  O  O411  1  0.37587203  0.37042130  0.11976067  1
  O  O412  1  0.37687816  0.36100129  0.61788515  1
  O  O413  1  0.37267607  0.87379730  0.13108664  1
  O  O414  1  0.38018899  0.86249442  0.61545957  1
  O  O415  1  0.87305970  0.37887760  0.12071499  1
  O  O416  1  0.86792617  0.36737906  0.62189840  1
  O  O417  1  0.88093405  0.86540284  0.11564406  1
  O  O418  1  0.88755869  0.87087779  0.61774912  1
  O  O419  1  0.13300675  0.12355106  0.38300718  1
  O  O420  1  0.13233115  0.12756893  0.87688279  1
  O  O421  1  0.12751907  0.63229533  0.38022202  1
  O  O422  1  0.12878114  0.62898261  0.88105003  1
  O  O423  1  0.63994638  0.13676421  0.37138988  1
  O  O424  1  0.63225469  0.13049831  0.88223344  1
  O  O425  1  0.64361277  0.62931016  0.36024870  1
  O  O426  1  0.63410229  0.62564424  0.88438813  1
