# generated using pymatgen
data_V85Zn86O256
_symmetry_space_group_name_H-M   'P 1'
_cell_length_a   16.93912603
_cell_length_b   16.94193624
_cell_length_c   16.95379204
_cell_angle_alpha   90.03909474
_cell_angle_beta   89.92047659
_cell_angle_gamma   89.98035898
_symmetry_Int_Tables_number   1
_chemical_formula_structural   V85Zn86O256
_chemical_formula_sum   'V85 Zn86 O256'
_cell_volume   4865.42014418
_cell_formula_units_Z   1
loop_
 _symmetry_equiv_pos_site_id
 _symmetry_equiv_pos_as_xyz
  1  'x, y, z'
loop_
 _atom_site_type_symbol
 _atom_site_label
 _atom_site_symmetry_multiplicity
 _atom_site_fract_x
 _atom_site_fract_y
 _atom_site_fract_z
 _atom_site_occupancy
  V  V0  1  0.75193355  0.87471009  0.62815152  1
  V  V1  1  0.50128161  0.37732158  0.87635398  1
  V  V2  1  0.87394387  0.50095646  0.37352573  1
  V  V3  1  0.87814951  0.62488160  0.23259769  1
  V  V4  1  -0.00258970  0.37452621  0.37596928  1
  V  V5  1  0.12039516  0.50532346  0.12322433  1
  V  V6  1  0.24257327  0.75016902  -0.00127016  1
  V  V7  1  0.49458974  0.76069347  0.26424274  1
  V  V8  1  0.62230767  0.87302169  0.74987982  1
  V  V9  1  0.37909708  0.73774872  0.62807478  1
  V  V10  1  0.38287432  0.87457892  0.49467850  1
  V  V11  1  0.13127075  0.24512947  0.87623812  1
  V  V12  1  0.11719204  0.88049286  0.24812307  1
  V  V13  1  0.49298463  0.23515822  0.75012186  1
  V  V14  1  -0.00292036  0.50257064  0.50502723  1
  V  V15  1  0.25461820  0.87550285  0.62826879  1
  V  V16  1  0.62673606  0.13152124  0.51193060  1
  V  V17  1  0.24640352  0.62249549  0.36981648  1
  V  V18  1  0.12893901  0.37922611  0.75138133  1
  V  V19  1  0.63397969  0.25157099  0.38286362  1
  V  V20  1  0.00238492  0.74448521  0.22346846  1
  V  V21  1  0.49976017  0.24866391  0.25412850  1
  V  V22  1  0.74885624  0.37295139  0.12532997  1
  V  V23  1  0.37799076  0.75072661  0.12289350  1
  V  V24  1  0.25111917  0.00043038  0.25039185  1
  V  V25  1  0.11855981  0.11157818  0.00731644  1
  V  V26  1  0.12151754  0.50586771  0.62770445  1
  V  V27  1  0.37911775  0.38191594  0.00118700  1
  V  V28  1  0.74756019  0.49911977  0.24701322  1
  V  V29  1  0.50227093  0.12301390  0.12592178  1
  V  V30  1  0.00080534  0.37839925  0.87742026  1
  V  V31  1  0.25591462  0.51034260  0.74981494  1
  V  V32  1  -0.00609089  0.73886353  0.75200948  1
  V  V33  1  0.37758697  0.50690068  0.87339522  1
  V  V34  1  0.87937654  0.87319383  0.49985755  1
  V  V35  1  0.62325559  0.37604625  0.25217702  1
  V  V36  1  0.75280825  0.49596231  0.74165832  1
  V  V37  1  0.00079683  0.25129133  0.74722113  1
  V  V38  1  0.49961983  0.73239769  0.74503576  1
  V  V39  1  0.12819940  0.37883044  0.24980194  1
  V  V40  1  0.87745456  0.50899336  0.86995770  1
  V  V41  1  0.25018659  0.24355732  -0.00100474  1
  V  V42  1  0.00001194  -0.00452856  0.49261109  1
  V  V43  1  0.75826866  0.12199961  0.87708946  1
  V  V44  1  0.11030414  0.75234057  0.37394154  1
  V  V45  1  0.37669917  0.25004165  0.12547901  1
  V  V46  1  0.87708056  0.73556699  0.62801399  1
  V  V47  1  0.37202679  0.23955966  0.62878076  1
  V  V48  1  0.12407157  0.87163057  0.74765935  1
  V  V49  1  0.49428308  0.50031084  0.50973683  1
  V  V50  1  0.86055804  0.37295756  0.50434589  1
  V  V51  1  0.49419406  0.37304716  0.38389901  1
  V  V52  1  0.25368176  0.25699533  0.49999873  1
  V  V53  1  0.75218151  0.24733310  -0.00047281  1
  V  V54  1  0.62649375  0.37203115  0.74015890  1
  V  V55  1  0.12418492  0.12656444  0.49656885  1
  V  V56  1  0.61792320  0.62862067  0.50558567  1
  V  V57  1  0.25167708  0.38005869  0.12823895  1
  V  V58  1  0.88142491  0.11895534  0.75011091  1
  V  V59  1  0.87748966  0.24459877  0.12380386  1
  V  V60  1  0.67218150  0.80714487  0.31625749  1
  V  V61  1  0.36916060  0.49500763  0.37839796  1
  V  V62  1  0.49940097  0.00772815  0.50361059  1
  V  V63  1  0.75092566  0.11522156  0.37714001  1
  V  V64  1  0.37494054  0.61968887  0.25107117  1
  V  V65  1  0.50344750  -0.00509305  -0.00122155  1
  V  V66  1  0.75200438  0.62512509  0.86946413  1
  V  V67  1  0.62943551  -0.00838291  0.14232287  1
  V  V68  1  0.24718086  0.88137739  0.12317220  1
  V  V69  1  0.12030274  0.62484326  0.49980069  1
  V  V70  1  0.12664199  -0.00058870  0.62199607  1
  V  V71  1  0.74452214  0.75093749  0.50008868  1
  V  V72  1  0.62669752  0.24896085  0.87554686  1
  V  V73  1  0.87312091  0.88491831  0.00901409  1
  V  V74  1  0.75435100  -0.00222703  0.75478127  1
  V  V75  1  0.37070044  0.00969507  0.86973982  1
  V  V76  1  0.74126375  0.62349583  0.37053986  1
  V  V77  1  -0.00232652  0.24459670  0.24860271  1
  V  V78  1  0.24902835  0.75133060  0.49895276  1
  V  V79  1  0.87601726  0.37529999  -0.00206453  1
  V  V80  1  0.62574619  0.75075730  0.87790267  1
  V  V81  1  0.61698321  0.61654256  -0.00212570  1
  V  V82  1  -0.00759647  0.89773095  0.87080472  1
  V  V83  1  0.12537734  0.24913049  0.37372048  1
  V  V84  1  0.86157611  0.25482039  0.62430806  1
  Zn  Zn85  1  0.87471830  -0.00752707  0.37120542  1
  Zn  Zn86  1  0.37583469  0.12205025  0.25214854  1
  Zn  Zn87  1  0.76032660  0.74817220  0.00957257  1
  Zn  Zn88  1  0.12047864  0.62833921  -0.00126565  1
  Zn  Zn89  1  0.25327695  0.63032256  0.87520686  1
  Zn  Zn90  1  0.25362907  0.12246164  0.37451257  1
  Zn  Zn91  1  0.27993173  0.04792099  0.73225902  1
  Zn  Zn92  1  0.49827779  0.87451404  0.87351767  1
  Zn  Zn93  1  0.12432092  0.75165334  0.87476009  1
  Zn  Zn94  1  0.62928478  0.12128576  0.00271189  1
  Zn  Zn95  1  -0.00186754  0.12584730  0.62211264  1
  Zn  Zn96  1  0.86266723  0.11233601  0.24412242  1
  Zn  Zn97  1  0.37590887  0.87437421  -0.00430982  1
  Zn  Zn98  1  0.61454550  0.49207424  0.11594851  1
  Zn  Zn99  1  0.62226642  0.49955731  0.62549782  1
  Zn  Zn100  1  -0.00372576  0.10291620  0.12338850  1
  Zn  Zn101  1  0.38142916  -0.00170480  0.37234599  1
  Zn  Zn102  1  0.49730022  0.61865064  0.12431213  1
  Zn  Zn103  1  -0.00989281  0.51412297  0.00821108  1
  Zn  Zn104  1  0.25559560  0.37807146  0.62093419  1
  Zn  Zn105  1  0.74912852  0.87152218  0.13494739  1
  Zn  Zn106  1  0.61963754  0.00663106  0.63152993  1
  Zn  Zn107  1  0.18741123  0.18830415  0.18483388  1
  Zn  Zn108  1  0.18662043  0.18932645  0.68335246  1
  Zn  Zn109  1  0.19074907  0.69113026  0.18700160  1
  Zn  Zn110  1  0.18694598  0.68823695  0.68599640  1
  Zn  Zn111  1  0.68491049  0.18517215  0.19167157  1
  Zn  Zn112  1  0.68926150  0.18822935  0.69372901  1
  Zn  Zn113  1  0.68743320  0.68452530  0.17880362  1
  Zn  Zn114  1  0.68781775  0.68541800  0.68753340  1
  Zn  Zn115  1  0.31207303  0.31055818  0.31254672  1
  Zn  Zn116  1  0.31348011  0.31439807  0.81318354  1
  Zn  Zn117  1  0.30820244  0.81171739  0.31267328  1
  Zn  Zn118  1  0.31828373  0.81692655  0.81199558  1
  Zn  Zn119  1  0.81265651  0.30927165  0.31310263  1
  Zn  Zn120  1  0.81403403  0.31311112  0.81079253  1
  Zn  Zn121  1  0.83763391  0.81190283  0.30810227  1
  Zn  Zn122  1  0.81899436  0.81093754  0.82041612  1
  Zn  Zn123  1  0.18525203  0.43808907  0.43668629  1
  Zn  Zn124  1  0.19168185  0.43731791  0.93983799  1
  Zn  Zn125  1  0.18938690  0.93390249  0.43358717  1
  Zn  Zn126  1  0.19478310  0.93339584  0.92821355  1
  Zn  Zn127  1  0.68168787  0.44138111  0.43818264  1
  Zn  Zn128  1  0.69059560  0.43585118  0.93164771  1
  Zn  Zn129  1  0.68489592  0.94213419  0.44717780  1
  Zn  Zn130  1  0.68939413  0.93764011  0.93932825  1
  Zn  Zn131  1  0.31548164  0.06208870  0.05945531  1
  Zn  Zn132  1  0.31284442  0.06664271  0.55819325  1
  Zn  Zn133  1  0.30938982  0.56282528  0.06335960  1
  Zn  Zn134  1  0.30793639  0.56177575  0.55900656  1
  Zn  Zn135  1  0.81278761  0.05430015  0.06378012  1
  Zn  Zn136  1  0.81110426  0.06420552  0.56340924  1
  Zn  Zn137  1  0.80258137  0.55955709  0.05576767  1
  Zn  Zn138  1  0.80762617  0.56160590  0.55901242  1
  Zn  Zn139  1  0.43893795  0.43999232  0.19223669  1
  Zn  Zn140  1  0.43422145  0.42607846  0.68926906  1
  Zn  Zn141  1  0.43630450  0.93643348  0.18527326  1
  Zn  Zn142  1  0.43869501  0.93714957  0.68514406  1
  Zn  Zn143  1  0.93777680  0.43439230  0.18792958  1
  Zn  Zn144  1  0.93766615  0.43842438  0.68722400  1
  Zn  Zn145  1  0.93600091  0.93546448  0.19274788  1
  Zn  Zn146  1  0.94161730  0.93570981  0.68346738  1
  Zn  Zn147  1  0.06087881  0.06103037  0.30944677  1
  Zn  Zn148  1  0.09385741  0.07127207  0.80274977  1
  Zn  Zn149  1  0.05958616  0.56296994  0.30868652  1
  Zn  Zn150  1  0.06580204  0.56741297  0.82050858  1
  Zn  Zn151  1  0.56115129  0.06275346  0.32056724  1
  Zn  Zn152  1  0.56810391  0.05943516  0.81887164  1
  Zn  Zn153  1  0.55741150  0.56175622  0.31373271  1
  Zn  Zn154  1  0.56506171  0.55757084  0.81322610  1
  Zn  Zn155  1  0.43609126  0.18365307  0.43884497  1
  Zn  Zn156  1  0.43927437  0.18649879  0.93975584  1
  Zn  Zn157  1  0.43450253  0.68510015  0.44039081  1
  Zn  Zn158  1  0.43874685  0.69128492  0.93592594  1
  Zn  Zn159  1  0.93529697  0.18827098  0.44009399  1
  Zn  Zn160  1  0.94316323  0.18369084  0.93522487  1
  Zn  Zn161  1  0.93069227  0.68325846  0.43726105  1
  Zn  Zn162  1  0.94521205  0.69949387  0.94567594  1
  Zn  Zn163  1  0.06208968  0.31458619  0.06217812  1
  Zn  Zn164  1  0.06140120  0.31740239  0.56388446  1
  Zn  Zn165  1  0.06257097  0.92893548  0.05698453  1
  Zn  Zn166  1  0.06027657  0.80948296  0.56532249  1
  Zn  Zn167  1  0.56303084  0.31008197  0.06129634  1
  Zn  Zn168  1  0.55320288  0.30845633  0.56597124  1
  Zn  Zn169  1  0.56435549  0.80931795  0.06568700  1
  Zn  Zn170  1  0.56083012  0.81375425  0.56273081  1
  O  O171  1  0.12168258  0.13114564  0.10888716  1
  O  O172  1  0.12166500  0.11555714  0.61273934  1
  O  O173  1  0.13457991  0.60612424  0.13114302  1
  O  O174  1  0.12924646  0.61318798  0.61720534  1
  O  O175  1  0.61693481  0.11659151  0.12559919  1
  O  O176  1  0.63260687  0.12718842  0.61573676  1
  O  O177  1  0.62364013  0.62035334  0.10710106  1
  O  O178  1  0.63202747  0.62004217  0.60955073  1
  O  O179  1  0.38134617  0.38268974  0.37103323  1
  O  O180  1  0.38253675  0.38057087  0.88310654  1
  O  O181  1  0.36531250  0.87513362  0.39195287  1
  O  O182  1  0.38118071  0.88718295  0.87716420  1
  O  O183  1  0.87963644  0.37892478  0.38152970  1
  O  O184  1  0.88199670  0.38122872  0.87895018  1
  O  O185  1  0.87035601  0.87410769  0.39475533  1
  O  O186  1  0.89012507  0.89045310  0.86220100  1
  O  O187  1  0.25309496  0.00045262  0.36437297  1
  O  O188  1  0.26888277  0.00108172  0.87512934  1
  O  O189  1  0.25527197  0.50949128  0.38055295  1
  O  O190  1  0.25933608  0.49986656  0.86732434  1
  O  O191  1  0.74876568  0.01253603  0.38112854  1
  O  O192  1  0.74764796  0.00728938  0.86247974  1
  O  O193  1  0.75433739  0.50631267  0.36850356  1
  O  O194  1  0.75758607  0.50568809  0.86604970  1
  O  O195  1  0.24215447  0.48574220  0.12340108  1
  O  O196  1  0.24393334  0.49674458  0.63170414  1
  O  O197  1  0.25808045  0.98899037  0.13086297  1
  O  O198  1  0.24474057  0.99357739  0.62575686  1
  O  O199  1  0.74200114  0.48995474  0.12977469  1
  O  O200  1  0.75057412  0.50143727  0.63840048  1
  O  O201  1  0.73358898  0.99638265  0.12713793  1
  O  O202  1  0.74931529  0.99236809  0.63681941  1
  O  O203  1  0.00459994  0.36316455  0.25542646  1
  O  O204  1  0.01015186  0.37162626  0.75635937  1
  O  O205  1  0.00826138  0.85592004  0.24686672  1
  O  O206  1  0.00666531  0.86948085  0.75317837  1
  O  O207  1  0.50481392  0.36888969  0.26240298  1
  O  O208  1  0.50831021  0.36408492  0.75938781  1
  O  O209  1  0.49393041  0.85943528  0.24959422  1
  O  O210  1  0.51550790  0.87200031  0.74764572  1
  O  O211  1  0.50168883  0.13196527  0.24442865  1
  O  O212  1  0.50941278  0.13785947  0.75656889  1
  O  O213  1  0.48688923  0.63297283  0.25308004  1
  O  O214  1  0.50791959  0.63318136  0.74886220  1
  O  O215  1  1.00319963  0.13788834  0.24536810  1
  O  O216  1  0.99710792  0.13448587  0.74926359  1
  O  O217  1  0.99218762  0.63355880  0.24767033  1
  O  O218  1  1.00379830  0.64025966  0.75308226  1
  O  O219  1  0.36901707  0.25662112  0.00569037  1
  O  O220  1  0.36372096  0.23947477  0.51192896  1
  O  O221  1  0.37078383  0.75041086  0.00945252  1
  O  O222  1  0.37139933  0.75774311  0.50694304  1
  O  O223  1  0.87280810  0.25332587  0.00609476  1
  O  O224  1  0.88184146  0.26109260  0.51249083  1
  O  O225  1  0.86900503  0.77656391  -0.02642315  1
  O  O226  1  0.86795272  0.75466920  0.50742715  1
  O  O227  1  0.12690971  0.24351442  0.49571795  1
  O  O228  1  0.13329504  0.25233862  0.99356995  1
  O  O229  1  0.12630239  0.74443595  0.49329374  1
  O  O230  1  0.14110945  0.75447540  1.00076238  1
  O  O231  1  0.61607316  0.24275159  0.49478540  1
  O  O232  1  0.63459140  0.24613328  0.99368219  1
  O  O233  1  0.63074940  0.74214986  0.50392316  1
  O  O234  1  0.62563818  0.74109928  0.98934919  1
  O  O235  1  0.49748342  0.24192391  0.13119007  1
  O  O236  1  0.48913667  0.24673756  0.64088252  1
  O  O237  1  0.49015311  0.74341594  0.13329145  1
  O  O238  1  0.49150356  0.75206270  0.63299463  1
  O  O239  1  0.98738771  0.25419113  0.13081848  1
  O  O240  1  0.99962721  0.25162302  0.63836449  1
  O  O241  1  1.00838604  0.74585885  0.12911632  1
  O  O242  1  0.98919834  0.75458875  0.63804628  1
  O  O243  1  0.00411876  0.25366418  0.36769906  1
  O  O244  1  0.00584677  0.25796616  0.86480345  1
  O  O245  1  0.00922427  0.74293599  0.37588709  1
  O  O246  1  0.00169599  0.76203715  0.85882132  1
  O  O247  1  0.50494662  0.25643434  0.37363050  1
  O  O248  1  0.50439071  0.25565822  0.86817978  1
  O  O249  1  0.49154103  0.74945092  0.36326825  1
  O  O250  1  0.51023563  0.75155603  0.86493331  1
  O  O251  1  0.23649858  0.13309253  0.49768976  1
  O  O252  1  0.24045196  0.13743590  1.00660399  1
  O  O253  1  0.24073891  0.63128901  0.48987737  1
  O  O254  1  0.24721221  0.63575927  1.00064930  1
  O  O255  1  0.73935450  0.12383681  0.49170495  1
  O  O256  1  0.75307099  0.12813596  0.99214778  1
  O  O257  1  0.74401726  0.63175667  0.48883562  1
  O  O258  1  0.74072800  0.62806356  0.98544788  1
  O  O259  1  0.25852073  0.36531020  0.00799583  1
  O  O260  1  0.24260755  0.36087000  0.49953809  1
  O  O261  1  0.25366044  0.87038948  0.00793624  1
  O  O262  1  0.25470177  0.86997602  0.51058490  1
  O  O263  1  0.75599089  0.36715384  0.00345408  1
  O  O264  1  0.76163822  0.38282688  0.49649057  1
  O  O265  1  0.76279503  0.87630696  -0.00077362  1
  O  O266  1  0.75369829  0.87030789  0.51115921  1
  O  O267  1  0.11900063  0.48584719  0.24177939  1
  O  O268  1  0.12939630  0.49707297  0.74497400  1
  O  O269  1  0.13159092  0.98599162  0.25769193  1
  O  O270  1  0.11664505  0.98280178  0.72926239  1
  O  O271  1  0.63007267  0.49012861  0.25415858  1
  O  O272  1  0.63146305  0.48937345  0.74704151  1
  O  O273  1  0.61807340  1.00107968  0.24030349  1
  O  O274  1  0.63442346  0.99141444  0.74927869  1
  O  O275  1  0.36625934  -0.00101322  0.25213057  1
  O  O276  1  0.37861726  0.00013510  0.76135915  1
  O  O277  1  0.37608339  0.50922983  0.26472303  1
  O  O278  1  0.36611244  0.49047589  0.75954243  1
  O  O279  1  0.87670087  0.00127445  0.25964747  1
  O  O280  1  0.87142688  0.01289327  0.74020074  1
  O  O281  1  0.86975624  0.50423209  0.25449056  1
  O  O282  1  0.86679628  0.49265477  0.75927244  1
  O  O283  1  0.11871713  0.37046401  0.36693602  1
  O  O284  1  0.11936837  0.37068917  0.87075614  1
  O  O285  1  0.13056057  0.86175041  0.36293680  1
  O  O286  1  0.12027864  0.87302238  0.86200270  1
  O  O287  1  0.61687954  0.36874419  0.37268665  1
  O  O288  1  0.61756257  0.36813033  0.87009077  1
  O  O289  1  0.62646743  0.86879203  0.37849411  1
  O  O290  1  0.62599440  0.86607583  0.86740865  1
  O  O291  1  0.38769003  0.12947075  0.12668699  1
  O  O292  1  0.35023481  0.13679789  0.64180138  1
  O  O293  1  0.37160489  0.63089496  0.13550424  1
  O  O294  1  0.36853268  0.63898091  0.61837857  1
  O  O295  1  0.87702143  0.13090189  0.12587092  1
  O  O296  1  0.87788853  0.13499742  0.63174944  1
  O  O297  1  0.86710264  0.61432998  0.13418332  1
  O  O298  1  0.87030898  0.63667515  0.61914560  1
  O  O299  1  0.25622053  0.25894439  0.11921760  1
  O  O300  1  0.24859260  0.25495173  0.61621514  1
  O  O301  1  0.25965756  0.75803601  0.12034906  1
  O  O302  1  0.25581441  0.75630934  0.61827500  1
  O  O303  1  0.75991397  0.25114188  0.12218467  1
  O  O304  1  0.76264580  0.25337960  0.63428574  1
  O  O305  1  0.74357454  0.75852731  0.12103033  1
  O  O306  1  0.75719074  0.75663278  0.62333653  1
  O  O307  1  0.24282688  0.24763915  0.38159896  1
  O  O308  1  0.24145528  0.25778320  0.88475480  1
  O  O309  1  0.24092663  0.74157410  0.38089178  1
  O  O310  1  0.25448423  0.75249854  0.88491315  1
  O  O311  1  0.73697432  0.24844918  0.37780120  1
  O  O312  1  0.74803579  0.24252111  0.87889646  1
  O  O313  1  0.74263442  0.74625753  0.37272100  1
  O  O314  1  0.73870582  0.74094186  0.86766281  1
  O  O315  1  0.01391929  0.12647361  0.00464684  1
  O  O316  1  0.01014401  0.11996760  0.50036484  1
  O  O317  1  0.00622646  0.62450132  -0.00376883  1
  O  O318  1  0.00343402  0.61044994  0.49284554  1
  O  O319  1  0.50507192  0.11937750  0.01070215  1
  O  O320  1  0.50895938  0.11662382  0.50226815  1
  O  O321  1  0.51454164  0.62708186  -0.00320599  1
  O  O322  1  0.50775000  0.61479654  0.49344620  1
  O  O323  1  0.50169932  0.38126054  0.48975627  1
  O  O324  1  0.49051946  0.36617059  0.99026094  1
  O  O325  1  0.49116963  0.88515326  0.50489772  1
  O  O326  1  0.49933843  0.88191582  0.99977315  1
  O  O327  1  0.99623221  0.38630168  0.49346234  1
  O  O328  1  0.99252353  0.37754477  0.99214508  1
  O  O329  1  0.99092260  0.88182681  0.50726125  1
  O  O330  1  0.99111262  0.88043325  0.97922624  1
  O  O331  1  0.49079601  0.49141450  0.38363267  1
  O  O332  1  0.49364544  0.48552159  0.86937374  1
  O  O333  1  0.49984785  1.00084810  0.39514158  1
  O  O334  1  0.49721619  0.99734954  0.88368495  1
  O  O335  1  0.99261877  0.49457632  0.37941522  1
  O  O336  1  0.99245714  0.49396038  0.87369803  1
  O  O337  1  0.99996273  1.00347132  0.38907127  1
  O  O338  1  1.01421327  0.99377735  0.86019586  1
  O  O339  1  0.01057686  -0.00768803  0.13209420  1
  O  O340  1  0.00885604  0.00187796  0.61221798  1
  O  O341  1  0.01548877  0.49111851  0.12398328  1
  O  O342  1  0.00793935  0.49762725  0.61671134  1
  O  O343  1  0.50628360  0.00586673  0.11983444  1
  O  O344  1  0.50297112  -0.00218243  0.61171482  1
  O  O345  1  0.50251902  0.50448617  0.12907157  1
  O  O346  1  0.49381456  0.49130154  0.61257021  1
  O  O347  1  0.23940818  0.36830209  0.24150526  1
  O  O348  1  0.23744742  0.38309493  0.75283009  1
  O  O349  1  0.24361134  0.88214091  0.24329168  1
  O  O350  1  0.24203391  0.86782521  0.73626809  1
  O  O351  1  0.74410443  0.37801587  0.24596296  1
  O  O352  1  0.73801712  0.38270933  0.75881598  1
  O  O353  1  0.74068023  0.86028724  0.26126992  1
  O  O354  1  0.74607128  0.87984211  0.74749034  1
  O  O355  1  0.24674273  0.11031043  0.24562616  1
  O  O356  1  0.19929863  0.11510724  0.76373099  1
  O  O357  1  0.26003005  0.63214761  0.26178996  1
  O  O358  1  0.24863889  0.61344236  0.75032135  1
  O  O359  1  0.74701783  0.13188782  0.27166818  1
  O  O360  1  0.75998268  0.11752578  0.75615611  1
  O  O361  1  0.75265847  0.61919826  0.25403897  1
  O  O362  1  0.74126492  0.61326116  0.76202104  1
  O  O363  1  0.37148078  0.12038118  0.37011822  1
  O  O364  1  0.38091048  0.10974285  0.87928174  1
  O  O365  1  0.36498998  0.61882798  0.37099752  1
  O  O366  1  0.37677239  0.61006230  0.88078264  1
  O  O367  1  0.85763553  0.12814127  0.38070890  1
  O  O368  1  0.86697480  0.13059288  0.86522780  1
  O  O369  1  0.86080933  0.62010827  0.36682036  1
  O  O370  1  0.86715657  0.61443207  0.87820748  1
  O  O371  1  0.13252669  0.37955529  0.13143285  1
  O  O372  1  0.12633984  0.38743717  0.63460321  1
  O  O373  1  0.13782967  0.87321519  0.13433170  1
  O  O374  1  0.13376804  0.87945934  0.62526413  1
  O  O375  1  0.63086486  0.37125210  0.13272898  1
  O  O376  1  0.61903376  0.37355676  0.63733462  1
  O  O377  1  0.62253935  0.88881666  0.12655819  1
  O  O378  1  0.63850219  0.87360741  0.63305314  1
  O  O379  1  0.11826435  0.25873543  0.25193217  1
  O  O380  1  0.11921737  0.26142756  0.75760645  1
  O  O381  1  0.11586731  0.75195135  0.25432999  1
  O  O382  1  0.11417456  0.75914865  0.74329919  1
  O  O383  1  0.61884667  0.25715470  0.26046404  1
  O  O384  1  0.61763821  0.25490184  0.75667284  1
  O  O385  1  0.61215746  0.74559018  0.25502965  1
  O  O386  1  0.61964349  0.75527730  0.75417176  1
  O  O387  1  0.38210832  0.24870297  0.24213376  1
  O  O388  1  0.38752616  0.24788882  0.75357331  1
  O  O389  1  0.38045675  0.74455540  0.24517294  1
  O  O390  1  0.38808922  0.75460021  0.74092392  1
  O  O391  1  0.88153493  0.24560331  0.24221099  1
  O  O392  1  0.88375303  0.24397795  0.74468975  1
  O  O393  1  0.89289549  0.73940599  0.24536716  1
  O  O394  1  0.88558089  0.75099532  0.74361808  1
  O  O395  1  0.37974204  0.50467036  0.48814932  1
  O  O396  1  0.36799005  0.48698519  0.99323409  1
  O  O397  1  0.38425316  0.99521773  0.50204997  1
  O  O398  1  0.38815721  0.99946868  0.99354003  1
  O  O399  1  0.88051692  0.49482285  0.49539580  1
  O  O400  1  0.87259206  0.49221150  0.98986274  1
  O  O401  1  0.88294467  0.99221504  0.50118735  1
  O  O402  1  0.87395539  0.98602542  0.99541111  1
  O  O403  1  0.13161025  0.00934521  -0.00429519  1
  O  O404  1  0.12213652  0.00385154  0.50425259  1
  O  O405  1  0.12576144  0.49754085  0.01509276  1
  O  O406  1  0.11692272  0.50290465  0.50768102  1
  O  O407  1  0.61478515  0.00168049  0.00415384  1
  O  O408  1  0.61582815  0.01024341  0.50746680  1
  O  O409  1  0.63001807  0.51266994  -0.00570758  1
  O  O410  1  0.61316172  0.50614522  0.50401406  1
  O  O411  1  0.36980317  0.37183404  0.12044583  1
  O  O412  1  0.36762338  0.35099196  0.63513256  1
  O  O413  1  0.36733174  0.86507246  0.12344831  1
  O  O414  1  0.36816183  0.86899437  0.61770772  1
  O  O415  1  0.86826107  0.36757437  0.11912840  1
  O  O416  1  0.88027396  0.36748903  0.61606857  1
  O  O417  1  0.87306245  0.87647193  0.11188118  1
  O  O418  1  0.86572370  0.86865962  0.61904739  1
  O  O419  1  0.12634509  0.13189454  0.38031269  1
  O  O420  1  0.11725851  0.14145121  0.89447904  1
  O  O421  1  0.13023839  0.62858552  0.37699952  1
  O  O422  1  0.13457283  0.63390687  0.87843313  1
  O  O423  1  0.63258528  0.13273482  0.38602075  1
  O  O424  1  0.64127530  0.13102953  0.87609911  1
  O  O425  1  0.63572154  0.61724228  0.38334435  1
  O  O426  1  0.62977779  0.62931495  0.88158321  1
