# generated using pymatgen
data_V85Zn86O256
_symmetry_space_group_name_H-M   'P 1'
_cell_length_a   16.93182275
_cell_length_b   16.93187685
_cell_length_c   16.92095099
_cell_angle_alpha   90.00543525
_cell_angle_beta   89.99566601
_cell_angle_gamma   90.00482118
_symmetry_Int_Tables_number   1
_chemical_formula_structural   V85Zn86O256
_chemical_formula_sum   'V85 Zn86 O256'
_cell_volume   4851.02572111
_cell_formula_units_Z   1
loop_
 _symmetry_equiv_pos_site_id
 _symmetry_equiv_pos_as_xyz
  1  'x, y, z'
loop_
 _atom_site_type_symbol
 _atom_site_label
 _atom_site_symmetry_multiplicity
 _atom_site_fract_x
 _atom_site_fract_y
 _atom_site_fract_z
 _atom_site_occupancy
  V  V0  1  0.62870754  0.87032620  0.75671194  1
  V  V1  1  0.12565118  0.12971853  -0.00458702  1
  V  V2  1  0.00505355  0.37378023  0.87756238  1
  V  V3  1  0.37891248  0.86885812  0.50357556  1
  V  V4  1  0.62290923  0.25209091  0.86099689  1
  V  V5  1  0.75137536  -0.00052918  0.74316506  1
  V  V6  1  0.37450318  -0.00027817  0.37299232  1
  V  V7  1  0.00171125  -0.00541343  -0.00340898  1
  V  V8  1  0.37643423  0.37402497  -0.00323040  1
  V  V9  1  0.49461485  0.37560808  0.39075423  1
  V  V10  1  0.25749932  0.12241870  0.87707710  1
  V  V11  1  0.50440360  0.87278831  0.37294286  1
  V  V12  1  0.00010309  0.00098794  0.50131693  1
  V  V13  1  0.74914018  0.37605779  0.12700416  1
  V  V14  1  0.37692125  0.26366296  0.62596605  1
  V  V15  1  0.37795318  0.49800693  0.38670719  1
  V  V16  1  0.61793690  0.24604721  0.37795877  1
  V  V17  1  0.12764812  0.00166928  0.12754734  1
  V  V18  1  0.74963853  0.62316720  0.38061285  1
  V  V19  1  0.87577652  0.49382846  0.37225734  1
  V  V20  1  0.87364705  0.87221258  0.00477958  1
  V  V21  1  0.25275978  0.26852521  0.50561197  1
  V  V22  1  0.12936208  -0.00134125  0.62579608  1
  V  V23  1  0.24906234  0.38162150  0.13240719  1
  V  V24  1  0.87611843  0.50537524  0.87144784  1
  V  V25  1  0.62258717  0.61997891  0.50188456  1
  V  V26  1  0.37065389  0.49699339  0.86573275  1
  V  V27  1  0.12708132  0.25092184  0.36916080  1
  V  V28  1  0.87261175  0.63912972  0.24735247  1
  V  V29  1  0.37716694  0.88014642  -0.00877859  1
  V  V30  1  0.38181555  0.12547293  0.74745900  1
  V  V31  1  0.13675005  0.37741904  0.75190072  1
  V  V32  1  0.62159301  0.48767384  0.62709930  1
  V  V33  1  0.24688438  0.61710112  0.36822652  1
  V  V34  1  0.25343599  0.87533109  0.12853288  1
  V  V35  1  0.13411623  0.12540585  0.49966216  1
  V  V36  1  0.13517846  0.49453264  0.63046172  1
  V  V37  1  0.25331475  0.74778663  0.50293771  1
  V  V38  1  0.88158699  0.12572735  0.75553266  1
  V  V39  1  0.50459368  0.37147688  0.85998263  1
  V  V40  1  0.75392085  0.48172232  0.74255375  1
  V  V41  1  0.25234629  0.87003571  0.62469122  1
  V  V42  1  0.74183298  0.12424402  0.37972242  1
  V  V43  1  0.25052523  0.75007325  -0.00070361  1
  V  V44  1  0.37880903  0.24759995  0.12997256  1
  V  V45  1  0.74106437  0.24783125  0.00137069  1
  V  V46  1  0.50484333  0.00726587  -0.00694585  1
  V  V47  1  0.49604958  0.62748741  0.61995126  1
  V  V48  1  0.00963405  0.25290895  0.75456420  1
  V  V49  1  0.12148369  0.74894916  0.36932948  1
  V  V50  1  -0.00037677  0.87287341  0.37004643  1
  V  V51  1  0.25847346  -0.00262685  0.75545344  1
  V  V52  1  0.12070619  0.87626398  0.75377618  1
  V  V53  1  0.12299649  0.62348038  0.50178058  1
  V  V54  1  0.62395365  0.49886827  0.12199245  1
  V  V55  1  0.24674819  0.62028464  0.87025536  1
  V  V56  1  -0.00571840  0.64612173  0.12756586  1
  V  V57  1  0.00015305  0.12700462  0.12525740  1
  V  V58  1  0.37597532  0.75019328  0.12598294  1
  V  V59  1  0.37295160  0.61610125  0.24832777  1
  V  V60  1  0.50152768  0.49875870  -0.00648794  1
  V  V61  1  0.74644132  0.12347293  0.88049740  1
  V  V62  1  -0.00154985  0.50099904  0.00951451  1
  V  V63  1  0.87216810  0.86019538  0.50908923  1
  V  V64  1  0.50622857  0.74970676  0.25012989  1
  V  V65  1  -0.00325608  0.74944645  0.74895782  1
  V  V66  1  0.50789479  0.00753140  0.50111016  1
  V  V67  1  0.87203158  0.00283533  0.38265082  1
  V  V68  1  0.51204134  0.12875263  0.12990358  1
  V  V69  1  0.87148986  0.12495272  0.25200251  1
  V  V70  1  0.62770007  -0.01983026  0.12894542  1
  V  V71  1  0.87328935  0.25018810  0.12523885  1
  V  V72  1  0.62568334  0.62973715  -0.01012341  1
  V  V73  1  -0.00513340  0.62438113  0.62852166  1
  V  V74  1  0.12037387  0.75284711  0.87603065  1
  V  V75  1  0.49973745  0.74933221  0.75572738  1
  V  V76  1  0.74931826  0.62811415  0.86415595  1
  V  V77  1  0.60938393  0.37086157  0.24780920  1
  V  V78  1  0.87895024  -0.00314352  0.87707481  1
  V  V79  1  0.75139810  0.75131985  -0.00068558  1
  V  V80  1  0.37117230  0.62921256  0.74490632  1
  V  V81  1  0.49967922  0.62372338  0.12191558  1
  V  V82  1  0.00443607  0.13025438  0.62610386  1
  V  V83  1  0.24849520  0.25251128  -0.00448492  1
  V  V84  1  0.62802127  0.74977599  0.38171388  1
  Zn  Zn85  1  0.25360538  0.12549403  0.37211055  1
  Zn  Zn86  1  0.12118963  0.87181539  0.24770197  1
  Zn  Zn87  1  0.74605414  -0.01406227  0.24793739  1
  Zn  Zn88  1  0.80333754  0.81691901  0.16630297  1
  Zn  Zn89  1  0.74841887  0.85448030  0.62172518  1
  Zn  Zn90  1  0.83428881  0.68973802  0.68743826  1
  Zn  Zn91  1  0.12520629  0.39135746  0.25508132  1
  Zn  Zn92  1  0.86474592  0.26525591  0.63133500  1
  Zn  Zn93  1  0.37776656  0.12822164  0.25160879  1
  Zn  Zn94  1  -0.00142666  0.49507163  0.50215428  1
  Zn  Zn95  1  0.87169219  0.37151558  0.51039322  1
  Zn  Zn96  1  0.62635014  -0.00093445  0.62375826  1
  Zn  Zn97  1  0.00175305  0.37357594  0.37468740  1
  Zn  Zn98  1  0.12265460  0.62563399  0.00070083  1
  Zn  Zn99  1  0.25171278  0.00169698  0.25159506  1
  Zn  Zn100  1  0.12859360  0.50868762  0.13051333  1
  Zn  Zn101  1  0.74603503  0.25567825  0.50735087  1
  Zn  Zn102  1  0.87426213  0.37510877  0.00053505  1
  Zn  Zn103  1  -0.00018092  0.25413653  0.25088080  1
  Zn  Zn104  1  0.50197011  0.87589932  0.87388039  1
  Zn  Zn105  1  0.74816002  0.50150092  0.24827856  1
  Zn  Zn106  1  0.50330439  0.13326921  0.62400408  1
  Zn  Zn107  1  0.19529279  0.18675465  0.18612306  1
  Zn  Zn108  1  0.19188988  0.19081011  0.68924365  1
  Zn  Zn109  1  0.18447602  0.68536853  0.18754152  1
  Zn  Zn110  1  0.18465276  0.68604131  0.68724572  1
  Zn  Zn111  1  0.68626499  0.18815157  0.19491233  1
  Zn  Zn112  1  0.68258461  0.18130726  0.68845999  1
  Zn  Zn113  1  0.68407658  0.68316500  0.18770891  1
  Zn  Zn114  1  0.67323127  0.68714043  0.68684269  1
  Zn  Zn115  1  0.31419574  0.31102200  0.31510582  1
  Zn  Zn116  1  0.31482183  0.30738565  0.81227433  1
  Zn  Zn117  1  0.31448417  0.80844435  0.31406725  1
  Zn  Zn118  1  0.31141023  0.80801151  0.81180224  1
  Zn  Zn119  1  0.80407393  0.31073355  0.31269245  1
  Zn  Zn120  1  0.81989647  0.31135393  0.81480828  1
  Zn  Zn121  1  0.80917703  0.81430346  0.33140523  1
  Zn  Zn122  1  0.81058591  0.81731601  0.82110135  1
  Zn  Zn123  1  0.18542425  0.44081862  0.43673890  1
  Zn  Zn124  1  0.18463823  0.43986621  0.94147377  1
  Zn  Zn125  1  0.18873732  0.93604585  0.43697362  1
  Zn  Zn126  1  0.18940183  0.93795337  0.93795339  1
  Zn  Zn127  1  0.68660139  0.43506084  0.43989755  1
  Zn  Zn128  1  0.68890765  0.43693953  0.93442838  1
  Zn  Zn129  1  0.69062584  0.93509988  0.43719822  1
  Zn  Zn130  1  0.68648973  0.93704755  0.93888281  1
  Zn  Zn131  1  0.31813424  0.06246778  0.06308752  1
  Zn  Zn132  1  0.31897514  0.06011893  0.56407048  1
  Zn  Zn133  1  0.31418421  0.56198052  0.05486137  1
  Zn  Zn134  1  0.31081222  0.56159789  0.56243272  1
  Zn  Zn135  1  0.80889116  0.06093759  0.06400054  1
  Zn  Zn136  1  0.80066629  0.09963096  0.57813260  1
  Zn  Zn137  1  0.81376808  0.56499770  0.06023458  1
  Zn  Zn138  1  0.80859997  0.55416034  0.55894645  1
  Zn  Zn139  1  0.43295230  0.43882916  0.18541422  1
  Zn  Zn140  1  0.43734533  0.44131337  0.68448884  1
  Zn  Zn141  1  0.44313705  0.93789419  0.18625997  1
  Zn  Zn142  1  0.43767665  0.93387928  0.68579948  1
  Zn  Zn143  1  0.93688331  0.43800251  0.19429710  1
  Zn  Zn144  1  0.94238623  0.43984788  0.68727085  1
  Zn  Zn145  1  0.93856580  0.94287988  0.19051473  1
  Zn  Zn146  1  0.93971744  0.93872491  0.68686103  1
  Zn  Zn147  1  0.06121822  0.06503183  0.31290296  1
  Zn  Zn148  1  0.06864925  0.06273132  0.81568056  1
  Zn  Zn149  1  0.05800570  0.56260203  0.30476846  1
  Zn  Zn150  1  0.06158543  0.56209526  0.81150382  1
  Zn  Zn151  1  0.56133542  0.05902232  0.30766157  1
  Zn  Zn152  1  0.56896804  0.06419361  0.80961830  1
  Zn  Zn153  1  0.56130427  0.55796878  0.31155571  1
  Zn  Zn154  1  0.56342035  0.55858982  0.80618474  1
  Zn  Zn155  1  0.43487371  0.19097550  0.43847099  1
  Zn  Zn156  1  0.43999731  0.18680918  0.93840789  1
  Zn  Zn157  1  0.43760567  0.68374883  0.43802054  1
  Zn  Zn158  1  0.43466094  0.68717053  0.93454190  1
  Zn  Zn159  1  0.93816494  0.19248563  0.44101656  1
  Zn  Zn160  1  0.93658438  0.18986464  0.94001876  1
  Zn  Zn161  1  0.93913758  0.68401525  0.43602005  1
  Zn  Zn162  1  0.93598878  0.68754177  0.93674436  1
  Zn  Zn163  1  0.06414776  0.31355564  0.06442636  1
  Zn  Zn164  1  0.05867707  0.31549420  0.56007794  1
  Zn  Zn165  1  0.06434801  0.81704389  0.05934986  1
  Zn  Zn166  1  0.06101768  0.81098433  0.56169248  1
  Zn  Zn167  1  0.56227365  0.31094888  0.05639706  1
  Zn  Zn168  1  0.56148878  0.30999721  0.55988023  1
  Zn  Zn169  1  0.56181694  0.80962758  0.05573110  1
  Zn  Zn170  1  0.56546648  0.81025552  0.56780309  1
  O  O171  1  0.12443074  0.11864602  0.11590228  1
  O  O172  1  0.12122617  0.12026158  0.62197642  1
  O  O173  1  0.10852256  0.62960002  0.12212576  1
  O  O174  1  0.11957461  0.61731079  0.61893383  1
  O  O175  1  0.61381040  0.12548425  0.12683833  1
  O  O176  1  0.61112802  0.11041755  0.64137167  1
  O  O177  1  0.61750833  0.61757060  0.11514783  1
  O  O178  1  0.61522501  0.61662433  0.61742844  1
  O  O179  1  0.38622187  0.38259205  0.36892079  1
  O  O180  1  0.38097298  0.37990060  0.87633739  1
  O  O181  1  0.38228182  0.87718836  0.38439271  1
  O  O182  1  0.37225077  0.87228049  0.88833258  1
  O  O183  1  0.87390034  0.38990254  0.36233111  1
  O  O184  1  0.88669987  0.38612503  0.87650622  1
  O  O185  1  0.88287002  0.88298608  0.38925526  1
  O  O186  1  0.87408478  0.89028009  0.88686174  1
  O  O187  1  0.26050048  -0.00104062  0.37373465  1
  O  O188  1  0.24922987  0.00813719  0.86781816  1
  O  O189  1  0.25590269  0.51216372  0.37767058  1
  O  O190  1  0.25812692  0.50868935  0.88080359  1
  O  O191  1  0.75671673  0.00413149  0.37034481  1
  O  O192  1  0.75746565  0.00732681  0.87280990  1
  O  O193  1  0.75794408  0.50684750  0.37028280  1
  O  O194  1  0.75569355  0.50337753  0.86281238  1
  O  O195  1  0.25359634  0.48457501  0.11555575  1
  O  O196  1  0.23414330  0.50501093  0.62531620  1
  O  O197  1  0.24457031  0.99256058  0.12418242  1
  O  O198  1  0.24695599  0.99222024  0.63186992  1
  O  O199  1  0.74384857  0.49204023  0.12284826  1
  O  O200  1  0.74039061  0.50316969  0.63674255  1
  O  O201  1  0.73114856  1.00163560  0.12280075  1
  O  O202  1  0.75528673  1.00667446  0.63942792  1
  O  O203  1  0.00727834  0.37125045  0.25381903  1
  O  O204  1  0.00848365  0.36952789  0.75915102  1
  O  O205  1  0.00004576  0.87923715  0.26556940  1
  O  O206  1  0.01473735  0.87028296  0.74543013  1
  O  O207  1  0.50751389  0.37637423  0.24648971  1
  O  O208  1  0.49666929  0.37668489  0.76110905  1
  O  O209  1  0.49478349  0.86447941  0.26364600  1
  O  O210  1  0.50528431  0.86787930  0.75113844  1
  O  O211  1  0.49591785  0.12135823  0.23321964  1
  O  O212  1  0.48322790  0.11794227  0.75585302  1
  O  O213  1  0.49281949  0.62951744  0.24380505  1
  O  O214  1  0.49174644  0.63076410  0.74574075  1
  O  O215  1  0.98901225  0.12707213  0.24349608  1
  O  O216  1  1.00535233  0.13352691  0.74788018  1
  O  O217  1  0.98950886  0.62954522  0.23528305  1
  O  O218  1  1.00494515  0.63542444  0.74149047  1
  O  O219  1  0.36956448  0.25500440  0.00690674  1
  O  O220  1  0.36018289  0.24695422  0.51068043  1
  O  O221  1  0.37075585  0.75675337  0.00686411  1
  O  O222  1  0.36554256  0.75590549  0.49348133  1
  O  O223  1  0.86344300  0.25307143  0.00683437  1
  O  O224  1  0.87087914  0.24729862  0.50933632  1
  O  O225  1  0.86805095  0.76119861  -0.00585412  1
  O  O226  1  0.87940925  0.76176544  0.49883364  1
  O  O227  1  0.13644113  0.24459488  0.49582835  1
  O  O228  1  0.13434616  0.23995272  1.00619837  1
  O  O229  1  0.13148795  0.74292795  0.49177956  1
  O  O230  1  0.13156406  0.75083316  0.99200089  1
  O  O231  1  0.62460075  0.25198699  0.48364620  1
  O  O232  1  0.63806096  0.25054069  0.99247383  1
  O  O233  1  0.61728877  0.73469472  0.49267979  1
  O  O234  1  0.62952039  0.73632063  0.99787332  1
  O  O235  1  0.49496291  0.23611458  0.11431048  1
  O  O236  1  0.48167919  0.25000559  0.61612133  1
  O  O237  1  0.49678328  0.74425861  0.13123532  1
  O  O238  1  0.50272046  0.73569435  0.63579034  1
  O  O239  1  0.99253544  0.24377125  0.12474704  1
  O  O240  1  1.00386857  0.24217208  0.63486520  1
  O  O241  1  0.99726074  0.74465082  0.12009863  1
  O  O242  1  1.00722064  0.73990522  0.63587279  1
  O  O243  1  0.01354068  0.24783172  0.37322377  1
  O  O244  1  -0.00237962  0.26144532  0.87006236  1
  O  O245  1  0.00962387  0.75912627  0.38208439  1
  O  O246  1  0.01432022  0.74345190  0.86972623  1
  O  O247  1  0.50084686  0.26407631  0.37727498  1
  O  O248  1  0.51508696  0.25462895  0.87999792  1
  O  O249  1  0.50620820  0.75292037  0.36928996  1
  O  O250  1  0.49278996  0.75258621  0.86131328  1
  O  O251  1  0.24002327  0.12284372  0.50161863  1
  O  O252  1  0.24707849  0.12937527  0.99576884  1
  O  O253  1  0.24049393  0.63002129  0.49391106  1
  O  O254  1  0.24937558  0.63243556  0.98893149  1
  O  O255  1  0.74494950  0.11852790  0.48067304  1
  O  O256  1  0.75568991  0.13193551  0.98840522  1
  O  O257  1  0.74130719  0.61956822  0.48780097  1
  O  O258  1  0.74323276  0.62703231  0.98823402  1
  O  O259  1  0.25551634  0.36785550  0.00341149  1
  O  O260  1  0.24837862  0.36655383  0.50207623  1
  O  O261  1  0.25735546  0.87257497  0.01028680  1
  O  O262  1  0.25739052  0.86600640  0.50243801  1
  O  O263  1  0.74957492  0.36848044  0.01096599  1
  O  O264  1  0.75804440  0.36799007  0.48882866  1
  O  O265  1  0.75816385  0.86455506  -0.00406443  1
  O  O266  1  0.76785521  0.87910127  0.50278557  1
  O  O267  1  0.13063263  0.50527584  0.24445091  1
  O  O268  1  0.12276554  0.49361165  0.73927423  1
  O  O269  1  0.12556899  0.99909681  0.23754053  1
  O  O270  1  0.13553878  0.99276917  0.74777396  1
  O  O271  1  0.62566167  0.49182886  0.23973959  1
  O  O272  1  0.63933873  0.50222084  0.73793653  1
  O  O273  1  0.62364637  0.99674152  0.23347022  1
  O  O274  1  0.63768401  0.99055804  0.75370380  1
  O  O275  1  0.37885053  -0.00503395  0.26403810  1
  O  O276  1  0.36373964  0.00415367  0.74497149  1
  O  O277  1  0.37685654  0.51260385  0.25513538  1
  O  O278  1  0.37737222  0.51006389  0.75999493  1
  O  O279  1  0.87676743  0.00845602  0.26363753  1
  O  O280  1  0.87301844  0.00260123  0.76029203  1
  O  O281  1  0.87133252  0.51326349  0.25851333  1
  O  O282  1  0.86243653  0.49964274  0.75675849  1
  O  O283  1  0.12748642  0.36572075  0.37326681  1
  O  O284  1  0.11212526  0.38607261  0.86864510  1
  O  O285  1  0.11713019  0.86757400  0.37617687  1
  O  O286  1  0.13224470  0.86633236  0.86604333  1
  O  O287  1  0.60995592  0.37307605  0.36692473  1
  O  O288  1  0.61877371  0.36226809  0.87956346  1
  O  O289  1  0.61676516  0.86226293  0.38249419  1
  O  O290  1  0.62408550  0.87657174  0.86219863  1
  O  O291  1  0.38576532  0.13283659  0.12445494  1
  O  O292  1  0.37897035  0.13066325  0.63264203  1
  O  O293  1  0.37893273  0.62900690  0.12903952  1
  O  O294  1  0.38192165  0.61656585  0.63388658  1
  O  O295  1  0.87806745  0.12790622  0.13208468  1
  O  O296  1  0.89848123  0.11393229  0.63869521  1
  O  O297  1  0.88459020  0.62476723  0.13177512  1
  O  O298  1  0.88980798  0.61566689  0.61965478  1
  O  O299  1  0.25840460  0.25765828  0.11389238  1
  O  O300  1  0.25675090  0.24746858  0.61187282  1
  O  O301  1  0.25404893  0.75631539  0.11962937  1
  O  O302  1  0.24344174  0.75273831  0.61121155  1
  O  O303  1  0.75170337  0.25463217  0.11931295  1
  O  O304  1  0.76294453  0.20901913  0.61617023  1
  O  O305  1  0.74658842  0.73855484  0.10717852  1
  O  O306  1  0.75338318  0.74216864  0.63212881  1
  O  O307  1  0.24764070  0.24800142  0.38915391  1
  O  O308  1  0.25293119  0.24246455  0.88867607  1
  O  O309  1  0.24451606  0.74096409  0.38433037  1
  O  O310  1  0.24065653  0.74275691  0.87937635  1
  O  O311  1  0.73806397  0.23853478  0.37205111  1
  O  O312  1  0.74471587  0.24548440  0.88056735  1
  O  O313  1  0.73501213  0.73997508  0.37765753  1
  O  O314  1  0.75381806  0.73869863  0.88444456  1
  O  O315  1  0.00891517  0.11929990  0.00450682  1
  O  O316  1  0.01389439  0.12243135  0.50922228  1
  O  O317  1  -0.00367197  0.62029147  0.01251810  1
  O  O318  1  0.01198151  0.62547458  0.50655496  1
  O  O319  1  0.49701126  0.11194874  0.00934115  1
  O  O320  1  0.49589785  0.10927184  0.49792297  1
  O  O321  1  0.50667772  0.62073320  -0.00039570  1
  O  O322  1  0.50526362  0.62445029  0.50959048  1
  O  O323  1  0.49810330  0.37917525  0.48873065  1
  O  O324  1  0.49361908  0.38047152  0.99126024  1
  O  O325  1  0.49418483  0.87491490  0.49218791  1
  O  O326  1  0.49335943  0.88261495  0.99652965  1
  O  O327  1  0.99283035  0.37819310  0.49247651  1
  O  O328  1  0.99970507  0.38273326  0.99511549  1
  O  O329  1  0.99231085  0.88149424  0.49508209  1
  O  O330  1  0.99561485  0.88881806  1.00033582  1
  O  O331  1  0.49179045  0.48622971  0.36987976  1
  O  O332  1  0.49472988  0.49236001  0.87591654  1
  O  O333  1  0.49734087  0.99024348  0.38264848  1
  O  O334  1  0.50683547  1.00107712  0.89013322  1
  O  O335  1  0.98533561  0.50485864  0.37530965  1
  O  O336  1  0.99250637  0.49888531  0.88378701  1
  O  O337  1  0.99567486  0.99466588  0.38225975  1
  O  O338  1  0.99306618  1.00819769  0.88490451  1
  O  O339  1  0.00872651  0.00715331  0.11812717  1
  O  O340  1  0.01179123  0.00546686  0.62112506  1
  O  O341  1  -0.00420368  0.50260619  0.11513286  1
  O  O342  1  0.01224911  0.51013977  0.62491402  1
  O  O343  1  0.51080224  0.00759360  0.11892238  1
  O  O344  1  0.49544932  -0.00481282  0.60600628  1
  O  O345  1  0.50177436  0.50534364  0.11429444  1
  O  O346  1  0.51424613  0.51046450  0.63454830  1
  O  O347  1  0.25205369  0.37065300  0.23429934  1
  O  O348  1  0.23582704  0.37135634  0.76059806  1
  O  O349  1  0.25134810  0.87497165  0.23828449  1
  O  O350  1  0.24495959  0.87955098  0.74625643  1
  O  O351  1  0.73878103  0.37606322  0.23749308  1
  O  O352  1  0.75188462  0.38380919  0.75339433  1
  O  O353  1  0.75965488  0.87348120  0.25076144  1
  O  O354  1  0.74650461  0.88188486  0.74906478  1
  O  O355  1  0.25889560  0.11973423  0.25206267  1
  O  O356  1  0.25439982  0.11690376  0.75857793  1
  O  O357  1  0.25995707  0.63422269  0.25847331  1
  O  O358  1  0.25589328  0.63101902  0.76080794  1
  O  O359  1  0.76072683  0.11911739  0.25484752  1
  O  O360  1  0.75974552  0.11700050  0.76473279  1
  O  O361  1  0.75378976  0.62357271  0.25984720  1
  O  O362  1  0.75213449  0.62465429  0.75859280  1
  O  O363  1  0.37599044  0.11469269  0.37387431  1
  O  O364  1  0.36402419  0.13153379  0.86877305  1
  O  O365  1  0.36852767  0.61908114  0.36720061  1
  O  O366  1  0.36693606  0.61738006  0.86773715  1
  O  O367  1  0.86924570  0.12029750  0.36906009  1
  O  O368  1  0.87111800  0.11692779  0.87330883  1
  O  O369  1  0.86706622  0.62189757  0.36849573  1
  O  O370  1  0.86625132  0.61267942  0.87959203  1
  O  O371  1  0.14160327  0.37478654  0.12500989  1
  O  O372  1  0.12047455  0.38769055  0.63338751  1
  O  O373  1  0.13371377  0.88298461  0.12604126  1
  O  O374  1  0.13248638  0.87881105  0.63140912  1
  O  O375  1  0.62823321  0.37777524  0.12845613  1
  O  O376  1  0.61801236  0.38887705  0.62139743  1
  O  O377  1  0.62043498  0.88107683  0.12455996  1
  O  O378  1  0.63023158  0.87919889  0.63674318  1
  O  O379  1  0.13046847  0.24617042  0.26319121  1
  O  O380  1  0.11725053  0.25853374  0.74807319  1
  O  O381  1  0.12962853  0.75242029  0.26506782  1
  O  O382  1  0.11962250  0.75767966  0.75654107  1
  O  O383  1  0.62566291  0.26126442  0.26094545  1
  O  O384  1  0.63092538  0.25422381  0.76242325  1
  O  O385  1  0.61144318  0.73978274  0.25948110  1
  O  O386  1  0.61228115  0.75692764  0.75248128  1
  O  O387  1  0.37265512  0.25153835  0.23359285  1
  O  O388  1  0.36471350  0.23985441  0.73408890  1
  O  O389  1  0.38570464  0.74073781  0.24607543  1
  O  O390  1  0.37904111  0.73704945  0.75045217  1
  O  O391  1  0.87315332  0.24163061  0.24376735  1
  O  O392  1  0.88937770  0.24231754  0.75103211  1
  O  O393  1  0.86532224  0.74144571  0.25157484  1
  O  O394  1  0.89224598  0.75789447  0.76123519  1
  O  O395  1  0.37414933  0.50577356  0.48620568  1
  O  O396  1  0.38170591  0.49547338  0.98546188  1
  O  O397  1  0.38319323  0.99012973  0.48955394  1
  O  O398  1  0.39179763  0.99142525  1.00762627  1
  O  O399  1  0.87651205  0.50287190  0.48183354  1
  O  O400  1  0.88083268  0.49681225  0.99168988  1
  O  O401  1  0.88256618  1.00505918  0.48949019  1
  O  O402  1  0.88296304  0.99824315  0.99575999  1
  O  O403  1  0.12003637  0.00459862  0.00846270  1
  O  O404  1  0.12130743  0.00637342  0.50453452  1
  O  O405  1  0.11379290  0.50560471  0.00676936  1
  O  O406  1  0.12318008  0.50742281  0.50960207  1
  O  O407  1  0.61227797  -0.00594187  0.01077090  1
  O  O408  1  0.61051821  -0.00748889  0.49938021  1
  O  O409  1  0.62126596  0.50799432  0.00190177  1
  O  O410  1  0.62903244  0.50917059  0.51368012  1
  O  O411  1  0.36747968  0.36961885  0.11714705  1
  O  O412  1  0.37249830  0.36298295  0.63187617  1
  O  O413  1  0.37094678  0.87015520  0.11868240  1
  O  O414  1  0.36910795  0.87522684  0.61117620  1
  O  O415  1  0.86476372  0.36950363  0.12687584  1
  O  O416  1  0.87401221  0.37795779  0.62743332  1
  O  O417  1  0.88044957  0.88275996  0.11102347  1
  O  O418  1  0.87720888  0.87870360  0.61160744  1
  O  O419  1  0.12861336  0.13046784  0.38417769  1
  O  O420  1  0.13759489  0.12086276  0.88899728  1
  O  O421  1  0.12932226  0.62959067  0.38140217  1
  O  O422  1  0.13221475  0.63076085  0.87615391  1
  O  O423  1  0.62928315  0.13294720  0.36286890  1
  O  O424  1  0.63436018  0.13842394  0.87199320  1
  O  O425  1  0.62889514  0.62480607  0.38179153  1
  O  O426  1  0.63480357  0.61624498  0.87985668  1
