# generated using pymatgen
data_V85Zn86O256
_symmetry_space_group_name_H-M   'P 1'
_cell_length_a   16.96272438
_cell_length_b   16.94842101
_cell_length_c   16.93856305
_cell_angle_alpha   89.96934358
_cell_angle_beta   90.09874782
_cell_angle_gamma   90.06304158
_symmetry_Int_Tables_number   1
_chemical_formula_structural   V85Zn86O256
_chemical_formula_sum   'V85 Zn86 O256'
_cell_volume   4869.68023878
_cell_formula_units_Z   1
loop_
 _symmetry_equiv_pos_site_id
 _symmetry_equiv_pos_as_xyz
  1  'x, y, z'
loop_
 _atom_site_type_symbol
 _atom_site_label
 _atom_site_symmetry_multiplicity
 _atom_site_fract_x
 _atom_site_fract_y
 _atom_site_fract_z
 _atom_site_occupancy
  V  V0  1  0.50089085  0.00305244  0.49958753  1
  V  V1  1  0.37265052  0.25538931  0.12047239  1
  V  V2  1  0.62492119  0.37508074  0.25785147  1
  V  V3  1  0.12509540  0.24870961  0.87717965  1
  V  V4  1  0.12067174  0.49722047  0.62604326  1
  V  V5  1  0.86538263  0.74816430  0.12128262  1
  V  V6  1  0.37577877  -0.00519548  0.88491198  1
  V  V7  1  0.75250083  0.62783377  0.88263117  1
  V  V8  1  0.12171156  -0.00146149  0.62095904  1
  V  V9  1  0.25581290  0.49822412  0.75456146  1
  V  V10  1  -0.00191962  0.62012240  0.62428734  1
  V  V11  1  0.62889071  0.75033700  0.88328101  1
  V  V12  1  -0.00104972  0.74888971  0.75383083  1
  V  V13  1  0.62754189  0.88441727  0.24898950  1
  V  V14  1  0.37641690  0.87834895  0.50203974  1
  V  V15  1  -0.01189699  0.87589963  0.40130363  1
  V  V16  1  0.74600182  0.12019307  0.35983443  1
  V  V17  1  0.50162142  0.25041561  0.25570062  1
  V  V18  1  0.11523551  0.12184284  0.49837205  1
  V  V19  1  0.87587746  0.25096596  0.61121772  1
  V  V20  1  0.62613665  0.36528299  0.75238915  1
  V  V21  1  0.75123189  0.49962966  0.75323557  1
  V  V22  1  0.51129241  -0.00252062  -0.00065306  1
  V  V23  1  -0.00541653  0.75790194  0.25257736  1
  V  V24  1  0.24747176  0.25146769  0.49692322  1
  V  V25  1  0.62697663  0.00159482  0.62401522  1
  V  V26  1  0.37534286  -0.00256160  0.37427394  1
  V  V27  1  0.75434866  0.37468317  0.61886430  1
  V  V28  1  0.75011266  0.25324076  0.48851110  1
  V  V29  1  0.75313531  0.88453568  0.12869311  1
  V  V30  1  0.62237358  0.62398624  0.49846996  1
  V  V31  1  0.12418609  0.87579551  0.75243461  1
  V  V32  1  0.25047334  0.87633383  0.62673770  1
  V  V33  1  0.75037292  0.00288279  0.75096538  1
  V  V34  1  0.74220620  0.25397206  0.00475943  1
  V  V35  1  0.62654536  0.13185800  0.49491074  1
  V  V36  1  0.50217943  0.61896501  0.11735628  1
  V  V37  1  0.37603859  0.74886566  0.62804624  1
  V  V38  1  0.24936998  0.12362445  0.37622116  1
  V  V39  1  0.50587455  0.12743074  0.11670339  1
  V  V40  1  0.87244178  0.62123275  0.24924339  1
  V  V41  1  0.87636978  0.37454448  0.01539432  1
  V  V42  1  0.37491176  0.25409682  0.62121034  1
  V  V43  1  0.37567291  0.39030299  -0.00453984  1
  V  V44  1  0.48617049  0.49734082  0.49693215  1
  V  V45  1  0.62573757  0.49936682  0.62318982  1
  V  V46  1  0.87882475  0.00944527  0.37627064  1
  V  V47  1  0.11406796  0.11600450  0.00374072  1
  V  V48  1  0.12009677  0.24736287  0.36329491  1
  V  V49  1  0.87440205  0.12682766  0.75009819  1
  V  V50  1  0.24137217  0.75478358  -0.00014628  1
  V  V51  1  0.25177585  0.12528223  0.87971044  1
  V  V52  1  -0.00486370  0.36736548  0.38216834  1
  V  V53  1  0.62563715  0.75164076  0.37224283  1
  V  V54  1  0.73713993  0.13270317  0.87979879  1
  V  V55  1  0.25054984  0.37249637  0.62516012  1
  V  V56  1  0.62347249  0.87348564  0.75229986  1
  V  V57  1  0.11759702  0.75036935  0.37821525  1
  V  V58  1  0.86935361  0.87271859  0.00021769  1
  V  V59  1  0.12532223  0.37387297  0.75078135  1
  V  V60  1  0.75145841  0.75428876  0.49826088  1
  V  V61  1  0.75203032  0.87656912  0.62315262  1
  V  V62  1  0.37388116  0.12717917  0.24716276  1
  V  V63  1  0.24530834  0.62195996  0.88038589  1
  V  V64  1  0.87852848  0.00510194  0.88112074  1
  V  V65  1  0.48244900  0.37697100  0.37753724  1
  V  V66  1  0.00071940  0.87875550  0.88287025  1
  V  V67  1  0.01019824  0.62404529  0.12418538  1
  V  V68  1  0.25163124  0.74795683  0.49427738  1
  V  V69  1  -0.00195745  0.11962588  0.62292414  1
  V  V70  1  0.88029270  0.23770422  0.13325225  1
  V  V71  1  0.87790708  0.49639805  0.39176486  1
  V  V72  1  0.62799551  0.49563015  0.11955304  1
  V  V73  1  0.75151560  0.49498205  0.24582956  1
  V  V74  1  0.38661267  0.76080874  0.10416602  1
  V  V75  1  -0.00223377  0.25058746  0.74806922  1
  V  V76  1  0.37763370  0.62166743  0.75514526  1
  V  V77  1  -0.00370571  0.37712860  0.87734741  1
  V  V78  1  0.37564301  0.12581520  0.75220841  1
  V  V79  1  0.50037169  0.12837053  0.62412594  1
  V  V80  1  0.01290194  0.50216450  0.00617204  1
  V  V81  1  0.49647709  0.74994749  0.24871616  1
  V  V82  1  0.12328589  0.61895874  0.50150808  1
  V  V83  1  0.50694614  0.37951512  0.88270818  1
  V  V84  1  0.87540717  0.75562859  0.62284434  1
  Zn  Zn85  1  0.50303388  0.74595366  0.75071687  1
  Zn  Zn86  1  0.50240528  0.87745792  0.37331703  1
  Zn  Zn87  1  0.25145348  0.87573334  0.12283271  1
  Zn  Zn88  1  0.49473608  0.86784502  0.88024893  1
  Zn  Zn89  1  0.25128340  -0.00155103  0.75222404  1
  Zn  Zn90  1  0.63458900  0.00988330  0.12531019  1
  Zn  Zn91  1  0.12283912  0.39425275  0.24354728  1
  Zn  Zn92  1  0.74926041  0.62317470  0.37452954  1
  Zn  Zn93  1  0.12103927  0.74537458  0.87979091  1
  Zn  Zn94  1  0.37478362  0.61263550  0.25227851  1
  Zn  Zn95  1  0.26373571  0.60221500  0.37014602  1
  Zn  Zn96  1  0.25325432  -0.01413913  0.24680043  1
  Zn  Zn97  1  0.22995695  0.40288512  0.12444093  1
  Zn  Zn98  1  0.49884435  0.62149868  0.62584907  1
  Zn  Zn99  1  0.50396740  0.24922697  0.75553572  1
  Zn  Zn100  1  0.13047711  0.86918454  0.24587265  1
  Zn  Zn101  1  0.62875051  0.62329939  -0.00008924  1
  Zn  Zn102  1  0.87424099  0.62373980  0.75275474  1
  Zn  Zn103  1  -0.00019806  0.11691634  0.14431244  1
  Zn  Zn104  1  0.12044572  -0.01005216  0.12857356  1
  Zn  Zn105  1  0.87556937  0.50144428  0.88013149  1
  Zn  Zn106  1  0.25135268  0.25458674  0.00121110  1
  Zn  Zn107  1  0.19129167  0.18978984  0.18637237  1
  Zn  Zn108  1  0.18846358  0.18473598  0.68975789  1
  Zn  Zn109  1  0.19244755  0.57588472  0.19560506  1
  Zn  Zn110  1  0.18818541  0.68707934  0.68979764  1
  Zn  Zn111  1  0.68510923  0.19774287  0.18173233  1
  Zn  Zn112  1  0.69124920  0.18762296  0.68376814  1
  Zn  Zn113  1  0.68673651  0.68913249  0.18733229  1
  Zn  Zn114  1  0.68763288  0.68633613  0.68986137  1
  Zn  Zn115  1  0.29791209  0.43687184  0.29991627  1
  Zn  Zn116  1  0.31813592  0.31189584  0.81609333  1
  Zn  Zn117  1  0.28147886  0.75838125  0.27569974  1
  Zn  Zn118  1  0.31212443  0.81060125  0.81474913  1
  Zn  Zn119  1  0.81024422  0.31900957  0.31213587  1
  Zn  Zn120  1  0.81334778  0.31127394  0.81308967  1
  Zn  Zn121  1  0.81296209  0.81748083  0.31184333  1
  Zn  Zn122  1  0.81204053  0.81267183  0.81219827  1
  Zn  Zn123  1  0.17822050  0.43278412  0.43830139  1
  Zn  Zn124  1  0.19120094  0.43730908  0.93944903  1
  Zn  Zn125  1  0.18639780  0.93461523  0.43425552  1
  Zn  Zn126  1  0.18957144  0.93626907  0.93931908  1
  Zn  Zn127  1  0.68657733  0.43926391  0.43331993  1
  Zn  Zn128  1  0.68979281  0.43366984  0.93711789  1
  Zn  Zn129  1  0.69094605  0.94082615  0.43596848  1
  Zn  Zn130  1  0.69021368  0.93912954  0.93778754  1
  Zn  Zn131  1  0.31170056  0.06064785  0.06404809  1
  Zn  Zn132  1  0.30916229  0.06503893  0.56355877  1
  Zn  Zn133  1  0.32081759  0.57001486  0.06025385  1
  Zn  Zn134  1  0.30726536  0.56316704  0.56449833  1
  Zn  Zn135  1  0.81326906  0.06403236  0.05732814  1
  Zn  Zn136  1  0.81550562  0.06309585  0.55331797  1
  Zn  Zn137  1  0.81516519  0.55865245  0.06313075  1
  Zn  Zn138  1  0.80841986  0.56988194  0.56645037  1
  Zn  Zn139  1  0.43865860  0.43740717  0.18388176  1
  Zn  Zn140  1  0.44062423  0.43585557  0.68820254  1
  Zn  Zn141  1  0.43960213  0.93803403  0.18565996  1
  Zn  Zn142  1  0.43933046  0.94006903  0.69064376  1
  Zn  Zn143  1  0.94673123  0.43652209  0.19240618  1
  Zn  Zn144  1  0.93408622  0.43633093  0.68667740  1
  Zn  Zn145  1  0.93926395  0.94924110  0.19376390  1
  Zn  Zn146  1  0.93789627  0.93694133  0.69033931  1
  Zn  Zn147  1  0.06503918  0.04930963  0.31228116  1
  Zn  Zn148  1  0.06280458  0.06139677  0.81093119  1
  Zn  Zn149  1  0.05326492  0.56277598  0.31870026  1
  Zn  Zn150  1  0.06477781  0.56069849  0.81327804  1
  Zn  Zn151  1  0.56255257  0.06539128  0.31180906  1
  Zn  Zn152  1  0.56092451  0.06204587  0.81247744  1
  Zn  Zn153  1  0.55762350  0.56064640  0.31060509  1
  Zn  Zn154  1  0.56504812  0.55858378  0.81328796  1
  Zn  Zn155  1  0.43515784  0.19207704  0.43520926  1
  Zn  Zn156  1  0.44388396  0.19289936  0.93768569  1
  Zn  Zn157  1  0.44027786  0.68780640  0.43663181  1
  Zn  Zn158  1  0.44378362  0.67984028  0.93249467  1
  Zn  Zn159  1  0.93485116  0.18896278  0.31411783  1
  Zn  Zn160  1  0.93456196  0.19132580  0.94012677  1
  Zn  Zn161  1  0.93417181  0.68345615  0.44044057  1
  Zn  Zn162  1  0.93584111  0.68678336  0.94110109  1
  Zn  Zn163  1  0.06040571  0.30581475  0.06557301  1
  Zn  Zn164  1  0.05993660  0.31136695  0.55612099  1
  Zn  Zn165  1  0.05902519  0.81053877  0.06585951  1
  Zn  Zn166  1  0.06467589  0.80781120  0.56750350  1
  Zn  Zn167  1  0.55943526  0.31711221  0.06645991  1
  Zn  Zn168  1  0.56350692  0.31436882  0.55990828  1
  Zn  Zn169  1  0.56837682  0.81692706  0.06146313  1
  Zn  Zn170  1  0.56184853  0.81279698  0.56326536  1
  O  O171  1  0.12409022  0.13053273  0.10921834  1
  O  O172  1  0.12050479  0.11653620  0.62238986  1
  O  O173  1  0.10661083  0.63494338  0.13164827  1
  O  O174  1  0.11775661  0.62007066  0.62261763  1
  O  O175  1  0.61052663  0.12509961  0.13170455  1
  O  O176  1  0.62144003  0.11992252  0.61819390  1
  O  O177  1  0.61895767  0.62019492  0.12240524  1
  O  O178  1  0.62343827  0.61920836  0.61715230  1
  O  O179  1  0.38589788  0.37282852  0.37629711  1
  O  O180  1  0.38238707  0.37418018  0.88896603  1
  O  O181  1  0.37943423  0.89141051  0.38466754  1
  O  O182  1  0.37934790  0.89085046  0.86283438  1
  O  O183  1  0.88129979  0.38620023  0.37595990  1
  O  O184  1  0.88786036  0.37274703  0.88058702  1
  O  O185  1  0.88682853  0.86824973  0.38327713  1
  O  O186  1  0.87807856  0.88193808  0.88091248  1
  O  O187  1  0.25947205  0.00586378  0.37663505  1
  O  O188  1  0.25946441  0.00710286  0.87454520  1
  O  O189  1  0.25469892  0.49350068  0.38858660  1
  O  O190  1  0.24769590  0.50725811  0.86562423  1
  O  O191  1  0.75187283  0.01568008  0.37313262  1
  O  O192  1  0.75620411  0.01359494  0.87178503  1
  O  O193  1  0.75993229  0.50083391  0.36486544  1
  O  O194  1  0.75140563  0.50545688  0.86785190  1
  O  O195  1  0.24845464  0.51426186  0.11993577  1
  O  O196  1  0.24165277  0.49223459  0.63219107  1
  O  O197  1  0.24664323  0.99504453  0.12683877  1
  O  O198  1  0.24304464  0.99372439  0.62946941  1
  O  O199  1  0.74420822  0.50479072  0.13802142  1
  O  O200  1  0.74669966  0.49296235  0.63029483  1
  O  O201  1  0.75193701  0.99018429  0.12108657  1
  O  O202  1  0.74680575  0.99755785  0.62979584  1
  O  O203  1  0.00491734  0.38607145  0.27414087  1
  O  O204  1  0.00389633  0.37013962  0.75722771  1
  O  O205  1  -0.00446223  0.86155230  0.25586504  1
  O  O206  1  0.00259099  0.86716225  0.76109351  1
  O  O207  1  0.50254836  0.36897530  0.26143120  1
  O  O208  1  0.51115628  0.37176563  0.75397175  1
  O  O209  1  0.50988782  0.86856764  0.24901246  1
  O  O210  1  0.51490249  0.87674323  0.75163416  1
  O  O211  1  0.49242872  0.13144315  0.24648535  1
  O  O212  1  0.49361050  0.12840026  0.74397139  1
  O  O213  1  0.50478274  0.63449863  0.23667308  1
  O  O214  1  0.49193463  0.62232272  0.74639148  1
  O  O215  1  0.99546699  0.11618774  0.25848159  1
  O  O216  1  0.99446495  0.13179470  0.74344897  1
  O  O217  1  0.98675977  0.63278740  0.24404092  1
  O  O218  1  1.00006059  0.63225860  0.74305426  1
  O  O219  1  0.37542043  0.25699308  0.00664214  1
  O  O220  1  0.36209881  0.24144246  0.51052229  1
  O  O221  1  0.38494060  0.75247187  0.00229007  1
  O  O222  1  0.36823118  0.75631765  0.50814483  1
  O  O223  1  0.86951294  0.25605395  0.00999941  1
  O  O224  1  0.86500406  0.24697308  0.51100022  1
  O  O225  1  0.87711815  0.75922216  0.00978495  1
  O  O226  1  0.86312449  0.74325468  0.51088496  1
  O  O227  1  0.12929492  0.23814106  0.49615493  1
  O  O228  1  0.12629112  0.24183334  0.98719538  1
  O  O229  1  0.13248776  0.74063353  0.50234302  1
  O  O230  1  0.13902129  0.74768427  1.00061293  1
  O  O231  1  0.63394804  0.23887356  0.50542039  1
  O  O232  1  0.64318009  0.26066136  1.00849608  1
  O  O233  1  0.62726720  0.74128219  0.49536360  1
  O  O234  1  0.62753019  0.75080524  0.98640604  1
  O  O235  1  0.49285295  0.24334771  0.12870959  1
  O  O236  1  0.49179244  0.24542217  0.62453959  1
  O  O237  1  0.50025455  0.74502939  0.12446351  1
  O  O238  1  0.48656695  0.74858797  0.62619898  1
  O  O239  1  0.98332097  0.23722954  0.11971760  1
  O  O240  1  0.99228488  0.24441945  0.62780882  1
  O  O241  1  0.98793000  0.74192118  0.13356969  1
  O  O242  1  0.99225580  0.74468417  0.63388717  1
  O  O243  1  0.00213874  0.25922824  0.37797575  1
  O  O244  1  0.00585838  0.25677583  0.86995724  1
  O  O245  1  -0.00171294  0.75720768  0.37519901  1
  O  O246  1  0.00050692  0.75469873  0.86879823  1
  O  O247  1  0.49731144  0.26232925  0.36804953  1
  O  O248  1  0.49602622  0.26851908  0.86944584  1
  O  O249  1  0.50956607  0.75509187  0.36556965  1
  O  O250  1  0.51179357  0.75106382  0.87027419  1
  O  O251  1  0.23973132  0.13195525  0.49826104  1
  O  O252  1  0.24430227  0.12825472  0.98811232  1
  O  O253  1  0.24091378  0.63378476  0.50024064  1
  O  O254  1  0.26488285  0.63977630  0.98533587  1
  O  O255  1  0.74225369  0.13407822  0.49261383  1
  O  O256  1  0.75193836  0.13750473  0.98805395  1
  O  O257  1  0.73954996  0.63705315  0.49976553  1
  O  O258  1  0.75059825  0.61952645  0.98657921  1
  O  O259  1  0.26353616  0.37513187  0.00387771  1
  O  O260  1  0.23867300  0.35776905  0.51101671  1
  O  O261  1  0.25340054  0.85859205  -0.00436925  1
  O  O262  1  0.25611697  0.86849567  0.50735801  1
  O  O263  1  0.76402857  0.36150517  -0.00934857  1
  O  O264  1  0.74097016  0.36595630  0.50676212  1
  O  O265  1  0.76265477  0.87788064  0.00575924  1
  O  O266  1  0.73963888  0.86151568  0.50745471  1
  O  O267  1  0.12914894  0.50930580  0.26173149  1
  O  O268  1  0.13480405  0.49281764  0.74544894  1
  O  O269  1  0.13556566  0.98670249  0.25312509  1
  O  O270  1  0.12726646  0.99355694  0.74048212  1
  O  O271  1  0.63351422  0.49654062  0.24478168  1
  O  O272  1  0.63632756  0.49076507  0.74369899  1
  O  O273  1  0.61904684  0.98795953  0.24699928  1
  O  O274  1  0.63148453  0.99482020  0.74548127  1
  O  O275  1  0.37717276  0.00694875  0.25832833  1
  O  O276  1  0.37631765  0.01399459  0.75591797  1
  O  O277  1  0.37973895  0.49972378  0.25216161  1
  O  O278  1  0.36301462  0.50607334  0.74075056  1
  O  O279  1  0.86799853  -0.02107019  0.27841953  1
  O  O280  1  0.86804689  0.00550776  0.75910516  1
  O  O281  1  0.86866300  0.50589684  0.25327057  1
  O  O282  1  0.86153392  0.49868666  0.75247819  1
  O  O283  1  0.11337854  0.36038661  0.37671167  1
  O  O284  1  0.11667194  0.36720886  0.87214146  1
  O  O285  1  0.10631791  0.86519272  0.38471379  1
  O  O286  1  0.11604096  0.87369111  0.87133872  1
  O  O287  1  0.61790869  0.37921642  0.36173638  1
  O  O288  1  0.61717257  0.37613444  0.86781112  1
  O  O289  1  0.62631646  0.87032249  0.36713267  1
  O  O290  1  0.62852785  0.86833457  0.86768889  1
  O  O291  1  0.38521117  0.12911570  0.13138363  1
  O  O292  1  0.37855079  0.13237634  0.63301058  1
  O  O293  1  0.39342872  0.63771127  0.12332764  1
  O  O294  1  0.37271640  0.63358600  0.63519888  1
  O  O295  1  0.87186685  0.13541485  0.12473928  1
  O  O296  1  0.87850824  0.13033232  0.62787995  1
  O  O297  1  0.87609942  0.63235421  0.13213651  1
  O  O298  1  0.88136932  0.63454259  0.63051908  1
  O  O299  1  0.26819429  0.24289294  0.12046145  1
  O  O300  1  0.25563034  0.25148540  0.62128909  1
  O  O301  1  0.27337862  0.74728590  0.10342484  1
  O  O302  1  0.25884451  0.75424751  0.61851274  1
  O  O303  1  0.76161172  0.24762966  0.11133222  1
  O  O304  1  0.75652515  0.25661586  0.61580661  1
  O  O305  1  0.76107052  0.75868324  0.12817257  1
  O  O306  1  0.75708578  0.75400249  0.62093935  1
  O  O307  1  0.23730761  0.23873169  0.38626989  1
  O  O308  1  0.24172182  0.24391750  0.87525022  1
  O  O309  1  0.23370600  0.75856271  0.39053855  1
  O  O310  1  0.24826121  0.74398766  0.88396177  1
  O  O311  1  0.75756574  0.24203027  0.38409636  1
  O  O312  1  0.75611118  0.23941094  0.88509876  1
  O  O313  1  0.74453589  0.74862634  0.38293465  1
  O  O314  1  0.74264820  0.73898433  0.86591612  1
  O  O315  1  0.01484989  0.12544698  -0.00857297  1
  O  O316  1  0.01352046  0.12420156  0.51035390  1
  O  O317  1  -0.00496138  0.61825276  0.01505198  1
  O  O318  1  0.00701489  0.63239168  0.51712913  1
  O  O319  1  0.49821951  0.11647566  0.00688266  1
  O  O320  1  0.50805977  0.12451417  0.50338480  1
  O  O321  1  0.50802661  0.62536632  0.01239986  1
  O  O322  1  0.50719573  0.61796072  0.50225942  1
  O  O323  1  0.50544992  0.38190488  0.48631330  1
  O  O324  1  0.49483767  0.37517221  0.98927498  1
  O  O325  1  0.49404306  0.88379628  0.50045994  1
  O  O326  1  0.50488056  0.89240059  0.99752513  1
  O  O327  1  1.00380520  0.37942566  0.48380129  1
  O  O328  1  0.99338215  0.37972292  0.99396690  1
  O  O329  1  0.99513919  0.86917866  0.49956482  1
  O  O330  1  0.98957934  0.86749215  0.98765781  1
  O  O331  1  0.50260843  0.48794233  0.38333625  1
  O  O332  1  0.49990918  0.47953931  0.86466868  1
  O  O333  1  0.49355106  1.00238403  0.38308079  1
  O  O334  1  0.49547088  1.00206681  0.88614084  1
  O  O335  1  0.98208252  0.49712534  0.38301929  1
  O  O336  1  0.99824000  0.49260481  0.88107583  1
  O  O337  1  0.98908967  0.98513005  0.38246540  1
  O  O338  1  0.99015373  0.99029944  0.86690879  1
  O  O339  1  0.00497157  0.00444605  0.12536743  1
  O  O340  1  0.00833731  0.00644378  0.63134653  1
  O  O341  1  -0.00557356  0.51568647  0.12099123  1
  O  O342  1  0.00527409  0.50952933  0.63408550  1
  O  O343  1  0.50073254  0.00751398  0.11179533  1
  O  O344  1  0.50609728  0.00853878  0.61953263  1
  O  O345  1  0.51113943  0.51423323  0.12904754  1
  O  O346  1  0.50991127  0.49629426  0.61527457  1
  O  O347  1  0.23729285  0.36912470  0.23610017  1
  O  O348  1  0.24686527  0.38053090  0.74791018  1
  O  O349  1  0.25042479  0.86221775  0.24427065  1
  O  O350  1  0.24192566  0.87417013  0.74466168  1
  O  O351  1  0.73960507  0.38365623  0.25147174  1
  O  O352  1  0.74514489  0.37938659  0.74479745  1
  O  O353  1  0.74024593  0.86937339  0.23995582  1
  O  O354  1  0.74132672  0.88183053  0.74486743  1
  O  O355  1  0.26481749  0.12693028  0.25605549  1
  O  O356  1  0.25699983  0.12324544  0.76233529  1
  O  O357  1  0.25731484  0.64665312  0.25865577  1
  O  O358  1  0.25631818  0.61716493  0.75535410  1
  O  O359  1  0.73951228  0.13364440  0.26225090  1
  O  O360  1  0.75598818  0.12430668  0.75958549  1
  O  O361  1  0.75975469  0.62066334  0.25202706  1
  O  O362  1  0.75019003  0.61456045  0.75765802  1
  O  O363  1  0.37118311  0.11745477  0.36905167  1
  O  O364  1  0.36939874  0.12217977  0.86946707  1
  O  O365  1  0.36856905  0.64953103  0.36419084  1
  O  O366  1  0.36795731  0.62826152  0.86016484  1
  O  O367  1  0.86112910  0.11714452  0.37279513  1
  O  O368  1  0.87109886  0.11986526  0.87052065  1
  O  O369  1  0.87358252  0.61345370  0.36870976  1
  O  O370  1  0.86813746  0.62324173  0.87201620  1
  O  O371  1  0.11881554  0.37217374  0.12839870  1
  O  O372  1  0.12748634  0.37584959  0.63304549  1
  O  O373  1  0.13005507  0.87092808  0.12541123  1
  O  O374  1  0.12861393  0.88139023  0.63057751  1
  O  O375  1  0.61278449  0.38758281  0.14086342  1
  O  O376  1  0.63597626  0.37898440  0.63086582  1
  O  O377  1  0.63692586  0.87814959  0.13064726  1
  O  O378  1  0.63077266  0.88129584  0.63165492  1
  O  O379  1  0.12355063  0.23867754  0.26364158  1
  O  O380  1  0.11945111  0.25253073  0.75968434  1
  O  O381  1  0.10885363  0.75039756  0.26948021  1
  O  O382  1  0.11275935  0.75689803  0.74874761  1
  O  O383  1  0.61067405  0.26075469  0.24284239  1
  O  O384  1  0.62786693  0.26213915  0.74384147  1
  O  O385  1  0.61730075  0.75809745  0.25323783  1
  O  O386  1  0.62439850  0.75891775  0.75481366  1
  O  O387  1  0.38998763  0.24122879  0.23916679  1
  O  O388  1  0.37442436  0.23850399  0.74327285  1
  O  O389  1  0.39362751  0.75363070  0.23088784  1
  O  O390  1  0.37649496  0.74257909  0.74305860  1
  O  O391  1  0.87066917  0.25433695  0.23701728  1
  O  O392  1  0.87901229  0.24463528  0.74064535  1
  O  O393  1  0.87754832  0.74154510  0.24599452  1
  O  O394  1  0.88569508  0.74960580  0.74435939  1
  O  O395  1  0.38811924  0.50441400  0.50993288  1
  O  O396  1  0.38014015  0.48850001  1.00040550  1
  O  O397  1  0.38053237  1.00022420  0.49597268  1
  O  O398  1  0.38507286  1.00659041  0.98895622  1
  O  O399  1  0.86356632  0.50486055  0.48922851  1
  O  O400  1  0.88257597  0.48850903  1.00019222  1
  O  O401  1  0.86107203  0.99293826  0.47735398  1
  O  O402  1  0.87319273  0.99362803  0.98675716  1
  O  O403  1  0.12850556  0.01470854  -0.00347746  1
  O  O404  1  0.13135459  0.00487945  0.51347893  1
  O  O405  1  0.11136407  0.49728658  -0.00473538  1
  O  O406  1  0.12601678  0.51242232  0.51026388  1
  O  O407  1  0.61513735  0.00295329  0.00068043  1
  O  O408  1  0.62213218  0.01087542  0.50440365  1
  O  O409  1  0.63523148  0.49738240  0.01583422  1
  O  O410  1  0.62374075  0.51161149  0.50251491  1
  O  O411  1  0.38664261  0.36719384  0.10850420  1
  O  O412  1  0.36922113  0.36044737  0.63178710  1
  O  O413  1  0.38100841  0.86239782  0.11956424  1
  O  O414  1  0.37107032  0.86989510  0.62349135  1
  O  O415  1  0.88444599  0.36615211  0.11822673  1
  O  O416  1  0.86233793  0.36688752  0.62785936  1
  O  O417  1  0.87053948  0.86957787  0.11896790  1
  O  O418  1  0.86888464  0.86350430  0.63139272  1
  O  O419  1  0.12882926  0.12448630  0.38462057  1
  O  O420  1  0.13223362  0.13015648  0.87781454  1
  O  O421  1  0.11415490  0.63723369  0.39050093  1
  O  O422  1  0.13996867  0.62874575  0.86748794  1
  O  O423  1  0.63505981  0.12344387  0.38237799  1
  O  O424  1  0.63917405  0.12640190  0.86899270  1
  O  O425  1  0.62568483  0.63126432  0.38189919  1
  O  O426  1  0.63237461  0.63162864  0.87551890  1
