# generated using pymatgen
data_V85Zn86O256
_symmetry_space_group_name_H-M   'P 1'
_cell_length_a   16.94350298
_cell_length_b   16.93844480
_cell_length_c   16.93883866
_cell_angle_alpha   90.06619243
_cell_angle_beta   90.00517091
_cell_angle_gamma   89.95160856
_symmetry_Int_Tables_number   1
_chemical_formula_structural   V85Zn86O256
_chemical_formula_sum   'V85 Zn86 O256'
_cell_volume   4861.38393640
_cell_formula_units_Z   1
loop_
 _symmetry_equiv_pos_site_id
 _symmetry_equiv_pos_as_xyz
  1  'x, y, z'
loop_
 _atom_site_type_symbol
 _atom_site_label
 _atom_site_symmetry_multiplicity
 _atom_site_fract_x
 _atom_site_fract_y
 _atom_site_fract_z
 _atom_site_occupancy
  V  V0  1  0.62472281  0.74709090  0.87446747  1
  V  V1  1  0.50031798  -0.00146980  0.00200960  1
  V  V2  1  0.00394601  0.74863438  0.24713275  1
  V  V3  1  -0.00149209  0.87140154  0.87358928  1
  V  V4  1  0.50162296  0.12277783  0.12502779  1
  V  V5  1  0.50021903  0.25056545  0.25029731  1
  V  V6  1  0.12665431  0.37799664  0.24046155  1
  V  V7  1  0.24888020  0.49922942  0.23502467  1
  V  V8  1  0.49966820  0.12877236  0.63020806  1
  V  V9  1  0.62564325  0.62646607  0.50105665  1
  V  V10  1  0.88105958  0.49778283  0.38735227  1
  V  V11  1  0.37116564  0.62739964  0.75479472  1
  V  V12  1  0.37335127  0.25741550  0.12446933  1
  V  V13  1  0.38692139  0.62645560  0.24790399  1
  V  V14  1  0.86640587  -0.00414524  0.36196269  1
  V  V15  1  0.49823360  0.87295308  0.87209329  1
  V  V16  1  0.62990735  0.88648649  0.24392647  1
  V  V17  1  0.62430814  0.49573826  0.62536188  1
  V  V18  1  0.62106111  0.50417570  0.12750225  1
  V  V19  1  0.12380663  0.62257671  0.50116310  1
  V  V20  1  0.75367986  0.25566157  0.00119806  1
  V  V21  1  0.00241721  0.37958416  0.38554368  1
  V  V22  1  0.00427279  0.60945337  0.12264199  1
  V  V23  1  0.24791565  0.74289917  -0.00283268  1
  V  V24  1  0.62152910  0.74842004  0.36567518  1
  V  V25  1  0.75410735  0.49884643  0.25186908  1
  V  V26  1  0.62713078  0.12747724  0.49642932  1
  V  V27  1  0.49577230  0.37432368  0.38136781  1
  V  V28  1  0.24438891  0.12452598  0.87271018  1
  V  V29  1  0.25277709  0.25318833  -0.00215183  1
  V  V30  1  0.00569618  0.13598757  0.13135420  1
  V  V31  1  0.49868289  0.50109670  0.00317716  1
  V  V32  1  0.13279875  0.75014416  0.38487383  1
  V  V33  1  0.12279105  0.36878697  0.76339706  1
  V  V34  1  0.12063855  0.00653665  0.62801807  1
  V  V35  1  0.88288806  0.62641066  0.75206134  1
  V  V36  1  0.87279283  0.87678338  0.50934355  1
  V  V37  1  0.87740132  0.12647890  0.74014722  1
  V  V38  1  0.12227285  0.74505662  0.87351262  1
  V  V39  1  0.75140114  0.61959676  0.87782693  1
  V  V40  1  0.61844182  0.24840318  0.86804690  1
  V  V41  1  0.37073173  0.50189691  0.87576707  1
  V  V42  1  0.12476783  0.87028826  0.74141285  1
  V  V43  1  0.49849813  -0.00534202  0.49760610  1
  V  V44  1  0.24956355  -0.00603822  0.74087018  1
  V  V45  1  0.88556066  0.48481619  0.88761158  1
  V  V46  1  0.00013106  0.87492968  0.37591553  1
  V  V47  1  0.12970459  0.87189292  0.25121499  1
  V  V48  1  0.49555640  0.37069549  0.86757619  1
  V  V49  1  0.25796877  0.25548169  0.49889881  1
  V  V50  1  0.62572579  0.86940410  0.74228042  1
  V  V51  1  -0.00054607  0.00934447  0.49985873  1
  V  V52  1  0.37433618  0.87137721  0.00093393  1
  V  V53  1  0.62726981  -0.00466070  0.62117511  1
  V  V54  1  0.12838569  0.12475915  0.00319528  1
  V  V55  1  0.75014950  0.75445153  0.50760796  1
  V  V56  1  0.25299562  -0.00130289  0.24988289  1
  V  V57  1  0.62494640  0.37519980  0.25001752  1
  V  V58  1  0.25330492  0.37993554  0.62155250  1
  V  V59  1  0.87153313  0.13726432  0.24471912  1
  V  V60  1  0.74839879  0.12557498  0.86994044  1
  V  V61  1  0.62242108  0.62390551  0.00322907  1
  V  V62  1  0.36015903  0.75085722  0.62312625  1
  V  V63  1  0.25017440  0.12479677  0.37772693  1
  V  V64  1  0.81425563  0.92376079  0.05654852  1
  V  V65  1  0.11255361  0.49933462  0.62343624  1
  V  V66  1  0.87229167  -0.00469406  0.87589096  1
  V  V67  1  0.36982016  0.49909904  0.37979755  1
  V  V68  1  0.00303105  -0.00496698  0.00476662  1
  V  V69  1  0.38861165  0.74507552  0.12692122  1
  V  V70  1  0.74999868  0.49526565  0.75245158  1
  V  V71  1  0.36277229  0.86931460  0.50218675  1
  V  V72  1  0.49752228  0.62573906  0.62671211  1
  V  V73  1  0.74953936  -0.00810588  0.74530565  1
  V  V74  1  0.12311989  0.61443082  0.00197378  1
  V  V75  1  0.24680337  0.50506483  0.75235043  1
  V  V76  1  0.12471734  0.25462068  0.37179486  1
  V  V77  1  0.37584185  0.12374601  0.25125358  1
  V  V78  1  0.37744805  0.25333895  0.63059268  1
  V  V79  1  0.25269711  0.87168843  0.12491917  1
  V  V80  1  0.87684204  0.62597143  0.25278450  1
  V  V81  1  0.75479647  0.74822965  0.00721782  1
  V  V82  1  0.76534098  0.36959168  0.61777398  1
  V  V83  1  0.37319123  -0.00198569  0.87202237  1
  V  V84  1  0.49356908  0.49810497  0.50223531  1
  Zn  Zn85  1  0.87570304  0.75281872  0.12258086  1
  Zn  Zn86  1  0.62259216  0.12635202  -0.00111299  1
  Zn  Zn87  1  0.64175179  0.00016937  0.12402657  1
  Zn  Zn88  1  0.87546035  0.75983128  0.63781869  1
  Zn  Zn89  1  -0.00336032  0.63253525  0.62043233  1
  Zn  Zn90  1  0.37599572  0.12681031  0.75128427  1
  Zn  Zn91  1  0.12113711  0.13189120  0.50670210  1
  Zn  Zn92  1  0.62797841  0.25150284  0.37617671  1
  Zn  Zn93  1  0.91489551  0.30530856  0.07342632  1
  Zn  Zn94  1  0.12807244  -0.00218319  0.12738533  1
  Zn  Zn95  1  0.75438459  0.37345757  0.12181635  1
  Zn  Zn96  1  0.37130815  0.37797681  0.00348279  1
  Zn  Zn97  1  0.76055032  0.25340048  0.49361039  1
  Zn  Zn98  1  0.37457664  -0.00435554  0.37674602  1
  Zn  Zn99  1  0.49768060  0.74952636  0.74784396  1
  Zn  Zn100  1  0.75342425  0.62436509  0.37913130  1
  Zn  Zn101  1  0.49728053  0.86715901  0.37072159  1
  Zn  Zn102  1  -0.08074743  0.21092876  0.58801454  1
  Zn  Zn103  1  0.25149204  0.62802231  0.37783913  1
  Zn  Zn104  1  0.00578293  0.25043422  0.74269964  1
  Zn  Zn105  1  0.62102383  0.36748430  0.74524097  1
  Zn  Zn106  1  0.74618199  0.12629200  0.36613872  1
  Zn  Zn107  1  0.19050547  0.19110722  0.18803391  1
  Zn  Zn108  1  0.18964631  0.18750260  0.68729742  1
  Zn  Zn109  1  0.19083920  0.68377549  0.18718845  1
  Zn  Zn110  1  0.18306360  0.68539831  0.68838571  1
  Zn  Zn111  1  0.68576108  0.18690562  0.18638096  1
  Zn  Zn112  1  0.68866393  0.18647240  0.68373864  1
  Zn  Zn113  1  0.68865170  0.68517326  0.18841906  1
  Zn  Zn114  1  0.69248549  0.68403884  0.68671419  1
  Zn  Zn115  1  0.31241179  0.31548544  0.31054557  1
  Zn  Zn116  1  0.30873188  0.31335740  0.81205481  1
  Zn  Zn117  1  0.31680051  0.80959848  0.31346073  1
  Zn  Zn118  1  0.30673751  0.81026307  0.81310019  1
  Zn  Zn119  1  0.81456764  0.31334349  0.31456671  1
  Zn  Zn120  1  0.80970390  0.30853487  0.80755416  1
  Zn  Zn121  1  0.80872632  0.80951893  0.31555437  1
  Zn  Zn122  1  0.81107113  0.81067786  0.81961273  1
  Zn  Zn123  1  0.18755363  0.43946970  0.44000696  1
  Zn  Zn124  1  0.19010744  0.43763314  0.93879742  1
  Zn  Zn125  1  0.18563991  0.93980144  0.43909093  1
  Zn  Zn126  1  0.18563942  0.93586457  0.93397279  1
  Zn  Zn127  1  0.68686964  0.43820662  0.43788423  1
  Zn  Zn128  1  0.68413556  0.43331183  0.93619466  1
  Zn  Zn129  1  0.68800428  0.93307530  0.43400260  1
  Zn  Zn130  1  0.67921005  0.93870577  0.93058123  1
  Zn  Zn131  1  0.31604771  0.06263976  0.06354170  1
  Zn  Zn132  1  0.31258149  0.06257787  0.56236393  1
  Zn  Zn133  1  0.31332472  0.56635753  0.06254848  1
  Zn  Zn134  1  0.30552496  0.56765619  0.56181630  1
  Zn  Zn135  1  0.82299780  0.09286791  0.05296043  1
  Zn  Zn136  1  0.80766423  0.05518372  0.55708179  1
  Zn  Zn137  1  0.81499117  0.56030732  0.06693002  1
  Zn  Zn138  1  0.80989892  0.56326310  0.56620980  1
  Zn  Zn139  1  0.43793109  0.44029333  0.18995648  1
  Zn  Zn140  1  0.43458034  0.43786876  0.68842195  1
  Zn  Zn141  1  0.44324775  0.93259382  0.19106118  1
  Zn  Zn142  1  0.43738619  0.93594829  0.68320777  1
  Zn  Zn143  1  0.93992775  0.43374437  0.19589417  1
  Zn  Zn144  1  0.93863662  0.43819973  0.69580486  1
  Zn  Zn145  1  0.94540712  0.93936362  0.19062615  1
  Zn  Zn146  1  0.94281620  0.94175851  0.68949040  1
  Zn  Zn147  1  0.06424234  0.06169600  0.31287286  1
  Zn  Zn148  1  0.02444863  0.11617381  0.85711225  1
  Zn  Zn149  1  0.06547129  0.56076130  0.31389706  1
  Zn  Zn150  1  0.06231979  0.55838974  0.81840375  1
  Zn  Zn151  1  0.56276441  0.05825655  0.31256060  1
  Zn  Zn152  1  0.56228332  0.05983460  0.81009999  1
  Zn  Zn153  1  0.56286845  0.56171557  0.31691978  1
  Zn  Zn154  1  0.56029184  0.55922699  0.81225862  1
  Zn  Zn155  1  0.43834017  0.18710614  0.44118216  1
  Zn  Zn156  1  0.43466308  0.18553243  0.93591628  1
  Zn  Zn157  1  0.43652327  0.68609381  0.43887293  1
  Zn  Zn158  1  0.43813083  0.68569666  0.93764904  1
  Zn  Zn159  1  0.93851225  0.18962143  0.41835111  1
  Zn  Zn160  1  0.97320510  0.31660650  0.90778417  1
  Zn  Zn161  1  0.94168397  0.68906274  0.43987871  1
  Zn  Zn162  1  0.93751283  0.68574116  0.93875839  1
  Zn  Zn163  1  0.08099115  0.31711530  0.05777479  1
  Zn  Zn164  1  0.07035845  0.31362814  0.56407428  1
  Zn  Zn165  1  0.06363794  0.81037619  0.06235126  1
  Zn  Zn166  1  0.05388911  0.81105514  0.56500684  1
  Zn  Zn167  1  0.56438931  0.31459354  0.05794655  1
  Zn  Zn168  1  0.56245957  0.31135170  0.56112722  1
  Zn  Zn169  1  0.56769136  0.81470567  0.06401005  1
  Zn  Zn170  1  0.55635327  0.80914857  0.56058974  1
  O  O171  1  0.12017191  0.12111595  0.12496654  1
  O  O172  1  0.13127124  0.11098527  0.62418177  1
  O  O173  1  0.11169246  0.62989168  0.11937982  1
  O  O174  1  0.12219428  0.61660106  0.62040126  1
  O  O175  1  0.61331064  0.11893990  0.12400705  1
  O  O176  1  0.61830143  0.11664901  0.61854552  1
  O  O177  1  0.62790815  0.61181781  0.12082686  1
  O  O178  1  0.62019827  0.61380195  0.62294081  1
  O  O179  1  0.38650033  0.38466813  0.36883951  1
  O  O180  1  0.37933667  0.38252439  0.87693290  1
  O  O181  1  0.37855821  0.87297799  0.38691430  1
  O  O182  1  0.37902850  0.87757419  0.88095580  1
  O  O183  1  0.89449957  0.38233617  0.36592354  1
  O  O184  1  0.87716061  0.38017010  0.86803865  1
  O  O185  1  0.87878349  0.88383078  0.37707418  1
  O  O186  1  0.88501671  0.88140339  0.87077009  1
  O  O187  1  0.25145818  0.00906750  0.37016051  1
  O  O188  1  0.25539524  0.00399841  0.86727396  1
  O  O189  1  0.26272174  0.50099810  0.37332269  1
  O  O190  1  0.26323494  0.49725605  0.86901235  1
  O  O191  1  0.76427580  0.00320196  0.37801790  1
  O  O192  1  0.74949631  0.00487022  0.86619003  1
  O  O193  1  0.75606850  0.50082458  0.36557410  1
  O  O194  1  0.75193790  0.50215396  0.86866268  1
  O  O195  1  0.25685016  0.49764674  0.13657195  1
  O  O196  1  0.24599035  0.49491603  0.63384705  1
  O  O197  1  0.25301693  0.99113623  0.13152705  1
  O  O198  1  0.24564653  1.00090525  0.63525576  1
  O  O199  1  0.74382258  0.49867697  0.13828857  1
  O  O200  1  0.74232047  0.49173365  0.63202734  1
  O  O201  1  0.75885312  0.99878328  0.10219559  1
  O  O202  1  0.73470774  0.99769786  0.62957164  1
  O  O203  1  0.02290076  0.38237354  0.25947889  1
  O  O204  1  0.01803818  0.37435584  0.74927233  1
  O  O205  1  0.00876545  0.86718742  0.25568651  1
  O  O206  1  0.01040266  0.88433653  0.76541227  1
  O  O207  1  0.50909277  0.37311490  0.25693280  1
  O  O208  1  0.50033373  0.38015851  0.76308204  1
  O  O209  1  0.51824209  0.87632230  0.25576341  1
  O  O210  1  0.50690346  0.87277284  0.75450396  1
  O  O211  1  0.49534849  0.12829979  0.24404464  1
  O  O212  1  0.49755474  0.11697553  0.73407358  1
  O  O213  1  0.48537834  0.61610296  0.25118198  1
  O  O214  1  0.49005625  0.62400470  0.74400387  1
  O  O215  1  0.99547308  0.11713690  0.23725545  1
  O  O216  1  0.97680617  0.10897568  0.74844373  1
  O  O217  1  0.99845790  0.63033697  0.24239622  1
  O  O218  1  0.98395237  0.62109735  0.75616292  1
  O  O219  1  0.37048860  0.25011813  0.00813191  1
  O  O220  1  0.36443295  0.24628754  0.51004097  1
  O  O221  1  0.36683928  0.74997506  0.00490942  1
  O  O222  1  0.37636866  0.76005353  0.50688411  1
  O  O223  1  0.85410001  0.23771827  -0.00091400  1
  O  O224  1  0.87347099  0.23957706  0.49345609  1
  O  O225  1  0.86339863  0.74708523  0.00192251  1
  O  O226  1  0.86701379  0.76155553  0.49407563  1
  O  O227  1  0.13975965  0.24915830  0.49008520  1
  O  O228  1  0.13880850  0.23303198  1.00516632  1
  O  O229  1  0.11973214  0.74802528  0.48963126  1
  O  O230  1  0.13153334  0.74362084  0.99443564  1
  O  O231  1  0.62545807  0.23930115  0.49760194  1
  O  O232  1  0.62930402  0.24773751  0.98501271  1
  O  O233  1  0.63194912  0.74581570  0.49677609  1
  O  O234  1  0.63047427  0.74368576  0.99454210  1
  O  O235  1  0.49723650  0.24250644  0.12878220  1
  O  O236  1  0.49044992  0.24195339  0.61946795  1
  O  O237  1  0.48745320  0.74998437  0.11485768  1
  O  O238  1  0.49065633  0.73940253  0.62737615  1
  O  O239  1  1.00725313  0.23656925  0.12374172  1
  O  O240  1  1.01417170  0.24418994  0.63057260  1
  O  O241  1  0.99805858  0.74884791  0.13778182  1
  O  O242  1  0.98698664  0.74678011  0.62543603  1
  O  O243  1  0.01764919  0.26109289  0.37188769  1
  O  O244  1  0.00110228  0.22729656  0.85335135  1
  O  O245  1  0.00776173  0.75518001  0.36366526  1
  O  O246  1  0.00708336  0.76126745  0.88199377  1
  O  O247  1  0.49898134  0.25825037  0.36936660  1
  O  O248  1  0.50428906  0.25739867  0.87850167  1
  O  O249  1  0.51780543  0.74777388  0.38395283  1
  O  O250  1  0.50701193  0.75412926  0.87222964  1
  O  O251  1  0.24816441  0.13128990  0.49134433  1
  O  O252  1  0.24715742  0.12674212  0.99427321  1
  O  O253  1  0.23341306  0.62702572  0.49622993  1
  O  O254  1  0.24019410  0.63468272  1.00685395  1
  O  O255  1  0.73448439  0.12201680  0.49920421  1
  O  O256  1  0.74181039  0.13313407  0.98576331  1
  O  O257  1  0.74246488  0.63147705  0.49994875  1
  O  O258  1  0.74449239  0.62813614  0.99455716  1
  O  O259  1  0.25115711  0.35844398  -0.00431330  1
  O  O260  1  0.24887370  0.36818687  0.50938978  1
  O  O261  1  0.25585570  0.86836803  0.00567032  1
  O  O262  1  0.26423742  0.87895381  0.49794029  1
  O  O263  1  0.74689607  0.36066863  -0.00108873  1
  O  O264  1  0.74742327  0.37704139  0.51451718  1
  O  O265  1  0.74856969  0.86780057  -0.00539967  1
  O  O266  1  0.75938667  0.86728496  0.49577552  1
  O  O267  1  0.14109943  0.49348582  0.25406168  1
  O  O268  1  0.13147954  0.49549798  0.74687220  1
  O  O269  1  0.13563988  0.99083060  0.25099480  1
  O  O270  1  0.13362379  0.98953505  0.74008529  1
  O  O271  1  0.63017506  0.49616504  0.24573479  1
  O  O272  1  0.63298957  0.49817849  0.74289833  1
  O  O273  1  0.63098262  0.99189281  0.24675935  1
  O  O274  1  0.62885071  0.99014967  0.74138828  1
  O  O275  1  0.37028527  0.00443089  0.25293855  1
  O  O276  1  0.36719498  -0.00229084  0.75316430  1
  O  O277  1  0.36740020  0.50766047  0.25533093  1
  O  O278  1  0.36753716  0.50719137  0.75641645  1
  O  O279  1  0.87693503  0.00082486  0.25979574  1
  O  O280  1  0.86287364  0.00082352  0.75200162  1
  O  O281  1  0.86862367  0.50801044  0.25852457  1
  O  O282  1  0.86672223  0.50597221  0.76245378  1
  O  O283  1  0.12183470  0.37241712  0.37008297  1
  O  O284  1  0.12790006  0.37797378  0.86302345  1
  O  O285  1  0.12128492  0.86797878  0.37124452  1
  O  O286  1  0.11862734  0.86605804  0.86858397  1
  O  O287  1  0.61323129  0.37777552  0.36773235  1
  O  O288  1  0.61471422  0.36653416  0.87046894  1
  O  O289  1  0.62224181  0.86297167  0.36872302  1
  O  O290  1  0.61783066  0.86815602  0.86236448  1
  O  O291  1  0.38667357  0.13196714  0.12972666  1
  O  O292  1  0.38281984  0.13279208  0.62458675  1
  O  O293  1  0.37342464  0.63067172  0.13829374  1
  O  O294  1  0.37718773  0.62976476  0.63468855  1
  O  O295  1  0.89120301  0.12413004  0.13630344  1
  O  O296  1  0.86644188  0.11674865  0.63505680  1
  O  O297  1  0.88662436  0.62565434  0.13555790  1
  O  O298  1  0.87424591  0.61743372  0.64425683  1
  O  O299  1  0.26416318  0.23980032  0.11397252  1
  O  O300  1  0.25493924  0.25819010  0.61730963  1
  O  O301  1  0.25761762  0.75497312  0.11757022  1
  O  O302  1  0.26097389  0.74640802  0.62875432  1
  O  O303  1  0.73713655  0.24919559  0.10489005  1
  O  O304  1  0.74594216  0.26676150  0.62285836  1
  O  O305  1  0.75066651  0.74481155  0.11207230  1
  O  O306  1  0.75675157  0.74578859  0.61282737  1
  O  O307  1  0.24900935  0.24608369  0.38115048  1
  O  O308  1  0.25975350  0.23562012  0.88351477  1
  O  O309  1  0.23624110  0.74803496  0.36722170  1
  O  O310  1  0.23997673  0.75358995  0.88907454  1
  O  O311  1  0.74583393  0.24595083  0.37578858  1
  O  O312  1  0.74212422  0.24278311  0.87858623  1
  O  O313  1  0.73801511  0.74570251  0.38629609  1
  O  O314  1  0.74367461  0.73895250  0.88446853  1
  O  O315  1  0.01315458  0.11419899  0.01429254  1
  O  O316  1  0.00276493  0.11324026  0.48833124  1
  O  O317  1  0.00498118  0.62898979  0.01621294  1
  O  O318  1  0.01514220  0.62734418  0.50088877  1
  O  O319  1  0.49923072  0.11616187  0.00701714  1
  O  O320  1  0.50789354  0.11676386  0.50814827  1
  O  O321  1  0.50722898  0.60987039  -0.00777267  1
  O  O322  1  0.50523528  0.61856085  0.50823897  1
  O  O323  1  0.50269634  0.38225998  0.49020880  1
  O  O324  1  0.49827583  0.38646637  0.98920787  1
  O  O325  1  0.49240835  0.88209568  0.49723312  1
  O  O326  1  0.49502011  0.88017638  0.99395558  1
  O  O327  1  1.01069340  0.37472842  0.48449622  1
  O  O328  1  0.99242981  0.35777098  1.00744978  1
  O  O329  1  0.99155690  0.88383515  0.49179716  1
  O  O330  1  1.00983616  0.88599382  0.99039317  1
  O  O331  1  0.49013415  0.49448366  0.38080099  1
  O  O332  1  0.48887398  0.49348330  0.87945076  1
  O  O333  1  0.49649150  1.00032035  0.38861378  1
  O  O334  1  0.49399184  0.99445259  0.88081977  1
  O  O335  1  0.99597199  0.48946321  0.37351735  1
  O  O336  1  0.98380916  0.50017381  0.87894495  1
  O  O337  1  0.99298427  0.99314385  0.37884663  1
  O  O338  1  0.98981116  1.00406403  0.89047115  1
  O  O339  1  0.00523918  0.00332325  0.11697201  1
  O  O340  1  0.00888141  -0.00259631  0.61291961  1
  O  O341  1  0.00007304  0.51166970  0.13165414  1
  O  O342  1  0.01046232  0.50347261  0.63175321  1
  O  O343  1  0.49613649  0.00710763  0.11622056  1
  O  O344  1  0.50796569  0.00462881  0.61511862  1
  O  O345  1  0.50762822  0.49503566  0.11556713  1
  O  O346  1  0.50462676  0.50457078  0.62249925  1
  O  O347  1  0.24535981  0.39199393  0.25656751  1
  O  O348  1  0.24336978  0.38701462  0.74555938  1
  O  O349  1  0.25036909  0.87913302  0.24516878  1
  O  O350  1  0.23890514  0.88384372  0.75618201  1
  O  O351  1  0.73630937  0.38173346  0.25507195  1
  O  O352  1  0.74684055  0.38274892  0.73987710  1
  O  O353  1  0.72893681  0.86493442  0.25504887  1
  O  O354  1  0.74094364  0.88340433  0.75555638  1
  O  O355  1  0.25684508  0.11921984  0.25635379  1
  O  O356  1  0.25020938  0.11462383  0.75811387  1
  O  O357  1  0.25652442  0.61151263  0.25268572  1
  O  O358  1  0.25548001  0.61293564  0.74799562  1
  O  O359  1  0.76650813  0.12686182  0.24352483  1
  O  O360  1  0.74991015  0.11103655  0.75093025  1
  O  O361  1  0.76078644  0.61794469  0.25290366  1
  O  O362  1  0.75382987  0.61191772  0.75857310  1
  O  O363  1  0.36504896  0.12462820  0.37149147  1
  O  O364  1  0.36633904  0.11462074  0.87242549  1
  O  O365  1  0.37364646  0.61986284  0.36519515  1
  O  O366  1  0.37852528  0.61850403  0.86258242  1
  O  O367  1  0.87749426  0.11130475  0.35713440  1
  O  O368  1  0.85601855  0.11315658  0.86005186  1
  O  O369  1  0.87953254  0.61905173  0.36534578  1
  O  O370  1  0.86487661  0.61712086  0.87041842  1
  O  O371  1  0.13233254  0.37349676  0.14145952  1
  O  O372  1  0.13760232  0.38454786  0.63209478  1
  O  O373  1  0.13532714  0.87328742  0.13260802  1
  O  O374  1  0.11861451  0.87994318  0.63715828  1
  O  O375  1  0.62692903  0.38556740  0.13269561  1
  O  O376  1  0.62423277  0.38645522  0.62634077  1
  O  O377  1  0.62449048  0.88042935  0.13746433  1
  O  O378  1  0.61720719  0.87906742  0.63479591  1
  O  O379  1  0.14256299  0.26792698  0.25976567  1
  O  O380  1  0.13656432  0.26744211  0.74957434  1
  O  O381  1  0.11976383  0.75267928  0.25532747  1
  O  O382  1  0.13145164  0.75712534  0.76146792  1
  O  O383  1  0.61793105  0.25913898  0.24993778  1
  O  O384  1  0.62919551  0.24874605  0.76213650  1
  O  O385  1  0.62536678  0.74572685  0.26342060  1
  O  O386  1  0.62676701  0.75470486  0.75356498  1
  O  O387  1  0.37976850  0.24435308  0.24322690  1
  O  O388  1  0.36632457  0.24656115  0.73503897  1
  O  O389  1  0.37366720  0.73533456  0.24338414  1
  O  O390  1  0.37329991  0.74238695  0.74572027  1
  O  O391  1  0.88165932  0.23462370  0.25778087  1
  O  O392  1  0.86831048  0.22977710  0.74597351  1
  O  O393  1  0.88254112  0.74183841  0.25124474  1
  O  O394  1  0.86164083  0.73027181  0.75417371  1
  O  O395  1  0.38082811  0.50893410  0.49224769  1
  O  O396  1  0.37994128  0.50074261  0.99357538  1
  O  O397  1  0.38138526  0.98811893  0.50240989  1
  O  O398  1  0.38380951  0.99314871  0.99442872  1
  O  O399  1  0.86919509  0.50722831  0.48580215  1
  O  O400  1  0.86502743  0.49836069  0.98496448  1
  O  O401  1  0.88093736  0.99480828  0.48883376  1
  O  O402  1  0.87888199  0.99557181  0.99966535  1
  O  O403  1  0.12181987  0.00702047  0.00360496  1
  O  O404  1  0.11658827  0.00073882  0.50776058  1
  O  O405  1  0.13080514  0.51479413  -0.00438765  1
  O  O406  1  0.12929807  0.50715187  0.51301787  1
  O  O407  1  0.61084464  -0.00020941  0.00123197  1
  O  O408  1  0.61870163  0.00066971  0.50512903  1
  O  O409  1  0.61901540  0.50211147  0.00767494  1
  O  O410  1  0.61784524  0.50620517  0.50727531  1
  O  O411  1  0.38293870  0.36157404  0.12452743  1
  O  O412  1  0.36271958  0.36987778  0.62994864  1
  O  O413  1  0.37197275  0.86604231  0.12085719  1
  O  O414  1  0.37906341  0.86466029  0.61251706  1
  O  O415  1  0.86439638  0.36811983  0.14917638  1
  O  O416  1  0.86413896  0.37954634  0.62890652  1
  O  O417  1  0.87370312  0.87431942  0.12562440  1
  O  O418  1  0.87658800  0.88084639  0.61275592  1
  O  O419  1  0.13668660  0.13541657  0.37100731  1
  O  O420  1  0.13765578  0.11673668  0.88789715  1
  O  O421  1  0.12566932  0.63280251  0.38121904  1
  O  O422  1  0.11511551  0.63729866  0.88417516  1
  O  O423  1  0.62511512  0.12531567  0.38200632  1
  O  O424  1  0.63144813  0.12832296  0.87225686  1
  O  O425  1  0.62720936  0.63240685  0.38170934  1
  O  O426  1  0.63486013  0.62498220  0.87951842  1
