# generated using pymatgen
data_V85Zn86O256
_symmetry_space_group_name_H-M   'P 1'
_cell_length_a   16.90924882
_cell_length_b   16.90966174
_cell_length_c   16.90966225
_cell_angle_alpha   90.03146934
_cell_angle_beta   89.94224622
_cell_angle_gamma   89.95458512
_symmetry_Int_Tables_number   1
_chemical_formula_structural   V85Zn86O256
_chemical_formula_sum   'V85 Zn86 O256'
_cell_volume   4834.96957325
_cell_formula_units_Z   1
loop_
 _symmetry_equiv_pos_site_id
 _symmetry_equiv_pos_as_xyz
  1  'x, y, z'
loop_
 _atom_site_type_symbol
 _atom_site_label
 _atom_site_symmetry_multiplicity
 _atom_site_fract_x
 _atom_site_fract_y
 _atom_site_fract_z
 _atom_site_occupancy
  V  V0  1  0.74998694  0.87700682  0.61823012  1
  V  V1  1  0.38137599  0.74342038  0.62038640  1
  V  V2  1  0.87357303  0.38128257  0.00531207  1
  V  V3  1  0.11456787  0.37773568  0.74351053  1
  V  V4  1  0.12348705  0.76124241  0.87652095  1
  V  V5  1  0.75273815  0.74308948  0.49399876  1
  V  V6  1  0.74888106  0.74856291  -0.00174615  1
  V  V7  1  0.62559797  0.25519577  0.87446031  1
  V  V8  1  0.11778168  0.49532356  0.12379460  1
  V  V9  1  0.87150391  0.62517179  0.75971278  1
  V  V10  1  0.24702659  0.38913739  0.62620868  1
  V  V11  1  0.88685514  0.00062309  0.37616211  1
  V  V12  1  0.01418044  0.12765046  0.62444737  1
  V  V13  1  0.49970972  0.12693157  0.62382282  1
  V  V14  1  0.87956691  0.12621585  0.74841264  1
  V  V15  1  0.87160227  0.50298512  0.37849313  1
  V  V16  1  0.87952741  0.24943626  0.62924625  1
  V  V17  1  0.24377923  0.37165615  0.13018085  1
  V  V18  1  0.24698028  0.62886283  0.36744587  1
  V  V19  1  0.37480755  0.25359784  0.62490586  1
  V  V20  1  0.63068964  0.74549888  0.36839728  1
  V  V21  1  0.37467387  0.50515497  0.36768958  1
  V  V22  1  0.37595623  0.12603433  0.75244905  1
  V  V23  1  0.12688758  0.62482017  0.50709162  1
  V  V24  1  0.87359878  0.12506004  0.25184447  1
  V  V25  1  -0.00037213  0.37596106  0.88278032  1
  V  V26  1  0.88217762  -0.00597417  0.87121181  1
  V  V27  1  0.72935550  0.09239514  0.35704114  1
  V  V28  1  0.24660764  0.87630970  0.62335361  1
  V  V29  1  0.87941275  0.74744621  0.62509512  1
  V  V30  1  0.24525654  0.49908775  0.24843769  1
  V  V31  1  0.62302653  0.49509736  0.12928732  1
  V  V32  1  -0.00198534  0.75359381  0.25600164  1
  V  V33  1  0.24887932  0.24896219  -0.00250347  1
  V  V34  1  0.74526646  0.50079363  0.76031864  1
  V  V35  1  0.37783138  0.37461339  -0.00145962  1
  V  V36  1  0.11910444  0.87702700  0.25588344  1
  V  V37  1  0.37168899  0.74057339  0.12941331  1
  V  V38  1  0.61942972  0.11115123  0.00133508  1
  V  V39  1  0.88327378  0.87630099  0.49434492  1
  V  V40  1  0.37575713  0.24380322  0.13069797  1
  V  V41  1  0.62176075  0.50905825  0.63095360  1
  V  V42  1  0.00618028  0.37715463  0.37183478  1
  V  V43  1  0.75143647  0.24977091  0.49475937  1
  V  V44  1  0.24515100  0.00074965  0.74610726  1
  V  V45  1  0.38231074  0.87439320  0.00086730  1
  V  V46  1  0.50676719  0.25445838  0.24710602  1
  V  V47  1  0.75059329  0.36785401  0.13383300  1
  V  V48  1  -0.00264861  0.62134917  0.12142248  1
  V  V49  1  0.75429846  0.24724239  0.00484906  1
  V  V50  1  0.24704569  0.12522217  0.37309774  1
  V  V51  1  0.12404967  0.62008924  -0.00797533  1
  V  V52  1  0.37492081  0.62607398  0.76219490  1
  V  V53  1  0.86847973  0.62516377  0.25416731  1
  V  V54  1  0.74164609  0.37483729  0.63148787  1
  V  V55  1  0.62638319  0.74368509  0.87245348  1
  V  V56  1  0.12474780  0.24976553  0.37315080  1
  V  V57  1  0.87660962  0.37490107  0.50272837  1
  V  V58  1  0.49987473  0.00035616  0.49798455  1
  V  V59  1  0.50374921  0.25981951  0.75020962  1
  V  V60  1  0.74407478  0.49687223  0.25630590  1
  V  V61  1  0.49872306  0.74123270  0.24941898  1
  V  V62  1  0.62502360  0.13126052  0.49994238  1
  V  V63  1  0.62724217  0.62130594  -0.00171366  1
  V  V64  1  0.73826352  0.88928258  0.13564411  1
  V  V65  1  0.37579967  0.00429873  0.36855051  1
  V  V66  1  0.75103419  0.12375637  0.87401041  1
  V  V67  1  0.50010569  0.51005946  0.50271116  1
  V  V68  1  -0.00876737  0.12545828  0.12191504  1
  V  V69  1  0.00085247  0.25252992  0.24495809  1
  V  V70  1  0.87087299  0.75178055  0.12596322  1
  V  V71  1  0.62422724  0.87672234  0.74950764  1
  V  V72  1  0.01537324  0.00142897  0.50757252  1
  V  V73  1  0.00548380  0.49931328  0.50979754  1
  V  V74  1  0.12246270  -0.00154539  0.12373220  1
  V  V75  1  0.37613370  0.37774491  0.49715260  1
  V  V76  1  0.25185601  0.74610932  -0.00718111  1
  V  V77  1  0.87967056  0.87405935  -0.00176719  1
  V  V78  1  0.38193422  -0.00145955  0.87768760  1
  V  V79  1  0.49890287  0.10889190  0.12765041  1
  V  V80  1  0.25240477  0.00371789  0.24598205  1
  V  V81  1  0.12288370  0.12451648  -0.00120515  1
  V  V82  1  0.50224291  0.87369489  0.36615204  1
  V  V83  1  0.00043957  0.75617146  0.75585993  1
  V  V84  1  0.24747268  0.24596571  0.50039588  1
  Zn  Zn85  1  0.75067528  0.00043178  0.74691911  1
  Zn  Zn86  1  0.50430712  0.74581110  0.74357295  1
  Zn  Zn87  1  0.12206128  0.75304984  0.37686657  1
  Zn  Zn88  1  0.12002910  0.88233556  0.74910279  1
  Zn  Zn89  1  0.87434146  0.50476386  0.88175226  1
  Zn  Zn90  1  0.62735559  0.62605001  0.49960135  1
  Zn  Zn91  1  0.24918200  0.12429069  0.87531324  1
  Zn  Zn92  1  0.00443695  -0.00832755  -0.00642383  1
  Zn  Zn93  1  0.49608664  0.61975415  0.12791803  1
  Zn  Zn94  1  0.50567674  0.38021282  0.36667248  1
  Zn  Zn95  1  0.37482118  0.87468758  0.50000077  1
  Zn  Zn96  1  0.37178160  0.50515429  0.88102972  1
  Zn  Zn97  1  0.62529705  -0.00032846  0.62360697  1
  Zn  Zn98  1  0.24838014  0.87273072  0.12376234  1
  Zn  Zn99  1  0.24168712  0.50973967  0.76262974  1
  Zn  Zn100  1  0.50008999  0.49945722  0.00030031  1
  Zn  Zn101  1  0.50259032  0.38024543  0.87437335  1
  Zn  Zn102  1  0.00679285  0.61994113  0.63193200  1
  Zn  Zn103  1  0.63669936  0.26174054  0.36191042  1
  Zn  Zn104  1  0.11729411  0.24906773  0.87123058  1
  Zn  Zn105  1  0.50629545  0.87845106  0.87853241  1
  Zn  Zn106  1  0.24919228  0.75260722  0.49692202  1
  Zn  Zn107  1  0.18307857  0.18576720  0.18758619  1
  Zn  Zn108  1  0.19136787  0.19704163  0.69183329  1
  Zn  Zn109  1  0.18503549  0.68671141  0.18478269  1
  Zn  Zn110  1  0.19230368  0.69169083  0.68852381  1
  Zn  Zn111  1  0.68472454  0.18032243  0.18202317  1
  Zn  Zn112  1  0.68961323  0.18799524  0.68702325  1
  Zn  Zn113  1  0.68621574  0.68739756  0.18613220  1
  Zn  Zn114  1  0.69168489  0.68689434  0.68644587  1
  Zn  Zn115  1  0.31592895  0.31391380  0.30979290  1
  Zn  Zn116  1  0.30736080  0.31722147  0.81241397  1
  Zn  Zn117  1  0.31214025  0.81672916  0.30992842  1
  Zn  Zn118  1  0.31303414  0.81187755  0.81093668  1
  Zn  Zn119  1  0.82046959  0.31260702  0.31253088  1
  Zn  Zn120  1  0.81459519  0.31312254  0.81401401  1
  Zn  Zn121  1  0.81303713  0.81724201  0.31337800  1
  Zn  Zn122  1  0.80887785  0.81305747  0.81200895  1
  Zn  Zn123  1  0.18673094  0.43739495  0.43715567  1
  Zn  Zn124  1  0.18805947  0.43846431  0.93741680  1
  Zn  Zn125  1  0.18953876  0.93574499  0.43567902  1
  Zn  Zn126  1  0.19633833  0.93754734  0.93625082  1
  Zn  Zn127  1  0.68555239  0.43572531  0.44071272  1
  Zn  Zn128  1  0.68790512  0.43474794  0.94150521  1
  Zn  Zn129  1  0.68217458  0.93863770  0.42010434  1
  Zn  Zn130  1  0.69614797  0.93381473  0.93607851  1
  Zn  Zn131  1  0.31386519  0.06090686  0.06114969  1
  Zn  Zn132  1  0.31220703  0.06294464  0.56209467  1
  Zn  Zn133  1  0.30737091  0.56120282  0.05930062  1
  Zn  Zn134  1  0.31302644  0.56784948  0.55938956  1
  Zn  Zn135  1  0.81266319  0.05891022  0.06022005  1
  Zn  Zn136  1  0.81502033  0.06259365  0.55681620  1
  Zn  Zn137  1  0.80682043  0.56190424  0.06680250  1
  Zn  Zn138  1  0.81356167  0.56186579  0.56965689  1
  Zn  Zn139  1  0.43222303  0.43559325  0.18412257  1
  Zn  Zn140  1  0.43494610  0.44399924  0.68770361  1
  Zn  Zn141  1  0.43450266  0.92926769  0.18755290  1
  Zn  Zn142  1  0.43585053  0.93544261  0.68573963  1
  Zn  Zn143  1  0.93338562  0.43612392  0.18808868  1
  Zn  Zn144  1  0.93370864  0.43673514  0.69262444  1
  Zn  Zn145  1  0.93326681  0.93872381  0.18531073  1
  Zn  Zn146  1  0.93911531  0.93904121  0.68259481  1
  Zn  Zn147  1  0.06374855  0.06464840  0.31430855  1
  Zn  Zn148  1  0.06067892  0.06529576  0.81108452  1
  Zn  Zn149  1  0.06226031  0.56384262  0.31175170  1
  Zn  Zn150  1  0.05801341  0.55907919  0.81366002  1
  Zn  Zn151  1  0.56082732  0.06784283  0.30984932  1
  Zn  Zn152  1  0.56352937  0.06393811  0.81191328  1
  Zn  Zn153  1  0.56293607  0.56545013  0.31512165  1
  Zn  Zn154  1  0.55482340  0.56341775  0.81245834  1
  Zn  Zn155  1  0.43387512  0.18729987  0.43208190  1
  Zn  Zn156  1  0.43923394  0.18769786  0.93930090  1
  Zn  Zn157  1  0.43417125  0.68699145  0.43430913  1
  Zn  Zn158  1  0.44598016  0.69081279  0.93909205  1
  Zn  Zn159  1  0.93793725  0.18303125  0.43859206  1
  Zn  Zn160  1  0.93632952  0.19168846  0.93543741  1
  Zn  Zn161  1  0.93982625  0.68402880  0.43833548  1
  Zn  Zn162  1  0.94044838  0.68919069  0.93791200  1
  Zn  Zn163  1  0.06011984  0.31176495  0.06149093  1
  Zn  Zn164  1  0.06402158  0.31044242  0.56184914  1
  Zn  Zn165  1  0.06184903  0.80908359  0.06729889  1
  Zn  Zn166  1  0.06489244  0.81194915  0.56371480  1
  Zn  Zn167  1  0.56574187  0.30933452  0.06327885  1
  Zn  Zn168  1  0.56233651  0.31894963  0.55946554  1
  Zn  Zn169  1  0.56298122  0.81221704  0.06641051  1
  Zn  Zn170  1  0.56377526  0.81377474  0.55647182  1
  O  O171  1  0.11549289  0.11932128  0.11542166  1
  O  O172  1  0.11329075  0.13881844  0.63137526  1
  O  O173  1  0.11490518  0.61818831  0.11885956  1
  O  O174  1  0.12666784  0.62985789  0.61198867  1
  O  O175  1  0.61423064  0.12169039  0.11201209  1
  O  O176  1  0.62061035  0.12277843  0.61483087  1
  O  O177  1  0.62558934  0.61089095  0.12021474  1
  O  O178  1  0.63035489  0.61354383  0.62046465  1
  O  O179  1  0.37530685  0.38633248  0.38083600  1
  O  O180  1  0.37606192  0.36705045  0.89122686  1
  O  O181  1  0.38029246  0.88740108  0.37720892  1
  O  O182  1  0.37808533  0.88062226  0.88096639  1
  O  O183  1  0.88662726  0.38119146  0.38310998  1
  O  O184  1  0.88150452  0.37594227  0.88485248  1
  O  O185  1  0.87895703  0.88071225  0.38691445  1
  O  O186  1  0.86819496  0.88254884  0.88271697  1
  O  O187  1  0.25528639  0.00714405  0.36915711  1
  O  O188  1  0.26259092  0.00320009  0.86530882  1
  O  O189  1  0.25299430  0.50368917  0.36600328  1
  O  O190  1  0.25848187  0.49653831  0.87570965  1
  O  O191  1  0.77723097  0.00215532  0.40160411  1
  O  O192  1  0.76275061  0.00747630  0.87279407  1
  O  O193  1  0.76247486  0.49309348  0.37153822  1
  O  O194  1  0.75048114  0.49305485  0.86362279  1
  O  O195  1  0.24270014  0.49139166  0.13069235  1
  O  O196  1  0.25229406  0.49019054  0.62075219  1
  O  O197  1  0.24197519  1.00047932  0.13111518  1
  O  O198  1  0.25827957  0.99200280  0.63377439  1
  O  O199  1  0.74447377  0.49042072  0.13749035  1
  O  O200  1  0.74305681  0.49214281  0.63267554  1
  O  O201  1  0.75081305  0.98918472  0.12453590  1
  O  O202  1  0.75032873  0.98734301  0.61970987  1
  O  O203  1  -0.00875911  0.36365955  0.25861084  1
  O  O204  1  0.00888610  0.37534175  0.75658988  1
  O  O205  1  0.00525804  0.86606489  0.24284073  1
  O  O206  1  0.00147801  0.86177109  0.74223385  1
  O  O207  1  0.49402316  0.35868278  0.24619169  1
  O  O208  1  0.49232199  0.36267557  0.75099585  1
  O  O209  1  0.49816237  0.86613657  0.26067103  1
  O  O210  1  0.51500892  0.87342415  0.74768549  1
  O  O211  1  0.50393872  0.13187145  0.23427552  1
  O  O212  1  0.49078108  0.13195313  0.74450550  1
  O  O213  1  0.49745753  0.63640096  0.24991870  1
  O  O214  1  0.48342800  0.62930576  0.74687645  1
  O  O215  1  0.99546757  0.13097178  0.24275143  1
  O  O216  1  0.98804469  0.12162791  0.74024504  1
  O  O217  1  0.98982763  0.62878041  0.24125333  1
  O  O218  1  0.99303921  0.63477093  0.74874545  1
  O  O219  1  0.36733554  0.25125703  0.01019114  1
  O  O220  1  0.36927646  0.25899497  0.50135242  1
  O  O221  1  0.36818463  0.75336350  0.00361051  1
  O  O222  1  0.37288367  0.75151492  0.50846485  1
  O  O223  1  0.85988549  0.25623677  -0.00281249  1
  O  O224  1  0.86864469  0.25227609  0.50697075  1
  O  O225  1  0.86708394  0.75369137  0.00353507  1
  O  O226  1  0.87539887  0.75610122  0.50542460  1
  O  O227  1  0.13512257  0.25700279  0.48594278  1
  O  O228  1  0.13209491  0.24160594  1.00031006  1
  O  O229  1  0.12600056  0.74169027  0.49505707  1
  O  O230  1  0.13042847  0.74511527  0.99495934  1
  O  O231  1  0.63512788  0.24404006  0.50729919  1
  O  O232  1  0.63474229  0.24030505  0.99421237  1
  O  O233  1  0.63647238  0.74780642  0.49424442  1
  O  O234  1  0.63086175  0.74368330  0.99466950  1
  O  O235  1  0.49441193  0.24215497  0.13166871  1
  O  O236  1  0.49584932  0.24725149  0.63065174  1
  O  O237  1  0.49229372  0.74802946  0.13363576  1
  O  O238  1  0.48578111  0.75831901  0.62270785  1
  O  O239  1  1.00549428  0.24091905  0.13570301  1
  O  O240  1  0.98749982  0.24340510  0.61694164  1
  O  O241  1  0.99124700  0.74093320  0.13484841  1
  O  O242  1  0.98976823  0.74781889  0.62984577  1
  O  O243  1  0.00711599  0.25453987  0.37187195  1
  O  O244  1  -0.00161335  0.26721523  0.87547179  1
  O  O245  1  -0.00002888  0.74448466  0.36000910  1
  O  O246  1  0.00860245  0.75037805  0.86756322  1
  O  O247  1  0.49224905  0.24634353  0.35288041  1
  O  O248  1  0.50807545  0.24907743  0.86709971  1
  O  O249  1  0.50220008  0.75576667  0.36870264  1
  O  O250  1  0.51524503  0.75594382  0.87103753  1
  O  O251  1  0.25565873  0.13884924  0.49288735  1
  O  O252  1  0.24080885  0.13178263  1.00145158  1
  O  O253  1  0.24207580  0.62459102  0.48694709  1
  O  O254  1  0.23649367  0.63489941  1.00596897  1
  O  O255  1  0.74127537  0.13044075  0.49210421  1
  O  O256  1  0.74198699  0.12970131  0.99716011  1
  O  O257  1  0.75680700  0.63982742  0.50471927  1
  O  O258  1  0.73838226  0.63321972  1.00554563  1
  O  O259  1  0.25324053  0.36505039  0.01172964  1
  O  O260  1  0.25823425  0.36894836  0.50308563  1
  O  O261  1  0.25937671  0.86363073  0.00166229  1
  O  O262  1  0.25407659  0.87537374  0.50723069  1
  O  O263  1  0.75492507  0.36595141  0.00933905  1
  O  O264  1  0.75821374  0.36880918  0.51025019  1
  O  O265  1  0.75936685  0.86722796  0.00854924  1
  O  O266  1  0.75935729  0.86532718  0.50365032  1
  O  O267  1  0.13488180  0.50266437  0.23969562  1
  O  O268  1  0.12535861  0.48515013  0.75337542  1
  O  O269  1  0.12749081  0.99516647  0.24442320  1
  O  O270  1  0.14044214  1.00234525  0.75615800  1
  O  O271  1  0.63712884  0.50457218  0.24803453  1
  O  O272  1  0.63140150  0.50534049  0.74364155  1
  O  O273  1  0.66126062  1.01658750  0.31824411  1
  O  O274  1  0.62958354  0.99327693  0.74635866  1
  O  O275  1  0.36455505  -0.00486155  0.25562452  1
  O  O276  1  0.37001919  0.00880192  0.75406557  1
  O  O277  1  0.36020951  0.49498139  0.25528899  1
  O  O278  1  0.37311761  0.51618140  0.75040332  1
  O  O279  1  0.88379483  0.01194061  0.26201428  1
  O  O280  1  0.87305067  0.00519695  0.75359495  1
  O  O281  1  0.86660481  0.50541674  0.25857796  1
  O  O282  1  0.86585059  0.50938287  0.75136744  1
  O  O283  1  0.11319663  0.36985190  0.37481486  1
  O  O284  1  0.11223094  0.37421941  0.87314484  1
  O  O285  1  0.12634236  0.87414446  0.36035896  1
  O  O286  1  0.12728465  0.86492789  0.87414926  1
  O  O287  1  0.61654578  0.36871171  0.38541410  1
  O  O288  1  0.62360023  0.35939758  0.88112749  1
  O  O289  1  0.61324569  0.85858542  0.37975065  1
  O  O290  1  0.62817535  0.86912089  0.86583295  1
  O  O291  1  0.39048741  0.12910165  0.11597496  1
  O  O292  1  0.38054933  0.13353132  0.63102736  1
  O  O293  1  0.37512821  0.63653099  0.11888227  1
  O  O294  1  0.37349846  0.64022946  0.62606860  1
  O  O295  1  0.88460161  0.11929957  0.13142444  1
  O  O296  1  0.87847445  0.13158106  0.63022648  1
  O  O297  1  0.87946951  0.62902102  0.13139912  1
  O  O298  1  0.87808623  0.63392806  0.63548052  1
  O  O299  1  0.25380243  0.25186105  0.12010639  1
  O  O300  1  0.25617637  0.25882907  0.61526135  1
  O  O301  1  0.25532408  0.75070837  0.11752336  1
  O  O302  1  0.26231219  0.75869159  0.62188675  1
  O  O303  1  0.74343452  0.25776317  0.11932261  1
  O  O304  1  0.75730908  0.25591035  0.61732025  1
  O  O305  1  0.75390885  0.75345531  0.11497915  1
  O  O306  1  0.76175584  0.75884700  0.61914581  1
  O  O307  1  0.24605782  0.24534052  0.37667288  1
  O  O308  1  0.24871737  0.24775953  0.88858926  1
  O  O309  1  0.24882491  0.74197554  0.37313025  1
  O  O310  1  0.24181050  0.75122291  0.88450920  1
  O  O311  1  0.75461846  0.25406445  0.38863463  1
  O  O312  1  0.74412178  0.24310032  0.88078463  1
  O  O313  1  0.74357359  0.75476030  0.38132473  1
  O  O314  1  0.74102046  0.75485261  0.88846419  1
  O  O315  1  0.00459543  0.12604556  0.00674284  1
  O  O316  1  -0.00263438  0.11283127  0.51069334  1
  O  O317  1  0.00483431  0.62939281  0.01445232  1
  O  O318  1  0.00816792  0.61588248  0.50252168  1
  O  O319  1  0.51192185  0.12682543  0.00970146  1
  O  O320  1  0.50581703  0.12334730  0.50155900  1
  O  O321  1  0.51438057  0.62470738  0.00614772  1
  O  O322  1  0.49794627  0.61270761  0.49803141  1
  O  O323  1  0.48539741  0.38200024  0.49913406  1
  O  O324  1  0.49084950  0.37201438  1.00169794  1
  O  O325  1  0.49843820  0.88543583  0.48839226  1
  O  O326  1  0.48707717  0.86877405  0.99912454  1
  O  O327  1  0.99663684  0.38128674  0.49359303  1
  O  O328  1  0.98911326  0.37234689  0.99379813  1
  O  O329  1  0.99589086  0.88805710  0.50859094  1
  O  O330  1  0.98486148  0.87147575  1.00644203  1
  O  O331  1  0.49033880  0.50007989  0.37926224  1
  O  O332  1  0.49136538  0.49624125  0.88062753  1
  O  O333  1  0.49295676  0.99629750  0.37552973  1
  O  O334  1  0.48700313  0.99832975  0.86883845  1
  O  O335  1  0.99214426  0.49297356  0.37871902  1
  O  O336  1  0.99220771  0.48327557  0.87250179  1
  O  O337  1  0.99417543  1.00893428  0.38952813  1
  O  O338  1  0.98744393  1.00243222  0.87509034  1
  O  O339  1  0.00583812  0.00841687  0.12065122  1
  O  O340  1  0.00335665  0.00996252  0.61608602  1
  O  O341  1  0.00695938  0.50664708  0.13320333  1
  O  O342  1  -0.00613771  0.49909058  0.61331202  1
  O  O343  1  0.49655981  0.00977338  0.13197629  1
  O  O344  1  0.50004305  0.00699033  0.61421420  1
  O  O345  1  0.50903909  0.49951991  0.12705645  1
  O  O346  1  0.51081558  0.49210858  0.61607374  1
  O  O347  1  0.25062470  0.37881441  0.23733109  1
  O  O348  1  0.24357413  0.38112978  0.73988039  1
  O  O349  1  0.24064451  0.88752580  0.24719141  1
  O  O350  1  0.25066097  0.88490932  0.74351567  1
  O  O351  1  0.75691120  0.38197036  0.24480075  1
  O  O352  1  0.75676272  0.38363037  0.74063828  1
  O  O353  1  0.75415111  0.87277037  0.23465662  1
  O  O354  1  0.74093981  0.87498362  0.73828702  1
  O  O355  1  0.24402536  0.11271828  0.25589531  1
  O  O356  1  0.26171003  0.12194190  0.74942590  1
  O  O357  1  0.24355018  0.61673386  0.25912500  1
  O  O358  1  0.26727046  0.62479095  0.74267396  1
  O  O359  1  0.75804171  0.13364845  0.25821882  1
  O  O360  1  0.76058168  0.12268045  0.75374620  1
  O  O361  1  0.76219126  0.61618461  0.24539375  1
  O  O362  1  0.75946912  0.61496205  0.74612126  1
  O  O363  1  0.36369769  0.11365846  0.37479129  1
  O  O364  1  0.37464780  0.11963292  0.86871288  1
  O  O365  1  0.36403273  0.61233152  0.37744183  1
  O  O366  1  0.37660242  0.63263447  0.86519094  1
  O  O367  1  0.86821511  0.11715889  0.36849753  1
  O  O368  1  0.87194062  0.12042901  0.86617647  1
  O  O369  1  0.88008636  0.61430797  0.36693936  1
  O  O370  1  0.87783192  0.62498982  0.86483826  1
  O  O371  1  0.13087331  0.38246706  0.12051062  1
  O  O372  1  0.12993235  0.37176495  0.63537682  1
  O  O373  1  0.12569714  0.88224432  0.13284948  1
  O  O374  1  0.14145945  0.86792580  0.63033597  1
  O  O375  1  0.63545055  0.38606420  0.12106907  1
  O  O376  1  0.63697465  0.38362819  0.62135306  1
  O  O377  1  0.63890578  0.87481290  0.12148755  1
  O  O378  1  0.63381622  0.87563276  0.62771535  1
  O  O379  1  0.11567774  0.24569390  0.26231016  1
  O  O380  1  0.13359315  0.27125005  0.75726388  1
  O  O381  1  0.11542916  0.75841799  0.24753780  1
  O  O382  1  0.11804346  0.74863359  0.76014562  1
  O  O383  1  0.61121505  0.24762092  0.24537794  1
  O  O384  1  0.61533083  0.24172185  0.75898907  1
  O  O385  1  0.61574463  0.74565959  0.25654372  1
  O  O386  1  0.62791783  0.75489939  0.75589578  1
  O  O387  1  0.37928536  0.24856189  0.23563245  1
  O  O388  1  0.37897222  0.24377240  0.74671038  1
  O  O389  1  0.38191461  0.75615474  0.23969305  1
  O  O390  1  0.37702343  0.74313379  0.73982466  1
  O  O391  1  0.88772828  0.23534846  0.25724205  1
  O  O392  1  0.86960286  0.24124035  0.73936182  1
  O  O393  1  0.87816509  0.74271696  0.24727034  1
  O  O394  1  0.87875834  0.74566319  0.74468983  1
  O  O395  1  0.37933473  0.49514280  0.49289039  1
  O  O396  1  0.37754782  0.48802131  1.00633142  1
  O  O397  1  0.38725463  1.00363480  0.49107913  1
  O  O398  1  0.36806395  0.98830065  0.99035275  1
  O  O399  1  0.88080543  0.49695782  0.49470021  1
  O  O400  1  0.86420699  0.48645586  1.00040344  1
  O  O401  1  0.89009897  0.99228766  0.49990379  1
  O  O402  1  0.87745203  0.99081251  0.99072690  1
  O  O403  1  0.12495314  0.00580340  0.00310418  1
  O  O404  1  0.11407809  -0.00201035  0.49641042  1
  O  O405  1  0.12754094  0.50763467  0.01328070  1
  O  O406  1  0.11478022  0.50729492  0.49408774  1
  O  O407  1  0.62813019  0.01311480  -0.01041350  1
  O  O408  1  0.61349132  0.01024281  0.49502433  1
  O  O409  1  0.62654616  0.50563576  0.00916643  1
  O  O410  1  0.61725094  0.50412138  0.50760108  1
  O  O411  1  0.36576187  0.36418467  0.11640846  1
  O  O412  1  0.36691281  0.37225250  0.61788381  1
  O  O413  1  0.37118005  0.86370390  0.11659673  1
  O  O414  1  0.36712154  0.86572054  0.62361145  1
  O  O415  1  0.86333048  0.37505586  0.11929434  1
  O  O416  1  0.86916686  0.36723928  0.62146026  1
  O  O417  1  0.86706695  0.86909840  0.11794880  1
  O  O418  1  0.87008225  0.86862564  0.61533982  1
  O  O419  1  0.13800908  0.13263456  0.37473827  1
  O  O420  1  0.12440082  0.12780874  0.88644473  1
  O  O421  1  0.13124349  0.62672986  0.38178640  1
  O  O422  1  0.11408372  0.63064321  0.88921661  1
  O  O423  1  0.62814215  0.14374024  0.38602089  1
  O  O424  1  0.62849989  0.13173370  0.88451268  1
  O  O425  1  0.62243836  0.63950677  0.38045156  1
  O  O426  1  0.62277299  0.63253665  0.88320825  1
