# generated using pymatgen
data_V85Zn86O256
_symmetry_space_group_name_H-M   'P 1'
_cell_length_a   16.90841462
_cell_length_b   16.91320922
_cell_length_c   16.90600965
_cell_angle_alpha   89.92785158
_cell_angle_beta   90.03594742
_cell_angle_gamma   90.01244680
_symmetry_Int_Tables_number   1
_chemical_formula_structural   V85Zn86O256
_chemical_formula_sum   'V85 Zn86 O256'
_cell_volume   4834.70058022
_cell_formula_units_Z   1
loop_
 _symmetry_equiv_pos_site_id
 _symmetry_equiv_pos_as_xyz
  1  'x, y, z'
loop_
 _atom_site_type_symbol
 _atom_site_label
 _atom_site_symmetry_multiplicity
 _atom_site_fract_x
 _atom_site_fract_y
 _atom_site_fract_z
 _atom_site_occupancy
  V  V0  1  0.37934986  0.48085424  0.37042370  1
  V  V1  1  0.37755140  0.74788211  0.63892317  1
  V  V2  1  0.00178733  0.12791311  0.62505716  1
  V  V3  1  0.24816069  0.50124022  0.75246576  1
  V  V4  1  0.24794635  0.25642164  -0.00528616  1
  V  V5  1  0.87624227  0.25361087  0.62598063  1
  V  V6  1  0.74169575  0.13077246  0.87436536  1
  V  V7  1  0.75379988  0.49693022  0.25587625  1
  V  V8  1  0.00520949  0.12595872  0.12342393  1
  V  V9  1  0.24760083  -0.00157057  0.24448169  1
  V  V10  1  0.37763942  0.50184175  0.86946265  1
  V  V11  1  0.01117093  0.37430245  0.87252494  1
  V  V12  1  0.12329113  0.87790856  0.24335317  1
  V  V13  1  0.12235605  0.49396514  0.63034843  1
  V  V14  1  0.75012148  0.24979050  0.49668051  1
  V  V15  1  0.86697833  0.87328410  0.01259534  1
  V  V16  1  0.24936236  0.50525607  0.24321359  1
  V  V17  1  0.75003639  0.37291810  0.12847467  1
  V  V18  1  0.61923253  0.12785000  0.00330174  1
  V  V19  1  0.87607469  0.87555169  0.50183051  1
  V  V20  1  0.12223610  0.86727599  0.74761760  1
  V  V21  1  0.62024375  0.11906710  0.49884807  1
  V  V22  1  0.49439595  0.48938608  0.49948439  1
  V  V23  1  0.75236557  -0.00740750  0.24454771  1
  V  V24  1  0.00745443  0.49843303  0.00604845  1
  V  V25  1  0.49390003  0.49947483  0.00148942  1
  V  V26  1  0.74966334  0.37669372  0.62689140  1
  V  V27  1  0.24376213  0.12990221  0.87186870  1
  V  V28  1  0.87485036  0.00155679  0.37573522  1
  V  V29  1  0.87362213  -0.00030217  0.87584860  1
  V  V30  1  0.26040945  0.37772656  0.62266570  1
  V  V31  1  -0.00349635  0.86663805  0.87146757  1
  V  V32  1  0.24324437  0.37650296  0.12259335  1
  V  V33  1  0.74738914  0.00043261  0.75096954  1
  V  V34  1  0.74853132  0.50656425  0.75549849  1
  V  V35  1  0.62599030  0.37231985  0.75626802  1
  V  V36  1  0.49640353  0.62681791  0.63351666  1
  V  V37  1  0.50408741  0.24733495  0.75261763  1
  V  V38  1  0.49640369  0.36887928  0.88110999  1
  V  V39  1  0.87385174  0.62637033  0.24731563  1
  V  V40  1  0.75124875  0.74438110  0.01569550  1
  V  V41  1  0.87357445  0.12874638  0.75127266  1
  V  V42  1  0.87502004  0.12783623  0.24949006  1
  V  V43  1  0.12753879  0.74978893  0.88422090  1
  V  V44  1  0.61195566  0.25271135  0.37435033  1
  V  V45  1  0.37297254  0.12512290  0.75004974  1
  V  V46  1  0.63437037  0.74360680  0.87254749  1
  V  V47  1  0.00765651  0.37975747  0.37692192  1
  V  V48  1  0.12538723  0.00034038  0.62293244  1
  V  V49  1  0.37118450  0.86399991  0.00099077  1
  V  V50  1  0.01131011  0.24999781  0.25521109  1
  V  V51  1  0.74644276  0.25200960  -0.00245840  1
  V  V52  1  0.75615650  0.62055416  0.37835889  1
  V  V53  1  0.24213597  0.13210546  0.37017795  1
  V  V54  1  0.49494896  0.11824041  0.62010026  1
  V  V55  1  0.00253347  0.87386096  0.37625233  1
  V  V56  1  0.01218947  0.25548222  0.75353785  1
  V  V57  1  -0.00464305  0.75043533  0.24508400  1
  V  V58  1  0.74969119  0.87443045  0.62779155  1
  V  V59  1  0.12735410  0.62575170  0.49957791  1
  V  V60  1  0.00342068  -0.00189262  0.00264377  1
  V  V61  1  0.26073419  0.75265907  0.49984073  1
  V  V62  1  0.87708833  0.63163651  0.75525279  1
  V  V63  1  0.49932437  0.86743840  0.87599626  1
  V  V64  1  0.49513189  0.88062616  0.38217880  1
  V  V65  1  0.61295120  0.87279126  0.74966948  1
  V  V66  1  0.62565167  0.75085544  0.37271196  1
  V  V67  1  0.25621020  0.63089078  0.87840136  1
  V  V68  1  0.38111114  0.25229927  0.11786039  1
  V  V69  1  0.62176703  -0.00145645  0.62253770  1
  V  V70  1  0.37455149  0.00035665  0.87550895  1
  V  V71  1  0.24462778  0.86996544  0.11848435  1
  V  V72  1  0.49656458  0.00112332  0.00871266  1
  V  V73  1  0.38348136  0.11895042  0.24207098  1
  V  V74  1  0.12445474  0.12668385  -0.00319715  1
  V  V75  1  0.25875598  0.87721837  0.62063159  1
  V  V76  1  0.75271382  0.74825641  0.50309626  1
  V  V77  1  0.26477413  0.62601802  0.37222046  1
  V  V78  1  0.62845738  -0.00452630  0.12328389  1
  V  V79  1  0.87432394  0.38458475  0.49303112  1
  V  V80  1  0.87311239  0.50189607  0.87868922  1
  V  V81  1  0.49153835  0.74610413  0.24824134  1
  V  V82  1  0.62367250  0.50142574  0.12551513  1
  V  V83  1  0.00279167  0.63307492  0.63116778  1
  V  V84  1  0.00572601  0.62079409  0.12787350  1
  Zn  Zn85  1  0.62234993  0.50096655  0.62429646  1
  Zn  Zn86  1  0.12829003  0.74826059  0.37473845  1
  Zn  Zn87  1  0.49364172  0.62149052  0.12912971  1
  Zn  Zn88  1  0.62925483  0.62090597  -0.00305780  1
  Zn  Zn89  1  0.24995080  0.00057325  0.74909888  1
  Zn  Zn90  1  0.62246373  0.62175748  0.50118697  1
  Zn  Zn91  1  0.12866922  0.37616974  0.25184254  1
  Zn  Zn92  1  0.00035783  0.00301879  0.49966569  1
  Zn  Zn93  1  0.37352795  0.00053712  0.38438741  1
  Zn  Zn94  1  0.25023608  0.26566890  0.48578535  1
  Zn  Zn95  1  0.37936653  0.25583521  0.61444766  1
  Zn  Zn96  1  0.49992187  0.25023729  0.24619012  1
  Zn  Zn97  1  0.12220764  0.13500068  0.49198526  1
  Zn  Zn98  1  0.87561505  0.25150123  0.12470204  1
  Zn  Zn99  1  0.74846402  0.12442606  0.37320454  1
  Zn  Zn100  1  0.62659637  0.87354472  0.24532534  1
  Zn  Zn101  1  0.13088918  0.62665589  0.00746597  1
  Zn  Zn102  1  0.36441363  0.73944469  0.12587302  1
  Zn  Zn103  1  0.61439733  0.38097673  0.25820775  1
  Zn  Zn104  1  -0.00449981  0.50684504  0.49672504  1
  Zn  Zn105  1  0.87565643  0.37486899  0.00070349  1
  Zn  Zn106  1  0.88021265  0.75350427  0.63410644  1
  Zn  Zn107  1  0.18939033  0.18610133  0.18210001  1
  Zn  Zn108  1  0.18659055  0.19251422  0.68225633  1
  Zn  Zn109  1  0.18620844  0.68944850  0.19194133  1
  Zn  Zn110  1  0.19048472  0.68625903  0.69246390  1
  Zn  Zn111  1  0.68611926  0.18306638  0.18629016  1
  Zn  Zn112  1  0.68417892  0.18921179  0.68510799  1
  Zn  Zn113  1  0.68309812  0.68437400  0.19007534  1
  Zn  Zn114  1  0.68512613  0.68518019  0.68767691  1
  Zn  Zn115  1  0.31559325  0.30986852  0.30209567  1
  Zn  Zn116  1  0.31357146  0.31532858  0.80809247  1
  Zn  Zn117  1  0.31354637  0.81517633  0.31391360  1
  Zn  Zn118  1  0.30912713  0.81444806  0.81167431  1
  Zn  Zn119  1  0.81435277  0.31195938  0.31489267  1
  Zn  Zn120  1  0.81655137  0.31568124  0.81559514  1
  Zn  Zn121  1  0.81395813  0.81139637  0.31249992  1
  Zn  Zn122  1  0.80800207  0.81351612  0.81651667  1
  Zn  Zn123  1  0.18767300  0.44377547  0.43816879  1
  Zn  Zn124  1  0.18857792  0.44017878  0.93784624  1
  Zn  Zn125  1  0.18885401  0.94209148  0.43666231  1
  Zn  Zn126  1  0.18645647  0.94047745  0.93587183  1
  Zn  Zn127  1  0.68259838  0.43703537  0.43972766  1
  Zn  Zn128  1  0.68521558  0.43646565  0.93747860  1
  Zn  Zn129  1  0.68774077  0.93628150  0.43488354  1
  Zn  Zn130  1  0.68704661  0.93667015  0.93853741  1
  Zn  Zn131  1  0.30908588  0.05982809  0.06283453  1
  Zn  Zn132  1  0.30913235  0.06894238  0.55902903  1
  Zn  Zn133  1  0.31611010  0.56273941  0.05947644  1
  Zn  Zn134  1  0.31679455  0.56177707  0.56076356  1
  Zn  Zn135  1  0.81313844  0.06387368  0.06281397  1
  Zn  Zn136  1  0.81167751  0.06339088  0.56254746  1
  Zn  Zn137  1  0.81654555  0.56245972  0.06622191  1
  Zn  Zn138  1  0.81357241  0.56340259  0.56960239  1
  Zn  Zn139  1  0.43482632  0.43167769  0.18891929  1
  Zn  Zn140  1  0.43912378  0.44163909  0.69160023  1
  Zn  Zn141  1  0.43717559  0.93009479  0.18853471  1
  Zn  Zn142  1  0.43757625  0.93579806  0.55737590  1
  Zn  Zn143  1  0.93577274  0.43803569  0.19138903  1
  Zn  Zn144  1  0.93807390  0.44178923  0.68874616  1
  Zn  Zn145  1  0.93946150  0.94089908  0.18605767  1
  Zn  Zn146  1  0.93790188  0.93960592  0.68899899  1
  Zn  Zn147  1  0.06242222  0.05863039  0.30895045  1
  Zn  Zn148  1  0.06256035  0.05908881  0.81039870  1
  Zn  Zn149  1  0.06767612  0.56042625  0.31438993  1
  Zn  Zn150  1  0.06289624  0.56397661  0.81482147  1
  Zn  Zn151  1  0.56432182  0.06279065  0.31130560  1
  Zn  Zn152  1  0.55936896  0.05828225  0.81483982  1
  Zn  Zn153  1  0.56291550  0.56304724  0.31621416  1
  Zn  Zn154  1  0.56284521  0.56134452  0.81298909  1
  Zn  Zn155  1  0.42649897  0.18350032  0.43816893  1
  Zn  Zn156  1  0.43558025  0.18798654  0.93713388  1
  Zn  Zn157  1  0.44167112  0.68597413  0.44326301  1
  Zn  Zn158  1  0.44215527  0.68313375  0.93833704  1
  Zn  Zn159  1  0.93890077  0.19273982  0.43682341  1
  Zn  Zn160  1  0.93329376  0.19112467  0.93692643  1
  Zn  Zn161  1  0.93784854  0.68799452  0.43641936  1
  Zn  Zn162  1  0.93507302  0.68703759  0.94217741  1
  Zn  Zn163  1  0.06405081  0.31015206  0.06085185  1
  Zn  Zn164  1  0.06834265  0.31319432  0.55827137  1
  Zn  Zn165  1  0.05803146  0.81174454  0.06423827  1
  Zn  Zn166  1  0.06677546  0.81013065  0.56081691  1
  Zn  Zn167  1  0.56467792  0.31503386  0.06442290  1
  Zn  Zn168  1  0.56274143  0.30974957  0.56596192  1
  Zn  Zn169  1  0.56396198  0.81196619  0.06211665  1
  Zn  Zn170  1  0.56568325  0.80367440  0.56307858  1
  O  O171  1  0.11289218  0.12579057  0.11583106  1
  O  O172  1  0.11769622  0.11646771  0.62783454  1
  O  O173  1  0.11128636  0.62944230  0.12679945  1
  O  O174  1  0.12065511  0.62082833  0.62120581  1
  O  O175  1  0.62673121  0.11456233  0.11116553  1
  O  O176  1  0.61697298  0.12025664  0.61818926  1
  O  O177  1  0.62138725  0.61072800  0.12471255  1
  O  O178  1  0.61278033  0.62384570  0.62256363  1
  O  O179  1  0.37141771  0.38244192  0.37467626  1
  O  O180  1  0.38808901  0.38309888  0.86945507  1
  O  O181  1  0.39084650  0.87709708  0.37473886  1
  O  O182  1  0.38138455  0.87862885  0.87973634  1
  O  O183  1  0.88552733  0.37102998  0.38458689  1
  O  O184  1  0.88256145  0.38792335  0.87829703  1
  O  O185  1  0.88533633  0.88004526  0.37912574  1
  O  O186  1  0.88108800  0.88010361  0.88062843  1
  O  O187  1  0.25215125  0.00350422  0.35982198  1
  O  O188  1  0.25640880  0.00902414  0.87163096  1
  O  O189  1  0.26369649  0.50589163  0.37157443  1
  O  O190  1  0.25826766  0.50329392  0.87024835  1
  O  O191  1  0.75835027  0.00261501  0.36776821  1
  O  O192  1  0.75381909  0.00711355  0.87039470  1
  O  O193  1  0.74279966  0.50888878  0.36934333  1
  O  O194  1  0.75832376  0.49571134  0.86798065  1
  O  O195  1  0.25944085  0.48993248  0.13191260  1
  O  O196  1  0.24647435  0.49761955  0.63259152  1
  O  O197  1  0.25225829  0.98846172  0.13622192  1
  O  O198  1  0.24231923  0.99429597  0.62530820  1
  O  O199  1  0.74406831  0.49397782  0.13246486  1
  O  O200  1  0.74739546  0.49298064  0.63502360  1
  O  O201  1  0.74306883  1.00429896  0.13217552  1
  O  O202  1  0.74302628  0.99542087  0.63149534  1
  O  O203  1  0.00138452  0.36894721  0.26001077  1
  O  O204  1  -0.00517146  0.37049925  0.76302795  1
  O  O205  1  0.00303909  0.87010488  0.25417039  1
  O  O206  1  0.00692239  0.87987319  0.76034013  1
  O  O207  1  0.50379228  0.36400519  0.24470836  1
  O  O208  1  0.50676423  0.36708318  0.75461646  1
  O  O209  1  0.50445326  0.86418114  0.26118037  1
  O  O210  1  0.51209648  0.87775132  0.76045610  1
  O  O211  1  0.48650804  0.12521846  0.24960852  1
  O  O212  1  0.49549194  0.12961859  0.74589999  1
  O  O213  1  0.50621532  0.64230840  0.25298084  1
  O  O214  1  0.50150049  0.61661635  0.73307540  1
  O  O215  1  0.99625170  0.12980808  0.24280347  1
  O  O216  1  0.99484720  0.13157381  0.74302348  1
  O  O217  1  0.99480478  0.62971537  0.24988285  1
  O  O218  1  0.99054549  0.62094786  0.74322151  1
  O  O219  1  0.36346997  0.23956692  0.01133411  1
  O  O220  1  0.36058408  0.24397205  0.50337992  1
  O  O221  1  0.37959618  0.76193329  -0.00140796  1
  O  O222  1  0.36394227  0.74709314  0.50820919  1
  O  O223  1  0.86055953  0.25153004  0.00385361  1
  O  O224  1  0.86700714  0.25769840  0.50588509  1
  O  O225  1  0.86181745  0.76078489  -0.00301648  1
  O  O226  1  0.86524614  0.75578057  0.50060149  1
  O  O227  1  0.14060331  0.24535048  0.51037706  1
  O  O228  1  0.13201407  0.23624385  0.99957607  1
  O  O229  1  0.13625019  0.73898893  0.50000344  1
  O  O230  1  0.12062164  0.75088651  0.98829136  1
  O  O231  1  0.63026891  0.24309729  0.49243136  1
  O  O232  1  0.63522198  0.24139077  1.00491410  1
  O  O233  1  0.63877438  0.74699192  0.49307713  1
  O  O234  1  0.63678503  0.75055929  0.99334621  1
  O  O235  1  0.48435754  0.24846046  0.11636650  1
  O  O236  1  0.49935231  0.23762718  0.63306043  1
  O  O237  1  0.50368213  0.75224315  0.14079268  1
  O  O238  1  0.49240847  0.73746134  0.62144302  1
  O  O239  1  0.99620050  0.24338075  0.13133050  1
  O  O240  1  0.99631483  0.24680198  0.63271088  1
  O  O241  1  0.99971468  0.74313855  0.13848860  1
  O  O242  1  0.99992724  0.73824175  0.62307397  1
  O  O243  1  -0.00172954  0.26192840  0.36655404  1
  O  O244  1  -0.00756040  0.26513372  0.86931275  1
  O  O245  1  0.00171483  0.75760962  0.36569919  1
  O  O246  1  0.00425107  0.76178715  0.88005363  1
  O  O247  1  0.51077911  0.24205903  0.37681686  1
  O  O248  1  0.49642196  0.25749281  0.86779410  1
  O  O249  1  0.50668637  0.75571564  0.37019200  1
  O  O250  1  0.51363735  0.76139129  0.88341564  1
  O  O251  1  0.24536612  0.11874485  0.47605788  1
  O  O252  1  0.24137860  0.12891173  0.99290342  1
  O  O253  1  0.24580363  0.63087698  0.49439689  1
  O  O254  1  0.24536199  0.61664593  0.98411699  1
  O  O255  1  0.74175854  0.13452619  0.50101721  1
  O  O256  1  0.74381667  0.13118161  0.99325322  1
  O  O257  1  0.75162404  0.63060460  0.49538761  1
  O  O258  1  0.75141446  0.63942230  1.00567862  1
  O  O259  1  0.24532312  0.36354347  0.00270455  1
  O  O260  1  0.24780409  0.38471253  0.51843403  1
  O  O261  1  0.25767736  0.88322494  0.00687942  1
  O  O262  1  0.24021147  0.86537435  0.50890996  1
  O  O263  1  0.74873226  0.36743545  0.00760441  1
  O  O264  1  0.75616168  0.36930198  0.50359445  1
  O  O265  1  0.76157357  0.86916821  -0.00156032  1
  O  O266  1  0.75487468  0.86809426  0.50636156  1
  O  O267  1  0.14415084  0.49656675  0.25574128  1
  O  O268  1  0.13372284  0.50676115  0.74219963  1
  O  O269  1  0.12993736  0.98617084  0.24971392  1
  O  O270  1  0.12538741  0.98974002  0.73933971  1
  O  O271  1  0.63429296  0.50016181  0.24544860  1
  O  O272  1  0.63273634  0.49229809  0.74959754  1
  O  O273  1  0.63465700  1.00196584  0.24137869  1
  O  O274  1  0.62832344  0.99275197  0.74430260  1
  O  O275  1  0.36953213  0.00740831  0.24766134  1
  O  O276  1  0.37393347  0.01774711  0.75936406  1
  O  O277  1  0.36818301  0.49638554  0.26372496  1
  O  O278  1  0.36943437  0.50126929  0.76235518  1
  O  O279  1  0.87216879  0.00899624  0.25358347  1
  O  O280  1  0.86823568  0.00852804  0.75562616  1
  O  O281  1  0.86102959  0.50689478  0.25041023  1
  O  O282  1  0.86785418  0.50768182  0.75761043  1
  O  O283  1  0.11269732  0.37669235  0.37689522  1
  O  O284  1  0.11015078  0.37850318  0.87583178  1
  O  O285  1  0.11353815  0.87569672  0.36984201  1
  O  O286  1  0.11823473  0.87092315  0.86853760  1
  O  O287  1  0.62900626  0.35627284  0.37604124  1
  O  O288  1  0.61540981  0.37821766  0.86286651  1
  O  O289  1  0.61902150  0.86421616  0.37439046  1
  O  O290  1  0.61935585  0.86831259  0.87084460  1
  O  O291  1  0.36604376  0.13219239  0.13517898  1
  O  O292  1  0.38014493  0.12674587  0.63386184  1
  O  O293  1  0.38050882  0.62887502  0.12072362  1
  O  O294  1  0.38563739  0.63303426  0.62298895  1
  O  O295  1  0.88666288  0.12517916  0.13167172  1
  O  O296  1  0.88198763  0.13145768  0.63030622  1
  O  O297  1  0.88533085  0.62208834  0.14027352  1
  O  O298  1  0.88454342  0.62731793  0.63546132  1
  O  O299  1  0.25577956  0.25414947  0.11478273  1
  O  O300  1  0.25360023  0.27329662  0.63814561  1
  O  O301  1  0.24786986  0.76422847  0.12900707  1
  O  O302  1  0.25625027  0.75576758  0.62072278  1
  O  O303  1  0.74962725  0.25705408  0.12032311  1
  O  O304  1  0.75281239  0.25566925  0.61483160  1
  O  O305  1  0.74266927  0.75221287  0.11459917  1
  O  O306  1  0.75212922  0.75463586  0.61820922  1
  O  O307  1  0.25030303  0.23523249  0.36410577  1
  O  O308  1  0.25709340  0.24352053  0.88262999  1
  O  O309  1  0.25084385  0.74520106  0.38206909  1
  O  O310  1  0.24172212  0.74304497  0.87219237  1
  O  O311  1  0.74594516  0.24659481  0.38644956  1
  O  O312  1  0.75263759  0.24206369  0.88240820  1
  O  O313  1  0.74478139  0.74512448  0.38197150  1
  O  O314  1  0.73750922  0.75491854  0.88734269  1
  O  O315  1  0.00338833  0.12104237  0.00266282  1
  O  O316  1  0.00052105  0.12719239  0.51254201  1
  O  O317  1  -0.00113937  0.61828975  0.01180196  1
  O  O318  1  0.00828801  0.62601167  0.50549182  1
  O  O319  1  0.50900892  0.11498218  -0.00959871  1
  O  O320  1  0.50935363  0.13025861  0.50834184  1
  O  O321  1  0.50819579  0.61297544  0.00220046  1
  O  O322  1  0.50212711  0.61453583  0.50914553  1
  O  O323  1  0.50188242  0.38983815  0.50936877  1
  O  O324  1  0.50796141  0.38136802  0.98850001  1
  O  O325  1  0.50540251  0.86925407  0.48795184  1
  O  O326  1  0.49241663  0.88133364  0.99531104  1
  O  O327  1  0.99349072  0.37609459  0.49095772  1
  O  O328  1  0.99824135  0.37924912  0.99206867  1
  O  O329  1  0.99558674  0.87425431  0.49229269  1
  O  O330  1  0.99046823  0.88115222  0.99435494  1
  O  O331  1  0.48833349  0.50150135  0.38269176  1
  O  O332  1  0.49534487  0.49379680  0.87971341  1
  O  O333  1  0.50399256  0.98288231  0.36999319  1
  O  O334  1  0.49603296  0.98770004  0.88452856  1
  O  O335  1  1.00021780  0.48586764  0.37598861  1
  O  O336  1  0.99484851  0.49054806  0.88085193  1
  O  O337  1  0.99304024  0.99221255  0.37601543  1
  O  O338  1  0.99406785  0.99327959  0.88410576  1
  O  O339  1  -0.00350287  0.00810200  0.11055281  1
  O  O340  1  0.00572887  0.01068224  0.62522538  1
  O  O341  1  -0.00418809  0.50578738  0.11883645  1
  O  O342  1  0.00753824  0.51029317  0.62323574  1
  O  O343  1  0.50355940  -0.00359357  0.11382930  1
  O  O344  1  0.50568178  0.01063922  0.62398784  1
  O  O345  1  0.50624110  0.49519236  0.11784488  1
  O  O346  1  0.49639802  0.50832998  0.61564407  1
  O  O347  1  0.24907350  0.38124319  0.24045538  1
  O  O348  1  0.25237533  0.39166011  0.74272611  1
  O  O349  1  0.24190341  0.87899517  0.24531354  1
  O  O350  1  0.24153086  0.87877667  0.73950065  1
  O  O351  1  0.74738248  0.38072813  0.24634062  1
  O  O352  1  0.74370368  0.38062242  0.74870527  1
  O  O353  1  0.75065974  0.88829773  0.25416205  1
  O  O354  1  0.74256856  0.88173711  0.74585732  1
  O  O355  1  0.25306082  0.11622232  0.25199240  1
  O  O356  1  0.25561992  0.12838120  0.75512520  1
  O  O357  1  0.24722833  0.61904876  0.26007618  1
  O  O358  1  0.24746973  0.61483499  0.76413474  1
  O  O359  1  0.76045554  0.11667469  0.25025135  1
  O  O360  1  0.75097285  0.12315998  0.75686655  1
  O  O361  1  0.75625079  0.61963575  0.25676610  1
  O  O362  1  0.75704296  0.61272679  0.74583164  1
  O  O363  1  0.36415760  0.12144758  0.35649549  1
  O  O364  1  0.36421174  0.12219904  0.87046725  1
  O  O365  1  0.36649336  0.62320814  0.37878090  1
  O  O366  1  0.36909847  0.61720703  0.87855585  1
  O  O367  1  0.87644907  0.11940543  0.36735551  1
  O  O368  1  0.86435660  0.12004865  0.87137186  1
  O  O369  1  0.86333423  0.62814164  0.36761929  1
  O  O370  1  0.88348396  0.61226978  0.86963936  1
  O  O371  1  0.13859689  0.37029944  0.12596369  1
  O  O372  1  0.13028277  0.39109841  0.62455877  1
  O  O373  1  0.12883315  0.87377817  0.13145778  1
  O  O374  1  0.12952405  0.87988979  0.63095300  1
  O  O375  1  0.63613417  0.38414986  0.12782843  1
  O  O376  1  0.63091925  0.37519352  0.63757526  1
  O  O377  1  0.62239861  0.89021916  0.12466901  1
  O  O378  1  0.62793427  0.87651052  0.63244270  1
  O  O379  1  0.11391328  0.25050901  0.24507663  1
  O  O380  1  0.11111893  0.24808866  0.75013286  1
  O  O381  1  0.11650585  0.76194426  0.25488340  1
  O  O382  1  0.12761654  0.76235727  0.75856008  1
  O  O383  1  0.62486758  0.24208105  0.26568784  1
  O  O384  1  0.61333528  0.25535201  0.74872598  1
  O  O385  1  0.62083941  0.75380824  0.25857071  1
  O  O386  1  0.63415259  0.75842956  0.76364101  1
  O  O387  1  0.37542519  0.23649275  0.23536346  1
  O  O388  1  0.38680306  0.24099916  0.74826037  1
  O  O389  1  0.38855691  0.75446569  0.24932535  1
  O  O390  1  0.37311154  0.75403787  0.73832456  1
  O  O391  1  0.88088284  0.23837420  0.24956145  1
  O  O392  1  0.87989097  0.24534094  0.74447805  1
  O  O393  1  0.88261115  0.74065504  0.25444632  1
  O  O394  1  0.86674492  0.73602302  0.75465483  1
  O  O395  1  0.38535567  0.50149669  0.48690802  1
  O  O396  1  0.38791334  0.49758851  0.98891842  1
  O  O397  1  0.37867298  1.00761121  0.49713657  1
  O  O398  1  0.38122545  0.99475747  0.99525729  1
  O  O399  1  0.87538791  0.48833477  0.50588341  1
  O  O400  1  0.88374466  0.49939325  0.99413542  1
  O  O401  1  0.87626744  0.99390552  0.49453192  1
  O  O402  1  0.87825107  0.99023432  0.99531756  1
  O  O403  1  0.11473898  0.01230470  -0.00620621  1
  O  O404  1  0.12115994  0.00256763  0.51241652  1
  O  O405  1  0.11091456  0.50419541  -0.00397381  1
  O  O406  1  0.12427726  0.51344632  0.50905223  1
  O  O407  1  0.61858920  0.00545913  0.00434517  1
  O  O408  1  0.63250047  0.01122770  0.50519523  1
  O  O409  1  0.61862497  0.50022837  0.00768659  1
  O  O410  1  0.61097595  0.50158217  0.50097668  1
  O  O411  1  0.36396911  0.35705457  0.12593391  1
  O  O412  1  0.36401501  0.37902136  0.62901000  1
  O  O413  1  0.36610723  0.87008098  0.11641461  1
  O  O414  1  0.36413234  0.86908255  0.62181970  1
  O  O415  1  0.86193153  0.37468061  0.12492794  1
  O  O416  1  0.87006092  0.37093382  0.61983232  1
  O  O417  1  0.87895256  0.87713073  0.11096113  1
  O  O418  1  0.86987536  0.87358320  0.62174137  1
  O  O419  1  0.13708994  0.11989496  0.36991923  1
  O  O420  1  0.13624295  0.12129347  0.87749826  1
  O  O421  1  0.13482301  0.62575579  0.38490897  1
  O  O422  1  0.12982718  0.63621357  0.87666560  1
  O  O423  1  0.62682989  0.13110528  0.38349334  1
  O  O424  1  0.63557714  0.11807236  0.88415365  1
  O  O425  1  0.63638521  0.63553323  0.37698287  1
  O  O426  1  0.62178523  0.64030128  0.87477677  1
