# generated using pymatgen
data_V85Zn86O256
_symmetry_space_group_name_H-M   'P 1'
_cell_length_a   16.95003665
_cell_length_b   16.96001212
_cell_length_c   16.95941764
_cell_angle_alpha   89.94895068
_cell_angle_beta   90.01356602
_cell_angle_gamma   90.02320534
_symmetry_Int_Tables_number   1
_chemical_formula_structural   V85Zn86O256
_chemical_formula_sum   'V85 Zn86 O256'
_cell_volume   4875.36926393
_cell_formula_units_Z   1
loop_
 _symmetry_equiv_pos_site_id
 _symmetry_equiv_pos_as_xyz
  1  'x, y, z'
loop_
 _atom_site_type_symbol
 _atom_site_label
 _atom_site_symmetry_multiplicity
 _atom_site_fract_x
 _atom_site_fract_y
 _atom_site_fract_z
 _atom_site_occupancy
  V  V0  1  0.74469779  0.24770965  0.50028813  1
  V  V1  1  0.50217009  -0.00227118  0.50312570  1
  V  V2  1  -0.00103375  0.25129501  0.24426923  1
  V  V3  1  0.50270801  0.25649971  0.74800665  1
  V  V4  1  0.87457103  0.63064016  0.73863978  1
  V  V5  1  0.51406685  0.87788002  0.86971425  1
  V  V6  1  0.11895217  0.49293308  0.13904842  1
  V  V7  1  0.49757480  0.11887702  0.63462966  1
  V  V8  1  0.62408722  0.50742204  0.62739947  1
  V  V9  1  0.50007382  0.87343744  0.37411856  1
  V  V10  1  0.61796418  0.12646610  0.00913919  1
  V  V11  1  0.87737132  0.37861816  0.00685941  1
  V  V12  1  0.74664959  0.50422400  0.24509431  1
  V  V13  1  0.25297939  0.62059565  0.87483151  1
  V  V14  1  0.62171702  0.12158921  0.50445638  1
  V  V15  1  0.25304409  0.87280883  0.62750213  1
  V  V16  1  0.87290340  -0.00392224  0.87790137  1
  V  V17  1  0.75419392  0.24957686  0.00366151  1
  V  V18  1  0.74990524  0.12415660  0.87594140  1
  V  V19  1  0.88481172  0.50274815  0.87975307  1
  V  V20  1  0.74773203  0.12457369  0.37456940  1
  V  V21  1  0.62767939  0.74942777  0.37500834  1
  V  V22  1  0.13762249  -0.00062987  0.13424800  1
  V  V23  1  0.74947516  0.37401676  0.12566236  1
  V  V24  1  0.37679108  0.75065081  0.10974488  1
  V  V25  1  0.74663416  0.00065918  0.24947156  1
  V  V26  1  0.13050054  0.12337420  -0.00075129  1
  V  V27  1  0.62056160  0.38267366  0.24409008  1
  V  V28  1  -0.00311749  0.12756021  0.62476610  1
  V  V29  1  0.12530389  0.25217043  0.36743914  1
  V  V30  1  0.26072556  0.13025106  0.87606258  1
  V  V31  1  0.37918858  0.12291769  0.24346686  1
  V  V32  1  0.12868253  0.24798987  0.87917483  1
  V  V33  1  0.12853075  0.00787640  0.62559114  1
  V  V34  1  0.49812337  0.74318289  0.24732194  1
  V  V35  1  0.75221240  0.75466273  0.00111600  1
  V  V36  1  0.74044028  0.37329392  0.63056048  1
  V  V37  1  0.73634518  -0.00052184  0.74610092  1
  V  V38  1  0.24795230  0.38166552  0.12905753  1
  V  V39  1  0.37311093  0.87025429  0.50297848  1
  V  V40  1  0.74634276  0.49491142  0.75165879  1
  V  V41  1  0.88409686  0.63158312  0.24829366  1
  V  V42  1  0.75482236  0.62744107  0.38006039  1
  V  V43  1  0.73764291  0.87413751  0.62828323  1
  V  V44  1  0.12562297  0.12778940  0.49577309  1
  V  V45  1  -0.00321649  0.12637868  0.12087533  1
  V  V46  1  -0.00419309  0.87686556  0.88149354  1
  V  V47  1  0.87133764  0.37316216  0.49639380  1
  V  V48  1  0.88397020  0.75610570  0.12468889  1
  V  V49  1  0.62656060  0.25411721  0.87115631  1
  V  V50  1  0.75123201  0.62600311  0.87701340  1
  V  V51  1  0.87313672  0.24912609  0.62726376  1
  V  V52  1  0.75331779  0.87768956  0.12237378  1
  V  V53  1  0.36168617  0.50396260  0.37240411  1
  V  V54  1  0.87639659  0.87724815  0.50735826  1
  V  V55  1  0.62595133  0.61583486  0.00931939  1
  V  V56  1  0.87704691  0.49984319  0.37285158  1
  V  V57  1  0.12613855  0.87748780  0.75233498  1
  V  V58  1  0.36633721  0.24927583  0.11709477  1
  V  V59  1  0.00123946  0.37270484  0.88164970  1
  V  V60  1  0.23614203  0.73665230  0.49719145  1
  V  V61  1  0.12523471  0.75104158  0.87382725  1
  V  V62  1  0.49910677  0.24859032  0.24081991  1
  V  V63  1  0.62167684  0.87504200  0.24725794  1
  V  V64  1  0.37774133  0.37412396  0.50384701  1
  V  V65  1  0.36713486  -0.00319826  0.37144252  1
  V  V66  1  0.37296897  0.24749325  0.62994367  1
  V  V67  1  0.24639191  0.49317570  0.74586757  1
  V  V68  1  0.25429130  0.24720512  0.49467393  1
  V  V69  1  0.00272516  0.86807234  0.36481021  1
  V  V70  1  0.49809214  0.51164644  0.50446633  1
  V  V71  1  0.62103341  0.25152351  0.37378318  1
  V  V72  1  0.25300222  0.76048039  -0.00255381  1
  V  V73  1  0.11957725  0.60974348  -0.00638234  1
  V  V74  1  0.37432660  -0.01167371  0.87404664  1
  V  V75  1  0.49209912  -0.00358485  0.01281021  1
  V  V76  1  0.00023578  0.37581977  0.36941553  1
  V  V77  1  0.35712942  0.61954646  0.24855294  1
  V  V78  1  0.49827974  0.37825041  0.37404811  1
  V  V79  1  -0.00135572  0.00359716  0.49618647  1
  V  V80  1  0.50124665  0.37794578  0.87634274  1
  V  V81  1  0.76123951  0.74995698  0.50260237  1
  V  V82  1  0.24908150  0.12106411  0.36568001  1
  V  V83  1  0.25629162  0.01422265  0.74814723  1
  V  V84  1  0.87052701  0.13091904  0.24357156  1
  Zn  Zn85  1  0.13392305  0.74281753  0.34413164  1
  Zn  Zn86  1  0.87495990  0.00237052  0.37324147  1
  Zn  Zn87  1  0.61672467  0.00359439  0.12852532  1
  Zn  Zn88  1  -0.01075565  0.75777590  0.74985574  1
  Zn  Zn89  1  0.50703212  0.74320788  0.73851290  1
  Zn  Zn90  1  -0.00416079  -0.00183017  0.00252881  1
  Zn  Zn91  1  0.62862960  0.75456287  0.87140993  1
  Zn  Zn92  1  -0.00421286  0.24870728  0.75506257  1
  Zn  Zn93  1  0.08392081  0.54019902  0.57114596  1
  Zn  Zn94  1  0.87328322  0.12178878  0.75067907  1
  Zn  Zn95  1  0.50330144  0.61433932  0.12949301  1
  Zn  Zn96  1  0.20444861  0.84794173  0.19157339  1
  Zn  Zn97  1  0.37422428  0.49462158  0.87695787  1
  Zn  Zn98  1  0.02188138  0.67839939  0.60820364  1
  Zn  Zn99  1  0.38420476  0.73316337  0.62182110  1
  Zn  Zn100  1  0.36921307  0.37356434  -0.00172175  1
  Zn  Zn101  1  0.50014065  0.49221365  0.01180774  1
  Zn  Zn102  1  -0.00233995  0.62178526  0.11754388  1
  Zn  Zn103  1  0.21170857  0.39773608  0.59631104  1
  Zn  Zn104  1  0.38412212  0.62067822  0.74254899  1
  Zn  Zn105  1  0.12177760  0.37545875  0.75170485  1
  Zn  Zn106  1  0.62377581  0.63052042  0.50368238  1
  Zn  Zn107  1  0.18868462  0.18712047  0.18524134  1
  Zn  Zn108  1  0.17103087  0.21818495  0.67392899  1
  Zn  Zn109  1  0.18707607  0.67831647  0.17495151  1
  Zn  Zn110  1  0.19337772  0.68500309  0.68801532  1
  Zn  Zn111  1  0.68587764  0.19240673  0.18592058  1
  Zn  Zn112  1  0.68387554  0.18295899  0.68831252  1
  Zn  Zn113  1  0.69254172  0.69086973  0.18826668  1
  Zn  Zn114  1  0.68790693  0.68987694  0.69028882  1
  Zn  Zn115  1  0.31268285  0.31546458  0.30724548  1
  Zn  Zn116  1  0.31532798  0.31087938  0.81120878  1
  Zn  Zn117  1  0.31430204  0.80274063  0.31747271  1
  Zn  Zn118  1  0.31795390  0.80882235  0.80800932  1
  Zn  Zn119  1  0.80977882  0.31032157  0.30927628  1
  Zn  Zn120  1  0.81463127  0.31250960  0.81501472  1
  Zn  Zn121  1  0.82084797  0.81597261  0.31445006  1
  Zn  Zn122  1  0.80822446  0.81479263  0.81131555  1
  Zn  Zn123  1  0.18474641  0.43321454  0.42736262  1
  Zn  Zn124  1  0.19362706  0.43114331  0.94137933  1
  Zn  Zn125  1  0.18431079  0.93192156  0.43443106  1
  Zn  Zn126  1  0.18630356  0.94160366  0.93913648  1
  Zn  Zn127  1  0.68671490  0.44100336  0.43772669  1
  Zn  Zn128  1  0.68865344  0.43749334  0.93554970  1
  Zn  Zn129  1  0.68680898  0.93686518  0.43783384  1
  Zn  Zn130  1  0.68622096  0.94262586  0.94326616  1
  Zn  Zn131  1  0.31376808  0.06409634  0.05979878  1
  Zn  Zn132  1  0.31610745  0.06392122  0.55934921  1
  Zn  Zn133  1  0.31312645  0.55991449  0.05794237  1
  Zn  Zn134  1  0.31262163  0.56379906  0.56561837  1
  Zn  Zn135  1  0.81190523  0.06175182  0.06204867  1
  Zn  Zn136  1  0.81057910  0.05920098  0.56459171  1
  Zn  Zn137  1  0.81276929  0.56356561  0.06374292  1
  Zn  Zn138  1  0.91000218  0.54483841  0.56576907  1
  Zn  Zn139  1  0.43410931  0.44012310  0.18323487  1
  Zn  Zn140  1  0.43359280  0.44065036  0.68836013  1
  Zn  Zn141  1  0.39644091  0.91684131  0.20081981  1
  Zn  Zn142  1  0.43890804  0.93403806  0.68973815  1
  Zn  Zn143  1  0.93775655  0.43926579  0.18683861  1
  Zn  Zn144  1  0.93126499  0.43266421  0.69896720  1
  Zn  Zn145  1  0.93502757  0.94565238  0.18479825  1
  Zn  Zn146  1  0.93523976  0.93575925  0.69048463  1
  Zn  Zn147  1  0.06053414  0.06162139  0.30800845  1
  Zn  Zn148  1  0.06343909  0.06310961  0.81232319  1
  Zn  Zn149  1  0.06783253  0.56333499  0.31117073  1
  Zn  Zn150  1  0.06429768  0.56560298  0.79813224  1
  Zn  Zn151  1  0.55822800  0.06161225  0.31402346  1
  Zn  Zn152  1  0.56008266  0.06608910  0.81911467  1
  Zn  Zn153  1  0.56189978  0.56260633  0.31796495  1
  Zn  Zn154  1  0.56825935  0.56580040  0.81279700  1
  Zn  Zn155  1  0.43864817  0.18605542  0.43458699  1
  Zn  Zn156  1  0.43970332  0.18455429  0.93577007  1
  Zn  Zn157  1  0.43114349  0.68772649  0.43586423  1
  Zn  Zn158  1  0.45346543  0.67540985  0.91195549  1
  Zn  Zn159  1  0.93470956  0.18999573  0.43513489  1
  Zn  Zn160  1  0.93506639  0.18700282  0.94015521  1
  Zn  Zn161  1  0.98582848  0.66642346  0.42272343  1
  Zn  Zn162  1  0.93678627  0.69200040  0.93800982  1
  Zn  Zn163  1  0.06604674  0.31110801  0.06059183  1
  Zn  Zn164  1  0.04971837  0.37029152  0.57094357  1
  Zn  Zn165  1  0.06709779  0.81417793  0.06005836  1
  Zn  Zn166  1  0.06563436  0.82861297  0.56159664  1
  Zn  Zn167  1  0.56335986  0.31352896  0.06234539  1
  Zn  Zn168  1  0.55907271  0.31391300  0.56319593  1
  Zn  Zn169  1  0.56278068  0.81017472  0.05961667  1
  Zn  Zn170  1  0.56758581  0.81070355  0.56237396  1
  O  O171  1  0.11986526  0.11881908  0.11753736  1
  O  O172  1  0.11580800  0.12801241  0.61597220  1
  O  O173  1  0.12310892  0.60773478  0.11117232  1
  O  O174  1  0.11407042  0.62187998  0.64079029  1
  O  O175  1  0.62594775  0.12713773  0.11333287  1
  O  O176  1  0.61492483  0.12891571  0.61104999  1
  O  O177  1  0.63039938  0.62980314  0.11168138  1
  O  O178  1  0.63507285  0.61096392  0.62070228  1
  O  O179  1  0.38054842  0.38172542  0.37882469  1
  O  O180  1  0.38730655  0.36938076  0.87890277  1
  O  O181  1  0.37973614  0.88026454  0.38782914  1
  O  O182  1  0.37916043  0.88594834  0.87592911  1
  O  O183  1  0.87527777  0.37912345  0.37662447  1
  O  O184  1  0.87967496  0.38168788  0.88605307  1
  O  O185  1  0.87831620  0.88470561  0.38878684  1
  O  O186  1  0.88325371  0.88257484  0.86865871  1
  O  O187  1  0.25976327  0.00540027  0.38068866  1
  O  O188  1  0.25757558  0.00575558  0.86860415  1
  O  O189  1  0.26202769  0.49790100  0.37804372  1
  O  O190  1  0.24788425  0.50543888  0.86911650  1
  O  O191  1  0.74698016  0.00756608  0.36578859  1
  O  O192  1  0.75361399  0.00301957  0.86763561  1
  O  O193  1  0.75551460  0.50787065  0.36547595  1
  O  O194  1  0.75852677  0.50456258  0.86926864  1
  O  O195  1  0.23727332  0.49010828  0.12045351  1
  O  O196  1  0.25555254  0.49443115  0.64036327  1
  O  O197  1  0.23729686  1.00659152  0.12259740  1
  O  O198  1  0.24947099  0.99954510  0.63125184  1
  O  O199  1  0.75393810  0.49174308  0.13820402  1
  O  O200  1  0.74108783  0.48690319  0.63548330  1
  O  O201  1  0.74612139  0.99429620  0.13195020  1
  O  O202  1  0.74998264  0.99484118  0.63875660  1
  O  O203  1  -0.01174019  0.35909004  0.25488061  1
  O  O204  1  -0.00183982  0.36967009  0.76870059  1
  O  O205  1  -0.01044669  0.88941829  0.26815492  1
  O  O206  1  0.00992986  0.88216811  0.76254315  1
  O  O207  1  0.50580007  0.37071178  0.25462294  1
  O  O208  1  0.49752727  0.36172621  0.75571766  1
  O  O209  1  0.49780592  0.86013810  0.25374802  1
  O  O210  1  0.49921202  0.87726643  0.76777977  1
  O  O211  1  0.49189101  0.13743978  0.25682844  1
  O  O212  1  0.50580196  0.13203068  0.73911869  1
  O  O213  1  0.50260137  0.63621286  0.25212170  1
  O  O214  1  0.48662847  0.63950058  0.79996281  1
  O  O215  1  0.98952811  0.13193907  0.24374382  1
  O  O216  1  0.99840069  0.12407538  0.73441129  1
  O  O217  1  0.98575499  0.61899746  0.24121111  1
  O  O218  1  0.98058937  0.62796995  0.75121335  1
  O  O219  1  0.38389304  0.24558671  0.01587273  1
  O  O220  1  0.37616478  0.25661841  0.50357672  1
  O  O221  1  0.36970501  0.73145173  0.00759553  1
  O  O222  1  0.36423019  0.75815053  0.50074740  1
  O  O223  1  0.85994782  0.25933565  -0.00484755  1
  O  O224  1  0.86218027  0.25196893  0.50526474  1
  O  O225  1  0.86136881  0.74579546  0.00918287  1
  O  O226  1  0.86295372  0.76261210  0.49822371  1
  O  O227  1  0.13259918  0.24117482  0.48053008  1
  O  O228  1  0.12063449  0.23575697  0.98996730  1
  O  O229  1  0.13717193  0.75623593  0.50829516  1
  O  O230  1  0.13292403  0.74436704  0.98957095  1
  O  O231  1  0.62557999  0.24293519  0.49412747  1
  O  O232  1  0.63420669  0.24507370  0.99562684  1
  O  O233  1  0.63890697  0.75090366  0.49133663  1
  O  O234  1  0.63828958  0.74113438  0.99726735  1
  O  O235  1  0.49288768  0.25668566  0.13723331  1
  O  O236  1  0.49589844  0.24368779  0.63192738  1
  O  O237  1  0.49356881  0.73917519  0.12934490  1
  O  O238  1  0.49493354  0.76234037  0.62589357  1
  O  O239  1  1.00771772  0.23796588  0.13217254  1
  O  O240  1  0.98152367  0.24471657  0.62339300  1
  O  O241  1  0.98656590  0.75292828  0.11649380  1
  O  O242  1  0.99688257  0.78003207  0.63698598  1
  O  O243  1  0.00558527  0.25261710  0.36516834  1
  O  O244  1  0.00421728  0.25633271  0.87766653  1
  O  O245  1  -0.01605425  0.76953203  0.37207257  1
  O  O246  1  0.00638600  0.75892686  0.87123157  1
  O  O247  1  0.50292677  0.25859068  0.36634290  1
  O  O248  1  0.50723775  0.25325698  0.86715201  1
  O  O249  1  0.50413919  0.75487596  0.36931254  1
  O  O250  1  0.50488572  0.77722597  0.89472730  1
  O  O251  1  0.24839690  0.12841927  0.48525738  1
  O  O252  1  0.24230275  0.12211069  0.98879870  1
  O  O253  1  0.24645724  0.63778628  0.50652549  1
  O  O254  1  0.23458287  0.62919771  0.99359042  1
  O  O255  1  0.73944296  0.12646238  0.49709161  1
  O  O256  1  0.74367293  0.13354232  0.99706445  1
  O  O257  1  0.75351650  0.63461189  0.48578310  1
  O  O258  1  0.74525545  0.63119506  0.99637966  1
  O  O259  1  0.25247033  0.37032558  0.01671352  1
  O  O260  1  0.26488081  0.36466041  0.49489741  1
  O  O261  1  0.24891495  0.85994984  -0.00885186  1
  O  O262  1  0.25752240  0.87438028  0.50799527  1
  O  O263  1  0.75357390  0.37036122  0.00805562  1
  O  O264  1  0.75407293  0.36709971  0.50375560  1
  O  O265  1  0.74462640  0.86893915  0.01119136  1
  O  O266  1  0.75587027  0.87401102  0.50832493  1
  O  O267  1  0.12456694  0.49870254  0.23756421  1
  O  O268  1  0.13871497  0.49305917  0.75280776  1
  O  O269  1  0.12606353  1.00594312  0.23397108  1
  O  O270  1  0.13375628  0.99752155  0.74358709  1
  O  O271  1  0.63386679  0.49223826  0.25822641  1
  O  O272  1  0.63712674  0.50358539  0.74477483  1
  O  O273  1  0.62668304  0.99469632  0.24777270  1
  O  O274  1  0.63781358  1.00563208  0.75646038  1
  O  O275  1  0.39054929  0.01262552  0.26316725  1
  O  O276  1  0.36677292  -0.00160553  0.75909910  1
  O  O277  1  0.37860917  0.51250307  0.25799719  1
  O  O278  1  0.36455692  0.49954706  0.75866767  1
  O  O279  1  0.86511824  0.01467667  0.25118614  1
  O  O280  1  0.86459460  0.00228543  0.76084991  1
  O  O281  1  0.86640392  0.50477656  0.25703382  1
  O  O282  1  0.86475834  0.50778107  0.75971905  1
  O  O283  1  0.11162005  0.36441937  0.36973877  1
  O  O284  1  0.11703356  0.36489597  0.88023843  1
  O  O285  1  0.10792163  0.86880498  0.37766366  1
  O  O286  1  0.12039929  0.86955003  0.87174220  1
  O  O287  1  0.62005184  0.37150091  0.36567167  1
  O  O288  1  0.62162378  0.36019623  0.87999598  1
  O  O289  1  0.61918196  0.86950837  0.36811207  1
  O  O290  1  0.61714210  0.88096827  0.87499679  1
  O  O291  1  0.36801951  0.13199651  0.13732302  1
  O  O292  1  0.38878384  0.13453589  0.61586953  1
  O  O293  1  0.37617404  0.62651131  0.13694838  1
  O  O294  1  0.38597545  0.61774029  0.62742368  1
  O  O295  1  0.88273908  0.12338583  0.13107848  1
  O  O296  1  0.87993373  0.13110949  0.62427802  1
  O  O297  1  0.87523512  0.63448276  0.13094847  1
  O  O298  1  0.86285775  0.61970259  0.64052861  1
  O  O299  1  0.25757075  0.25721616  0.12737954  1
  O  O300  1  0.26496115  0.23759499  0.61106619  1
  O  O301  1  0.26430411  0.74858970  0.11386339  1
  O  O302  1  0.25352830  0.76119291  0.61827598  1
  O  O303  1  0.74829817  0.26460898  0.11896409  1
  O  O304  1  0.75464594  0.25155284  0.62188019  1
  O  O305  1  0.75740410  0.75987202  0.11977867  1
  O  O306  1  0.74607916  0.76547869  0.61783787  1
  O  O307  1  0.24433309  0.24368551  0.37386522  1
  O  O308  1  0.24382597  0.23972553  0.87009936  1
  O  O309  1  0.24462004  0.75295917  0.39205159  1
  O  O310  1  0.24370667  0.74183200  0.87855505  1
  O  O311  1  0.74051185  0.24417678  0.37918332  1
  O  O312  1  0.74372341  0.24575870  0.88147736  1
  O  O313  1  0.74978330  0.74511728  0.37931535  1
  O  O314  1  0.75245790  0.74350638  0.88440835  1
  O  O315  1  0.00542218  0.12406475  0.00759984  1
  O  O316  1  0.00204896  0.12275379  0.50693607  1
  O  O317  1  0.01617182  0.63166458  -0.00146227  1
  O  O318  1  -0.00879572  0.61256996  0.52134825  1
  O  O319  1  0.50853254  0.11164150  -0.00621488  1
  O  O320  1  0.50485033  0.11733492  0.50467622  1
  O  O321  1  0.52008314  0.62284175  -0.00446420  1
  O  O322  1  0.50198419  0.61390384  0.49307915  1
  O  O323  1  0.49206673  0.38033591  0.49316898  1
  O  O324  1  0.49981030  0.37263976  0.98999980  1
  O  O325  1  0.49366997  0.88199605  0.49499968  1
  O  O326  1  0.50989417  0.89403859  0.99342498  1
  O  O327  1  0.97749116  0.35821217  0.48204359  1
  O  O328  1  0.99001340  0.36940341  0.99265265  1
  O  O329  1  0.99254798  0.88794847  0.49287217  1
  O  O330  1  1.00477125  0.87884477  0.98559955  1
  O  O331  1  0.49383200  0.49392155  0.38498757  1
  O  O332  1  0.50800979  0.48195230  0.87344407  1
  O  O333  1  0.49115816  0.99286966  0.38281477  1
  O  O334  1  0.49329694  0.99336159  0.88066264  1
  O  O335  1  0.99113057  0.48445643  0.36553087  1
  O  O336  1  0.98874410  0.49450296  0.86922114  1
  O  O337  1  1.00064906  1.00091929  0.38690768  1
  O  O338  1  0.99091212  0.99599829  0.87566982  1
  O  O339  1  0.00596031  0.01307005  0.12283744  1
  O  O340  1  0.00422683  0.00828055  0.61498090  1
  O  O341  1  0.01415818  0.49816292  0.12433507  1
  O  O342  1  -0.01043627  0.46957445  0.61124506  1
  O  O343  1  0.49391668  -0.00476788  0.11299541  1
  O  O344  1  0.49345934  0.00756789  0.61640323  1
  O  O345  1  0.50556738  0.50150594  0.12569925  1
  O  O346  1  0.51267548  0.48835663  0.61674360  1
  O  O347  1  0.24953024  0.37110946  0.23083205  1
  O  O348  1  0.24799339  0.38752382  0.75755639  1
  O  O349  1  0.29239642  0.88644994  0.24692783  1
  O  O350  1  0.24658738  0.88336870  0.74247145  1
  O  O351  1  0.74331237  0.38132108  0.24384608  1
  O  O352  1  0.75631560  0.38283482  0.74303288  1
  O  O353  1  0.74453839  0.88356156  0.24593656  1
  O  O354  1  0.75138145  0.88393918  0.73634058  1
  O  O355  1  0.25956830  0.12817334  0.26061054  1
  O  O356  1  0.24430081  0.11553074  0.75724067  1
  O  O357  1  0.25903307  0.62220157  0.24854681  1
  O  O358  1  0.25126483  0.61145597  0.75966194  1
  O  O359  1  0.75264844  0.12260587  0.25159122  1
  O  O360  1  0.74933636  0.11396564  0.75511132  1
  O  O361  1  0.75689192  0.61921068  0.25808593  1
  O  O362  1  0.75823542  0.61743072  0.75996394  1
  O  O363  1  0.36840651  0.11772196  0.36819926  1
  O  O364  1  0.36459566  0.11727770  0.87742563  1
  O  O365  1  0.37754086  0.61791532  0.35962918  1
  O  O366  1  0.35557447  0.62137445  0.88450280  1
  O  O367  1  0.86457406  0.12499240  0.36726314  1
  O  O368  1  0.86557957  0.12005997  0.87317230  1
  O  O369  1  0.87525447  0.61646033  0.36788837  1
  O  O370  1  0.86717964  0.61809277  0.87567734  1
  O  O371  1  0.13100739  0.38607081  0.11960478  1
  O  O372  1  0.13056536  0.33074249  0.64225609  1
  O  O373  1  0.12577961  0.89404318  0.11821296  1
  O  O374  1  0.13950055  0.88965718  0.62917775  1
  O  O375  1  0.63239194  0.37168310  0.13762501  1
  O  O376  1  0.63664227  0.37769001  0.61951425  1
  O  O377  1  0.63422287  0.87451161  0.13217225  1
  O  O378  1  0.64059631  0.88554021  0.61510169  1
  O  O379  1  0.11386666  0.23906965  0.25940607  1
  O  O380  1  0.11625870  0.24274214  0.77126571  1
  O  O381  1  0.14330790  0.76176056  0.23341866  1
  O  O382  1  0.12904680  0.75768383  0.76379943  1
  O  O383  1  0.61702888  0.25793599  0.25434676  1
  O  O384  1  0.61720410  0.24500393  0.75955781  1
  O  O385  1  0.61903407  0.75536827  0.25453987  1
  O  O386  1  0.62142209  0.74351464  0.75942824  1
  O  O387  1  0.38231175  0.24254731  0.24432150  1
  O  O388  1  0.38320081  0.25036294  0.73685510  1
  O  O389  1  0.38108348  0.73496250  0.24154718  1
  O  O390  1  0.38011373  0.74434922  0.74258131  1
  O  O391  1  0.87996003  0.23815266  0.25196772  1
  O  O392  1  0.87386049  0.24481521  0.74149685  1
  O  O393  1  0.86662066  0.74137181  0.23894568  1
  O  O394  1  0.86891280  0.73398359  0.75454172  1
  O  O395  1  0.38055698  0.49226700  0.49463129  1
  O  O396  1  0.38115873  0.49490871  0.99432639  1
  O  O397  1  0.38342412  0.99431357  0.49092888  1
  O  O398  1  0.38676017  1.00507137  0.99262833  1
  O  O399  1  0.86199549  0.48611327  0.48092365  1
  O  O400  1  0.86939542  0.49144278  0.99180669  1
  O  O401  1  0.88322794  0.99892153  0.49748240  1
  O  O402  1  0.87338499  1.00414083  0.98412834  1
  O  O403  1  0.12102101  0.01189117  0.00493306  1
  O  O404  1  0.11877902  0.00752311  0.50519168  1
  O  O405  1  0.12255716  0.50939132  -0.00498028  1
  O  O406  1  0.12978436  0.45037651  0.52362316  1
  O  O407  1  0.61582337  0.01097177  0.00566000  1
  O  O408  1  0.61076194  0.00737863  0.49260177  1
  O  O409  1  0.63118074  0.51316692  0.00003855  1
  O  O410  1  0.61636287  0.50165019  0.50734167  1
  O  O411  1  0.36428893  0.36702844  0.12543248  1
  O  O412  1  0.37976385  0.36435733  0.61387092  1
  O  O413  1  0.38931050  0.84958249  0.10951463  1
  O  O414  1  0.36567410  0.88259037  0.61380471  1
  O  O415  1  0.86785126  0.37999650  0.11393919  1
  O  O416  1  0.86093566  0.36563653  0.61591864  1
  O  O417  1  0.86257480  0.87149737  0.13133891  1
  O  O418  1  0.86345005  0.88771538  0.61197369  1
  O  O419  1  0.13261276  0.12693727  0.37557504  1
  O  O420  1  0.13330778  0.12660444  0.88244212  1
  O  O421  1  0.09117126  0.64418548  0.37980706  1
  O  O422  1  0.12848984  0.63069160  0.87900536  1
  O  O423  1  0.62652524  0.13082827  0.38448044  1
  O  O424  1  0.63029310  0.13501895  0.88636641  1
  O  O425  1  0.63773733  0.63187614  0.37680973  1
  O  O426  1  0.64315003  0.62273769  0.88677443  1
