# generated using pymatgen
data_V85Zn86O256
_symmetry_space_group_name_H-M   'P 1'
_cell_length_a   16.95693476
_cell_length_b   16.95201020
_cell_length_c   16.96791878
_cell_angle_alpha   89.99735052
_cell_angle_beta   90.04332400
_cell_angle_gamma   90.00681536
_symmetry_Int_Tables_number   1
_chemical_formula_structural   V85Zn86O256
_chemical_formula_sum   'V85 Zn86 O256'
_cell_volume   4877.49691538
_cell_formula_units_Z   1
loop_
 _symmetry_equiv_pos_site_id
 _symmetry_equiv_pos_as_xyz
  1  'x, y, z'
loop_
 _atom_site_type_symbol
 _atom_site_label
 _atom_site_symmetry_multiplicity
 _atom_site_fract_x
 _atom_site_fract_y
 _atom_site_fract_z
 _atom_site_occupancy
  V  V0  1  0.62339722  0.38926479  0.25081667  1
  V  V1  1  0.74970792  0.61787551  0.86601059  1
  V  V2  1  0.62863071  0.62882878  0.50345618  1
  V  V3  1  0.49633696  0.12717931  0.12787561  1
  V  V4  1  0.75102781  0.25794804  0.00517976  1
  V  V5  1  0.73928950  0.38960131  0.13027037  1
  V  V6  1  0.75110730  0.87556974  0.12212108  1
  V  V7  1  0.37508558  0.87592306  -0.00004292  1
  V  V8  1  0.88795651  0.87557897  0.00108186  1
  V  V9  1  0.36598476  0.25435642  0.12257407  1
  V  V10  1  0.37371113  0.24884648  0.62779933  1
  V  V11  1  0.49950554  0.12501326  0.62805752  1
  V  V12  1  0.50124926  0.63140603  0.63202900  1
  V  V13  1  0.37704417  0.75477681  0.62805722  1
  V  V14  1  0.62493096  0.87624281  0.25443479  1
  V  V15  1  0.63910090  0.49799844  0.62958654  1
  V  V16  1  0.12912483  0.37050801  0.75475690  1
  V  V17  1  0.49928327  0.87346815  0.87110187  1
  V  V18  1  0.87628998  0.89090573  0.49616166  1
  V  V19  1  0.12148114  0.62390247  0.50419562  1
  V  V20  1  0.63862554  0.37714148  0.74855777  1
  V  V21  1  0.24373089  -0.00491835  0.74962088  1
  V  V22  1  0.86818294  0.48896469  0.86163091  1
  V  V23  1  0.49426291  -0.00370809  0.50126890  1
  V  V24  1  0.37372242  0.74777550  0.12334193  1
  V  V25  1  0.75046085  0.75196454  -0.00533279  1
  V  V26  1  0.49690422  0.75139411  0.25369513  1
  V  V27  1  0.11801177  -0.00626060  0.62281465  1
  V  V28  1  0.62374602  0.00017065  0.12647250  1
  V  V29  1  0.00029962  0.37503944  0.87324350  1
  V  V30  1  -0.00505021  0.73898392  0.25211641  1
  V  V31  1  0.12324450  -0.00509496  0.11725604  1
  V  V32  1  0.75456044  0.26092371  0.50320943  1
  V  V33  1  0.86186096  0.49911413  0.37651617  1
  V  V34  1  0.74670443  0.75348018  0.49920469  1
  V  V35  1  0.49631753  0.87209946  0.37906604  1
  V  V36  1  0.24857075  0.62635065  0.37689895  1
  V  V37  1  0.87585056  0.12079026  0.25335872  1
  V  V38  1  0.74948815  0.88007966  0.62592627  1
  V  V39  1  0.87119594  0.24806263  0.12667993  1
  V  V40  1  0.37277220  0.00590639  0.87365801  1
  V  V41  1  0.12750122  0.50153832  0.63642864  1
  V  V42  1  0.00396508  0.12546348  0.11841647  1
  V  V43  1  0.19699377  0.44853033  0.19963290  1
  V  V44  1  0.37446437  0.37627258  0.50422863  1
  V  V45  1  0.13065233  0.75465888  0.86408667  1
  V  V46  1  0.49788252  0.37546318  0.37733382  1
  V  V47  1  0.62454505  0.12618186  0.50153042  1
  V  V48  1  0.49917428  0.00020176  0.00105049  1
  V  V49  1  0.37005426  0.38016905  -0.00390116  1
  V  V50  1  0.50856928  0.61817221  0.12426465  1
  V  V51  1  -0.00209388  0.12157054  0.61709539  1
  V  V52  1  0.87446890  0.26146698  0.62213746  1
  V  V53  1  0.61863412  0.74839828  0.87277209  1
  V  V54  1  0.49803225  0.25242474  0.25050121  1
  V  V55  1  0.75325700  0.12117364  0.37792094  1
  V  V56  1  0.12569503  0.12021427  0.49124676  1
  V  V57  1  -0.00404974  0.48849439  0.50285443  1
  V  V58  1  0.75133497  0.00188042  0.25124347  1
  V  V59  1  0.62591566  0.12662143  0.00122719  1
  V  V60  1  0.25117284  0.37985375  0.62985106  1
  V  V61  1  0.90894950  0.39616568  0.03150942  1
  V  V62  1  0.00400200  0.87693680  0.86211415  1
  V  V63  1  0.24194999  0.24291855  -0.01078637  1
  V  V64  1  -0.00433317  0.88943030  0.37554416  1
  V  V65  1  0.25115446  0.61249975  0.86885647  1
  V  V66  1  0.36558634  0.49970663  0.37622449  1
  V  V67  1  0.62517363  0.25103103  0.37603047  1
  V  V68  1  0.49986898  0.50249868  0.50488967  1
  V  V69  1  0.87768376  0.75043781  0.62551854  1
  V  V70  1  0.37736592  0.61338018  0.75337656  1
  V  V71  1  0.67771042  0.69576498  0.32849069  1
  V  V72  1  0.36991286  0.62310444  0.24932133  1
  V  V73  1  0.75881169  0.12660154  0.87609614  1
  V  V74  1  0.00496667  0.24434912  0.75341627  1
  V  V75  1  0.25166119  0.87650094  0.61758332  1
  V  V76  1  0.49881896  0.38628519  0.87308300  1
  V  V77  1  0.62184536  0.24999810  0.87414603  1
  V  V78  1  0.24622414  0.00545318  0.25162280  1
  V  V79  1  0.36959909  0.00435875  0.37601371  1
  V  V80  1  0.24944204  0.74706346  -0.00621730  1
  V  V81  1  0.00810938  0.25425001  0.25021797  1
  V  V82  1  0.12030281  0.75179023  0.37682430  1
  V  V83  1  0.24938725  0.24367574  0.49520652  1
  V  V84  1  0.62037035  0.87312270  0.74903822  1
  Zn  Zn85  1  0.62249538  0.00109904  0.62755743  1
  Zn  Zn86  1  0.22700191  0.12392467  0.87291498  1
  Zn  Zn87  1  0.00012304  0.37170444  0.37684932  1
  Zn  Zn88  1  0.62647145  0.61627466  -0.00232198  1
  Zn  Zn89  1  0.25536980  0.75486258  0.49918885  1
  Zn  Zn90  1  0.00548040  0.74935278  0.74487899  1
  Zn  Zn91  1  0.09097445  0.59151351  0.02640361  1
  Zn  Zn92  1  0.88022638  0.73871492  0.12065053  1
  Zn  Zn93  1  0.00042581  0.62443877  0.63241111  1
  Zn  Zn94  1  0.87270917  -0.00225180  0.87395281  1
  Zn  Zn95  1  0.86534351  0.62126806  0.25635098  1
  Zn  Zn96  1  0.50008742  0.25100382  0.75048076  1
  Zn  Zn97  1  0.87268523  0.12278154  0.74550655  1
  Zn  Zn98  1  0.13253607  0.25319146  0.37032920  1
  Zn  Zn99  1  0.36781730  0.13037099  0.25610748  1
  Zn  Zn100  1  0.37053830  0.12542350  0.75173857  1
  Zn  Zn101  1  0.12495072  0.87308713  0.25040080  1
  Zn  Zn102  1  0.50108558  0.49744243  0.00351624  1
  Zn  Zn103  1  0.74794846  0.00256932  0.75305854  1
  Zn  Zn104  1  0.87437104  0.62073189  0.74601504  1
  Zn  Zn105  1  0.00354838  0.01088529  -0.00810963  1
  Zn  Zn106  1  0.25025702  0.87469039  0.12875275  1
  Zn  Zn107  1  0.18540193  0.18479240  0.18041871  1
  Zn  Zn108  1  0.18698520  0.18151116  0.68503873  1
  Zn  Zn109  1  0.16387902  0.63369529  0.19997870  1
  Zn  Zn110  1  0.19260280  0.68833009  0.68998939  1
  Zn  Zn111  1  0.68397785  0.19082394  0.19181510  1
  Zn  Zn112  1  0.68869519  0.19093430  0.68823331  1
  Zn  Zn113  1  0.71995002  0.65591976  0.15557707  1
  Zn  Zn114  1  0.68830104  0.69277750  0.68789414  1
  Zn  Zn115  1  0.31035500  0.31391558  0.31281302  1
  Zn  Zn116  1  0.31368380  0.31238679  0.81391383  1
  Zn  Zn117  1  0.31106476  0.81635143  0.31314663  1
  Zn  Zn118  1  0.31639235  0.81321364  0.80428888  1
  Zn  Zn119  1  0.81443252  0.31675639  0.31487832  1
  Zn  Zn120  1  0.81677318  0.30474268  0.81214329  1
  Zn  Zn121  1  0.82029331  0.81954209  0.30950234  1
  Zn  Zn122  1  0.81193443  0.81383617  0.81145013  1
  Zn  Zn123  1  0.18200844  0.43324019  0.43839456  1
  Zn  Zn124  1  0.19032690  0.43602979  0.93502123  1
  Zn  Zn125  1  0.18629010  0.93825121  0.43769142  1
  Zn  Zn126  1  0.18700960  0.93555055  0.93684137  1
  Zn  Zn127  1  0.68296798  0.43795133  0.44159153  1
  Zn  Zn128  1  0.68265146  0.44035333  0.93926386  1
  Zn  Zn129  1  0.68172732  0.93935587  0.43791663  1
  Zn  Zn130  1  0.68779370  0.93738949  0.93772369  1
  Zn  Zn131  1  0.30870720  0.06464583  0.06449524  1
  Zn  Zn132  1  0.31155117  0.06113129  0.56214458  1
  Zn  Zn133  1  0.30760642  0.56157998  0.05851934  1
  Zn  Zn134  1  0.31064134  0.56604991  0.56461853  1
  Zn  Zn135  1  0.81556210  0.06204368  0.05963743  1
  Zn  Zn136  1  0.81128800  0.06651644  0.56386904  1
  Zn  Zn137  1  0.81730905  0.56151774  0.05177688  1
  Zn  Zn138  1  0.81434108  0.56571188  0.55705325  1
  Zn  Zn139  1  0.42664812  0.43726504  0.18855794  1
  Zn  Zn140  1  0.44596106  0.43840354  0.68910270  1
  Zn  Zn141  1  0.43376817  0.93835261  0.19091643  1
  Zn  Zn142  1  0.43464749  0.93713014  0.68903246  1
  Zn  Zn143  1  0.92984144  0.43733689  0.20181798  1
  Zn  Zn144  1  0.94212026  0.43743184  0.68899464  1
  Zn  Zn145  1  0.93967539  0.93485210  0.18685827  1
  Zn  Zn146  1  0.93200646  0.94205616  0.68728408  1
  Zn  Zn147  1  0.06559548  0.06606651  0.30681464  1
  Zn  Zn148  1  0.06067860  0.05925398  0.80651864  1
  Zn  Zn149  1  0.05879146  0.55796748  0.31956229  1
  Zn  Zn150  1  0.04025819  0.58305937  0.84699431  1
  Zn  Zn151  1  0.56047814  0.06294241  0.31425558  1
  Zn  Zn152  1  0.56429123  0.06146620  0.81279285  1
  Zn  Zn153  1  0.54949425  0.56074140  0.31300348  1
  Zn  Zn154  1  0.56428313  0.56177920  0.80949692  1
  Zn  Zn155  1  0.43593043  0.18585920  0.44026784  1
  Zn  Zn156  1  0.43694453  0.18994806  0.94004357  1
  Zn  Zn157  1  0.43736414  0.68968946  0.44281427  1
  Zn  Zn158  1  0.43705600  0.68511962  0.93620447  1
  Zn  Zn159  1  0.93628247  0.18559319  0.43782490  1
  Zn  Zn160  1  1.06068738  0.19761501  0.94296850  1
  Zn  Zn161  1  0.93501805  0.68540995  0.43952893  1
  Zn  Zn162  1  0.93497115  0.69089031  0.93330653  1
  Zn  Zn163  1  0.07749880  0.41022827  0.06623569  1
  Zn  Zn164  1  0.06633212  0.30865585  0.56520798  1
  Zn  Zn165  1  0.09056419  0.77405277  0.08696709  1
  Zn  Zn166  1  0.06068149  0.81557928  0.55863878  1
  Zn  Zn167  1  0.56012430  0.31574105  0.06220885  1
  Zn  Zn168  1  0.56511577  0.31323385  0.56528054  1
  Zn  Zn169  1  0.56345342  0.80827819  0.06289801  1
  Zn  Zn170  1  0.56156397  0.81245401  0.56207781  1
  O  O171  1  0.11341384  0.11211278  0.12827688  1
  O  O172  1  0.11698192  0.11501198  0.61655349  1
  O  O173  1  0.12427289  0.66382226  0.10382746  1
  O  O174  1  0.12764035  0.61850106  0.62105870  1
  O  O175  1  0.61395176  0.12255894  0.12229829  1
  O  O176  1  0.61708077  0.12530254  0.62015725  1
  O  O177  1  0.61151023  0.63272374  0.12368118  1
  O  O178  1  0.61960288  0.62294643  0.62176950  1
  O  O179  1  0.37856594  0.38273797  0.38452176  1
  O  O180  1  0.38600266  0.36701580  0.88558339  1
  O  O181  1  0.38802034  0.88735155  0.37004731  1
  O  O182  1  0.38039996  0.88446280  0.87956335  1
  O  O183  1  0.88113183  0.38941924  0.37365875  1
  O  O184  1  0.88248288  0.37613433  0.87330530  1
  O  O185  1  0.88607764  0.87770013  0.38181042  1
  O  O186  1  0.88596706  0.87231585  0.88067388  1
  O  O187  1  0.25907316  -0.00527642  0.36793546  1
  O  O188  1  0.25603057  0.00022927  0.86821473  1
  O  O189  1  0.25965384  0.51008024  0.39138478  1
  O  O190  1  0.25146002  0.51417081  0.87363531  1
  O  O191  1  0.74151459  0.01445300  0.37022868  1
  O  O192  1  0.74858551  0.01314416  0.87814042  1
  O  O193  1  0.76331901  0.49785562  0.38938978  1
  O  O194  1  0.75432125  0.50646449  0.87539454  1
  O  O195  1  0.26284995  0.50121753  0.14179589  1
  O  O196  1  0.24209094  0.48961169  0.61951183  1
  O  O197  1  0.24213779  0.99760178  0.13065257  1
  O  O198  1  0.24471005  0.99424539  0.63055526  1
  O  O199  1  0.74765259  0.48711875  0.12096238  1
  O  O200  1  0.73751991  0.50553109  0.61773341  1
  O  O201  1  0.74303918  0.99551401  0.12847855  1
  O  O202  1  0.74501279  0.98945907  0.62330166  1
  O  O203  1  -0.00345682  0.35618139  0.24969316  1
  O  O204  1  0.00955644  0.36495253  0.75247621  1
  O  O205  1  -0.00264437  0.86599609  0.26461219  1
  O  O206  1  -0.00601866  0.87259255  0.76021023  1
  O  O207  1  0.50278409  0.37078195  0.25620664  1
  O  O208  1  0.50737588  0.37091394  0.75887029  1
  O  O209  1  0.50548349  0.86957341  0.25476243  1
  O  O210  1  0.50739150  0.87949755  0.75890299  1
  O  O211  1  0.49795820  0.13263145  0.24267371  1
  O  O212  1  0.49962651  0.12509458  0.73773223  1
  O  O213  1  0.49264681  0.63311834  0.24172403  1
  O  O214  1  0.49031841  0.62472593  0.74396386  1
  O  O215  1  0.99000061  0.12901566  0.24282818  1
  O  O216  1  0.99957021  0.13134148  0.73595557  1
  O  O217  1  0.99700042  0.63648415  0.25647043  1
  O  O218  1  0.99389776  0.63127275  0.75160791  1
  O  O219  1  0.37040679  0.25657396  0.00658170  1
  O  O220  1  0.37015837  0.25393541  0.51066418  1
  O  O221  1  0.37350825  0.75880051  0.00270555  1
  O  O222  1  0.37121575  0.73987075  0.52028343  1
  O  O223  1  0.86579754  0.27346389  0.02037303  1
  O  O224  1  0.86932269  0.24734215  0.51209317  1
  O  O225  1  0.86798537  0.75595125  0.00045336  1
  O  O226  1  0.86267353  0.75606914  0.50660992  1
  O  O227  1  0.13516691  0.23889980  0.50443708  1
  O  O228  1  0.14369949  0.25642090  1.00317163  1
  O  O229  1  0.12395256  0.74249758  0.49097137  1
  O  O230  1  0.14608419  0.76389821  0.98266867  1
  O  O231  1  0.63067437  0.24407898  0.49635298  1
  O  O232  1  0.63003606  0.24531309  0.99518049  1
  O  O233  1  0.63689140  0.74587908  0.50251154  1
  O  O234  1  0.63212052  0.74905638  0.98891995  1
  O  O235  1  0.49209014  0.24326351  0.12907521  1
  O  O236  1  0.49143769  0.24215986  0.62438414  1
  O  O237  1  0.49136063  0.74405630  0.13107715  1
  O  O238  1  0.49565649  0.73849216  0.62185217  1
  O  O239  1  0.98754055  0.24038976  0.13964115  1
  O  O240  1  0.99087522  0.24334435  0.62921200  1
  O  O241  1  0.99276872  0.75866963  0.14847488  1
  O  O242  1  0.99133123  0.75027998  0.62391466  1
  O  O243  1  -0.00607401  0.24609064  0.35804837  1
  O  O244  1  0.00054774  0.25657576  0.85919238  1
  O  O245  1  0.00268443  0.75548981  0.37072251  1
  O  O246  1  0.01099139  0.76299111  0.87148884  1
  O  O247  1  0.50198569  0.25688478  0.37271432  1
  O  O248  1  0.51205719  0.25324488  0.87571808  1
  O  O249  1  0.49005590  0.75973673  0.36839090  1
  O  O250  1  0.51169872  0.75571886  0.88022413  1
  O  O251  1  0.24054922  0.13297031  0.50732325  1
  O  O252  1  0.25542362  0.13845425  0.99499230  1
  O  O253  1  0.23829474  0.62849315  0.49446957  1
  O  O254  1  0.26625323  0.63558801  0.98034869  1
  O  O255  1  0.74371985  0.13067169  0.49332588  1
  O  O256  1  0.74553088  0.13744813  0.99738087  1
  O  O257  1  0.73660386  0.63553898  0.50179933  1
  O  O258  1  0.74818931  0.63459562  0.98624308  1
  O  O259  1  0.26583974  0.36185113  -0.01091552  1
  O  O260  1  0.25644594  0.36727970  0.51279049  1
  O  O261  1  0.26502162  0.87044208  -0.00156665  1
  O  O262  1  0.24989962  0.87575986  0.51274254  1
  O  O263  1  0.73595778  0.36441251  0.01572650  1
  O  O264  1  0.74265223  0.35951782  0.49968105  1
  O  O265  1  0.75884529  0.86878448  -0.00041395  1
  O  O266  1  0.75237490  0.87148331  0.50390084  1
  O  O267  1  0.12914461  0.52338852  0.23662643  1
  O  O268  1  0.12001686  0.48919002  0.73697502  1
  O  O269  1  0.13113090  0.99673700  0.24169750  1
  O  O270  1  0.13236912  1.00062080  0.73585901  1
  O  O271  1  0.61881716  0.48863655  0.25865467  1
  O  O272  1  0.62405143  0.49112434  0.74107173  1
  O  O273  1  0.62988088  0.99770403  0.24365194  1
  O  O274  1  0.62708200  0.98767234  0.74902150  1
  O  O275  1  0.36717074  0.00383767  0.25821270  1
  O  O276  1  0.36807784  0.00244490  0.75927544  1
  O  O277  1  0.38423397  0.50952692  0.26797508  1
  O  O278  1  0.37795549  0.51435142  0.74395800  1
  O  O279  1  0.86728269  0.01295307  0.24232176  1
  O  O280  1  0.86680877  0.00540970  0.75515050  1
  O  O281  1  0.87283790  0.50521996  0.26892072  1
  O  O282  1  0.87153952  0.49726271  0.75772901  1
  O  O283  1  0.11529183  0.36461948  0.38428397  1
  O  O284  1  0.12074036  0.37850243  0.86033559  1
  O  O285  1  0.11334362  0.86769391  0.37647473  1
  O  O286  1  0.11158642  0.87322552  0.87449230  1
  O  O287  1  0.61729701  0.37043512  0.37127719  1
  O  O288  1  0.61842221  0.36734170  0.86911109  1
  O  O289  1  0.60974798  0.88264894  0.36652868  1
  O  O290  1  0.61991859  0.86916402  0.86921067  1
  O  O291  1  0.38573550  0.13129718  0.12617652  1
  O  O292  1  0.38204736  0.13261603  0.62561442  1
  O  O293  1  0.38116545  0.63280392  0.12858127  1
  O  O294  1  0.38212465  0.62838087  0.63479591  1
  O  O295  1  0.87690463  0.13236826  0.13116504  1
  O  O296  1  0.88420490  0.13045891  0.62395335  1
  O  O297  1  0.83716127  0.63096215  0.13903272  1
  O  O298  1  0.87556490  0.63597121  0.62480793  1
  O  O299  1  0.26264841  0.24212000  0.11632422  1
  O  O300  1  0.25870875  0.25466622  0.61867643  1
  O  O301  1  0.26709141  0.75374516  0.11074903  1
  O  O302  1  0.25584547  0.76059336  0.62482645  1
  O  O303  1  0.75284254  0.24982794  0.12003150  1
  O  O304  1  0.76543066  0.24322851  0.61792288  1
  O  O305  1  0.74352977  0.75986868  0.10593439  1
  O  O306  1  0.75364657  0.76278919  0.61676880  1
  O  O307  1  0.25432508  0.25080679  0.39103563  1
  O  O308  1  0.25416374  0.24269861  0.88457133  1
  O  O309  1  0.24128353  0.74628661  0.37928544  1
  O  O310  1  0.24914587  0.75096574  0.87598841  1
  O  O311  1  0.74670320  0.24139564  0.38207530  1
  O  O312  1  0.74066622  0.24731238  0.88576039  1
  O  O313  1  0.74527147  0.75695727  0.37989877  1
  O  O314  1  0.74156502  0.74748508  0.88089755  1
  O  O315  1  -0.00556656  0.13040523  0.01487271  1
  O  O316  1  0.00854642  0.13008930  0.50992377  1
  O  O317  1  0.00999669  0.61380598  -0.04432435  1
  O  O318  1  0.01190935  0.61902892  0.50363778  1
  O  O319  1  0.50527820  0.12080163  0.00879893  1
  O  O320  1  0.50381775  0.11999288  0.51105591  1
  O  O321  1  0.49711775  0.62541392  0.01502762  1
  O  O322  1  0.51126725  0.62345038  0.50798163  1
  O  O323  1  0.49386751  0.38079958  0.49832167  1
  O  O324  1  0.49061079  0.37311540  0.99048940  1
  O  O325  1  0.50435534  0.88411547  0.49208111  1
  O  O326  1  0.49191439  0.87921654  0.99431020  1
  O  O327  1  1.00206253  0.38704254  0.50814607  1
  O  O328  1  1.00272465  0.35866445  0.98550468  1
  O  O329  1  0.98950685  0.87260153  0.48530159  1
  O  O330  1  0.98934800  0.87314189  0.99175877  1
  O  O331  1  0.48909019  0.49536626  0.38679226  1
  O  O332  1  0.50040357  0.48866692  0.87379586  1
  O  O333  1  0.49354495  0.99501420  0.38266080  1
  O  O334  1  0.49418976  0.99489498  0.88270792  1
  O  O335  1  0.99826532  0.49596247  0.39191533  1
  O  O336  1  0.98680756  0.48011630  0.86651650  1
  O  O337  1  1.00493167  0.98747080  0.36904795  1
  O  O338  1  0.99674942  0.98750535  0.87536269  1
  O  O339  1  0.00626462  0.00712036  0.12387786  1
  O  O340  1  0.00747982  0.00661384  0.62699942  1
  O  O341  1  -0.02540109  0.45436097  0.09926499  1
  O  O342  1  0.00690469  0.50306901  0.61736330  1
  O  O343  1  0.50226868  0.00790590  0.12151298  1
  O  O344  1  0.49824083  0.00674778  0.61825691  1
  O  O345  1  0.49260075  0.51685709  0.13057663  1
  O  O346  1  0.50738764  0.51334639  0.62056367  1
  O  O347  1  0.25051234  0.39794875  0.26923394  1
  O  O348  1  0.24444527  0.36774205  0.73938661  1
  O  O349  1  0.24814969  0.88717751  0.24848923  1
  O  O350  1  0.25498870  0.88855868  0.73869466  1
  O  O351  1  0.73727537  0.36962366  0.23913350  1
  O  O352  1  0.73726543  0.36652965  0.75516425  1
  O  O353  1  0.74507030  0.88214568  0.24595827  1
  O  O354  1  0.74240231  0.87701685  0.74084332  1
  O  O355  1  0.25057978  0.11151910  0.24561622  1
  O  O356  1  0.25122356  0.11218884  0.75225624  1
  O  O357  1  0.25529666  0.63012440  0.26889576  1
  O  O358  1  0.26425927  0.62637451  0.75891839  1
  O  O359  1  0.75443815  0.12199828  0.25776168  1
  O  O360  1  0.74718202  0.12567281  0.76210508  1
  O  O361  1  0.73348796  0.63636845  0.26968554  1
  O  O362  1  0.75174955  0.63346528  0.76267437  1
  O  O363  1  0.38140168  0.11054411  0.37343142  1
  O  O364  1  0.38011007  0.11162939  0.87515896  1
  O  O365  1  0.36683964  0.62024973  0.37503994  1
  O  O366  1  0.37041539  0.62973550  0.86005496  1
  O  O367  1  0.86485634  0.12700506  0.36629119  1
  O  O368  1  0.85966038  0.12918049  0.87622475  1
  O  O369  1  0.87777691  0.60748263  0.37870797  1
  O  O370  1  0.86408428  0.61143582  0.87224792  1
  O  O371  1  0.14673688  0.37714632  0.14895467  1
  O  O372  1  0.13449477  0.38020481  0.63086794  1
  O  O373  1  0.12783417  0.87709253  0.13050161  1
  O  O374  1  0.13099623  0.88648638  0.61756686  1
  O  O375  1  0.63111949  0.37009878  0.13652862  1
  O  O376  1  0.61968906  0.38560742  0.63550088  1
  O  O377  1  0.62886382  0.88017642  0.13209677  1
  O  O378  1  0.63060040  0.87524882  0.63253998  1
  O  O379  1  0.11081292  0.23845573  0.25138391  1
  O  O380  1  0.11628152  0.25805702  0.73718369  1
  O  O381  1  0.11257047  0.74689935  0.26580570  1
  O  O382  1  0.12830082  0.75411014  0.75976444  1
  O  O383  1  0.61583191  0.25643759  0.25960727  1
  O  O384  1  0.62231791  0.25597333  0.75865869  1
  O  O385  1  0.62157086  0.75292332  0.26179218  1
  O  O386  1  0.62810644  0.76358152  0.75822516  1
  O  O387  1  0.37788460  0.25140980  0.24189212  1
  O  O388  1  0.37719434  0.24685148  0.73906456  1
  O  O389  1  0.37609201  0.74541705  0.24081789  1
  O  O390  1  0.37432348  0.73954789  0.73530750  1
  O  O391  1  0.87418370  0.23999932  0.24277170  1
  O  O392  1  0.88358632  0.24402130  0.73821367  1
  O  O393  1  0.88372872  0.74293406  0.25414384  1
  O  O394  1  0.87171120  0.75404160  0.73267387  1
  O  O395  1  0.38062467  0.49759566  0.49773836  1
  O  O396  1  0.37804237  0.48328643  1.00341721  1
  O  O397  1  0.38639354  1.00427440  0.49342277  1
  O  O398  1  0.37835399  0.99401315  0.99537100  1
  O  O399  1  0.89017559  0.50308526  0.49747299  1
  O  O400  1  0.86353051  0.47914043  0.98722780  1
  O  O401  1  0.86883258  0.98959562  0.50077541  1
  O  O402  1  0.87923960  0.99069732  0.99599865  1
  O  O403  1  0.12242175  -0.00730563  0.01327631  1
  O  O404  1  0.13025419  0.00973245  0.50849440  1
  O  O405  1  0.13880959  0.49165462  0.01569872  1
  O  O406  1  0.11579477  0.50645443  0.51019839  1
  O  O407  1  0.61891933  0.00573628  0.00712443  1
  O  O408  1  0.61127293  0.00834675  0.50226924  1
  O  O409  1  0.61461545  0.50353632  -0.00066410  1
  O  O410  1  0.61845475  0.50977681  0.50671544  1
  O  O411  1  0.38187699  0.36484968  0.11066998  1
  O  O412  1  0.37145525  0.36960957  0.62395902  1
  O  O413  1  0.37787770  0.86861386  0.11561284  1
  O  O414  1  0.36764970  0.86684914  0.62831325  1
  O  O415  1  0.85490530  0.36833144  0.13264253  1
  O  O416  1  0.87870434  0.35982085  0.62910365  1
  O  O417  1  0.86773466  0.87192221  0.11681156  1
  O  O418  1  0.86708939  0.87203798  0.61588334  1
  O  O419  1  0.11968978  0.12910575  0.38800372  1
  O  O420  1  0.11460649  0.12141339  0.88080878  1
  O  O421  1  0.13062126  0.62978060  0.38432701  1
  O  O422  1  0.14654088  0.63675449  0.86727248  1
  O  O423  1  0.62894112  0.13261646  0.38096683  1
  O  O424  1  0.62940931  0.13318323  0.88193275  1
  O  O425  1  0.61656547  0.63103698  0.38313148  1
  O  O426  1  0.62889725  0.63364432  0.87314528  1
