# generated using pymatgen
data_V85Zn86O256
_symmetry_space_group_name_H-M   'P 1'
_cell_length_a   16.94171152
_cell_length_b   16.92624844
_cell_length_c   16.93129197
_cell_angle_alpha   89.91353555
_cell_angle_beta   90.05368105
_cell_angle_gamma   90.02838098
_symmetry_Int_Tables_number   1
_chemical_formula_structural   V85Zn86O256
_chemical_formula_sum   'V85 Zn86 O256'
_cell_volume   4855.20256718
_cell_formula_units_Z   1
loop_
 _symmetry_equiv_pos_site_id
 _symmetry_equiv_pos_as_xyz
  1  'x, y, z'
loop_
 _atom_site_type_symbol
 _atom_site_label
 _atom_site_symmetry_multiplicity
 _atom_site_fract_x
 _atom_site_fract_y
 _atom_site_fract_z
 _atom_site_occupancy
  V  V0  1  0.87608225  0.12250668  0.25028470  1
  V  V1  1  0.11934402  0.61163898  0.50201624  1
  V  V2  1  0.87626345  0.61237372  0.25551221  1
  V  V3  1  0.75031405  0.37500545  0.13887202  1
  V  V4  1  0.87612604  0.24757571  0.62760363  1
  V  V5  1  0.50077533  0.49989433  0.50838778  1
  V  V6  1  0.87334702  0.50171622  0.87709067  1
  V  V7  1  0.00112634  0.61260041  0.62167859  1
  V  V8  1  0.12201020  0.38266576  0.74427760  1
  V  V9  1  0.62520420  0.63056721  0.49721342  1
  V  V10  1  0.24706641  0.74936296  0.50360142  1
  V  V11  1  -0.00352065  0.38843663  0.37930161  1
  V  V12  1  0.50559909  0.37511043  0.36706508  1
  V  V13  1  0.75145598  0.87350160  0.62489519  1
  V  V14  1  0.25674549  0.24687488  0.50201282  1
  V  V15  1  0.74870650  0.74941940  -0.00071642  1
  V  V16  1  0.87845562  0.75471680  0.61906461  1
  V  V17  1  0.00395953  0.86637038  0.87565880  1
  V  V18  1  0.00397772  0.24617106  0.75439180  1
  V  V19  1  0.24245218  0.62623868  0.86988262  1
  V  V20  1  0.00076937  0.12619075  0.12437160  1
  V  V21  1  0.50149191  0.73185864  0.74866647  1
  V  V22  1  0.37598641  0.49762951  0.37549739  1
  V  V23  1  0.87983943  0.38747181  0.49895497  1
  V  V24  1  0.37523520  0.62672583  0.25213240  1
  V  V25  1  0.62420433  0.62467205  -0.00142896  1
  V  V26  1  0.00549494  0.50236169  0.00099279  1
  V  V27  1  0.37161544  0.88309508  0.49646082  1
  V  V28  1  0.62457902  0.36921723  0.74867216  1
  V  V29  1  0.12500532  -0.00111074  0.62864016  1
  V  V30  1  0.25494289  0.11170234  0.36697618  1
  V  V31  1  0.87631746  0.00299849  0.86894928  1
  V  V32  1  -0.00118711  0.24962071  0.25321324  1
  V  V33  1  0.74859286  0.61145590  0.37042286  1
  V  V34  1  0.29344123  0.93180409  0.18026241  1
  V  V35  1  0.37557916  0.50781326  0.86366232  1
  V  V36  1  0.11986932  0.87342733  0.24496036  1
  V  V37  1  0.87438268  0.62870529  0.74917169  1
  V  V38  1  0.75352200  0.12789996  0.86911224  1
  V  V39  1  0.62425092  0.12364819  0.50025537  1
  V  V40  1  0.24809542  0.75249669  -0.00433036  1
  V  V41  1  0.24797538  0.37295528  0.62109275  1
  V  V42  1  -0.00725486  -0.00586286  0.50180752  1
  V  V43  1  0.12385940  0.12370240  0.50010566  1
  V  V44  1  0.11867374  0.74944169  0.37090841  1
  V  V45  1  0.50188642  0.12593843  0.12247222  1
  V  V46  1  0.75142128  0.37588828  0.62453531  1
  V  V47  1  0.75214374  0.12225401  0.37629061  1
  V  V48  1  0.62818586  0.87055874  0.25966281  1
  V  V49  1  0.62475057  -0.00089388  0.12154905  1
  V  V50  1  0.12485951  0.37827370  0.24967633  1
  V  V51  1  -0.00366573  0.12333310  0.62981500  1
  V  V52  1  0.00296315  0.37285922  0.87596057  1
  V  V53  1  0.00123034  0.62961966  0.12818864  1
  V  V54  1  0.50214374  0.37001189  0.87382418  1
  V  V55  1  0.87645162  0.75047891  0.13456098  1
  V  V56  1  0.12932815  0.14002620  -0.00937044  1
  V  V57  1  0.24779179  0.37368540  0.12182236  1
  V  V58  1  0.50480775  0.89020029  0.86642448  1
  V  V59  1  0.74842754  -0.00276917  0.74848520  1
  V  V60  1  0.26123194  0.01048089  0.76035460  1
  V  V61  1  0.50094951  0.50025286  0.00072087  1
  V  V62  1  0.25461968  0.87671927  0.62938065  1
  V  V63  1  0.62678520  0.25144951  0.36844720  1
  V  V64  1  0.12602984  0.00069943  0.12606277  1
  V  V65  1  0.36992193  0.37502916  -0.00062350  1
  V  V66  1  0.62504960  0.50570725  0.62527716  1
  V  V67  1  0.24729765  0.62337682  0.37512208  1
  V  V68  1  0.12966285  0.86919688  0.75727290  1
  V  V69  1  0.74854485  0.87538927  0.12531673  1
  V  V70  1  0.25038068  0.50561818  0.74229785  1
  V  V71  1  0.87541471  0.87587934  0.00046505  1
  V  V72  1  0.37326092  0.25127072  0.12871610  1
  V  V73  1  0.37819080  0.88744693  -0.01070194  1
  V  V74  1  0.49172154  0.13961403  0.62571467  1
  V  V75  1  0.62013490  -0.00492431  0.62638223  1
  V  V76  1  0.00233661  0.00133517  -0.00247543  1
  V  V77  1  0.62513536  0.12463104  -0.00400095  1
  V  V78  1  0.50235526  0.74865039  0.26149508  1
  V  V79  1  0.62809508  0.49566724  0.13828502  1
  V  V80  1  0.37131482  0.74919556  0.12334228  1
  V  V81  1  0.49458628  0.88255950  0.37584687  1
  V  V82  1  0.74945670  0.75596786  0.49116420  1
  V  V83  1  0.12518966  0.24870558  0.37572655  1
  V  V84  1  -0.00477162  0.87236564  0.37687767  1
  Zn  Zn85  1  0.37954189  0.36727222  0.49799258  1
  Zn  Zn86  1  0.75417463  0.24926971  0.49992833  1
  Zn  Zn87  1  0.62460216  0.75647082  0.86969387  1
  Zn  Zn88  1  0.25142858  0.50033600  0.24813350  1
  Zn  Zn89  1  0.50072709  0.62698530  0.12668697  1
  Zn  Zn90  1  0.41578236  0.18589802  0.77504393  1
  Zn  Zn91  1  0.50090723  0.24838317  0.25007345  1
  Zn  Zn92  1  0.75001764  0.50284636  0.75136830  1
  Zn  Zn93  1  0.26322547  0.14048441  0.87428251  1
  Zn  Zn94  1  0.37324925  0.11032845  0.24791673  1
  Zn  Zn95  1  0.12408223  0.63249100  -0.00191646  1
  Zn  Zn96  1  0.37646273  0.73122143  0.63808110  1
  Zn  Zn97  1  0.75160765  0.25474119  -0.00198616  1
  Zn  Zn98  1  0.87090549  0.37458020  0.00100103  1
  Zn  Zn99  1  0.74939169  0.62744132  0.87349348  1
  Zn  Zn100  1  0.12802533  0.50503591  0.12463426  1
  Zn  Zn101  1  0.75141071  -0.00178151  0.25085881  1
  Zn  Zn102  1  0.49302134  0.00271831  0.49872323  1
  Zn  Zn103  1  0.87379013  -0.00518100  0.37849204  1
  Zn  Zn104  1  0.87221836  0.24998320  0.12282407  1
  Zn  Zn105  1  0.00534101  0.74771106  0.75019744  1
  Zn  Zn106  1  0.62572717  0.24958249  0.87184816  1
  Zn  Zn107  1  0.18845835  0.18879950  0.18630526  1
  Zn  Zn108  1  0.18440803  0.19152261  0.68974138  1
  Zn  Zn109  1  0.18891743  0.69144537  0.18726653  1
  Zn  Zn110  1  0.18528161  0.68644972  0.68551038  1
  Zn  Zn111  1  0.68973683  0.18809915  0.18828917  1
  Zn  Zn112  1  0.68650270  0.18485364  0.68735588  1
  Zn  Zn113  1  0.68708867  0.68528802  0.18785261  1
  Zn  Zn114  1  0.68492217  0.69066842  0.68691222  1
  Zn  Zn115  1  0.31162733  0.31031987  0.31180622  1
  Zn  Zn116  1  0.30829197  0.31700089  0.81236708  1
  Zn  Zn117  1  0.31423206  0.80806739  0.32056498  1
  Zn  Zn118  1  0.32007327  0.81097276  0.81328928  1
  Zn  Zn119  1  0.81390396  0.31143771  0.31422545  1
  Zn  Zn120  1  0.81624990  0.31275276  0.80953708  1
  Zn  Zn121  1  0.81347558  0.80897110  0.31290377  1
  Zn  Zn122  1  0.81238288  0.81423434  0.80988439  1
  Zn  Zn123  1  0.18752877  0.43535276  0.43531741  1
  Zn  Zn124  1  0.18318251  0.31715348  0.93847386  1
  Zn  Zn125  1  0.18040535  0.93595076  0.43990872  1
  Zn  Zn126  1  0.19123915  0.93937244  0.93905333  1
  Zn  Zn127  1  0.68869835  0.43553754  0.43907709  1
  Zn  Zn128  1  0.68956894  0.43675426  0.94161908  1
  Zn  Zn129  1  0.68661745  0.93807532  0.43992405  1
  Zn  Zn130  1  0.68505616  0.93959331  0.93701825  1
  Zn  Zn131  1  0.31355318  0.07140635  0.05255468  1
  Zn  Zn132  1  0.31181280  0.06406758  0.56590002  1
  Zn  Zn133  1  0.31125198  0.56320365  0.06009583  1
  Zn  Zn134  1  0.31254925  0.55968340  0.56508461  1
  Zn  Zn135  1  0.81126002  0.06355110  0.05960643  1
  Zn  Zn136  1  0.81366688  0.06229521  0.56386134  1
  Zn  Zn137  1  0.81150080  0.56026053  0.06474081  1
  Zn  Zn138  1  0.81127619  0.56567868  0.56195314  1
  Zn  Zn139  1  0.43954852  0.43874411  0.18838824  1
  Zn  Zn140  1  0.42080605  0.38937761  0.70090896  1
  Zn  Zn141  1  0.45529868  0.93320858  0.17897095  1
  Zn  Zn142  1  0.43794183  0.93759072  0.68725910  1
  Zn  Zn143  1  0.93695435  0.43877503  0.18814251  1
  Zn  Zn144  1  0.93395810  0.43820300  0.68966541  1
  Zn  Zn145  1  0.93994448  0.93858432  0.18924563  1
  Zn  Zn146  1  0.93595511  0.93408039  0.69041567  1
  Zn  Zn147  1  0.06520832  0.05862575  0.31225409  1
  Zn  Zn148  1  0.06612245  0.05846409  0.81175130  1
  Zn  Zn149  1  0.05984359  0.56424861  0.31043589  1
  Zn  Zn150  1  0.06236658  0.56216648  0.81191879  1
  Zn  Zn151  1  0.56355368  0.06096924  0.30821175  1
  Zn  Zn152  1  0.56383634  0.06304855  0.80730153  1
  Zn  Zn153  1  0.56192494  0.56611462  0.31871853  1
  Zn  Zn154  1  0.56483229  0.55929270  0.81317983  1
  Zn  Zn155  1  0.43745401  0.18338214  0.43387968  1
  Zn  Zn156  1  0.43699234  0.18930006  0.94619311  1
  Zn  Zn157  1  0.42190348  0.67351054  0.46832727  1
  Zn  Zn158  1  0.43771993  0.69196251  0.93320462  1
  Zn  Zn159  1  0.93738660  0.18958178  0.44157699  1
  Zn  Zn160  1  0.93535008  0.18833590  0.93902388  1
  Zn  Zn161  1  0.93616785  0.68516629  0.43855710  1
  Zn  Zn162  1  0.93495969  0.68731147  0.94089312  1
  Zn  Zn163  1  0.05303339  0.31690709  0.06792633  1
  Zn  Zn164  1  0.06421950  0.31465064  0.56260812  1
  Zn  Zn165  1  0.06396956  0.81264407  0.06316511  1
  Zn  Zn166  1  0.06400147  0.80985963  0.56412520  1
  Zn  Zn167  1  0.56571865  0.31169467  0.06287722  1
  Zn  Zn168  1  0.56745052  0.31443185  0.55455377  1
  Zn  Zn169  1  0.55765706  0.81229926  0.06169097  1
  Zn  Zn170  1  0.56081379  0.81082344  0.56609850  1
  O  O171  1  0.12164597  0.12041289  0.11675360  1
  O  O172  1  0.11416375  0.11984651  0.62109642  1
  O  O173  1  0.11491540  0.62552969  0.12647532  1
  O  O174  1  0.11345710  0.63128147  0.61392868  1
  O  O175  1  0.62197238  0.11931530  0.12085239  1
  O  O176  1  0.62109189  0.11724893  0.61646675  1
  O  O177  1  0.62545790  0.61393517  0.11612150  1
  O  O178  1  0.63318168  0.61289218  0.61413902  1
  O  O179  1  0.38113940  0.38167823  0.37549030  1
  O  O180  1  0.38243131  0.38723231  0.88519102  1
  O  O181  1  0.38259333  0.87796462  0.38057820  1
  O  O182  1  0.38705889  0.87755325  0.88349012  1
  O  O183  1  0.88500743  0.36582204  0.38613266  1
  O  O184  1  0.88415847  0.38545139  0.87299146  1
  O  O185  1  0.89074668  0.87453035  0.36808769  1
  O  O186  1  0.88076058  0.88425438  0.87933431  1
  O  O187  1  0.23953349  0.01417096  0.37779163  1
  O  O188  1  0.24789804  0.00656503  0.86271430  1
  O  O189  1  0.25920618  0.50386420  0.37297083  1
  O  O190  1  0.26080348  0.51074954  0.85998426  1
  O  O191  1  0.75276223  0.00972392  0.37459560  1
  O  O192  1  0.75617734  0.00232473  0.86688566  1
  O  O193  1  0.75089934  0.51265325  0.37767608  1
  O  O194  1  0.76250452  0.50257859  0.87552183  1
  O  O195  1  0.24906757  0.48862974  0.12723705  1
  O  O196  1  0.24895206  0.49751621  0.63482932  1
  O  O197  1  0.24253775  1.00100640  0.11823935  1
  O  O198  1  0.24370215  0.99432649  0.63269853  1
  O  O199  1  0.73694968  0.49161621  0.12421202  1
  O  O200  1  0.74321926  0.49232603  0.62476396  1
  O  O201  1  0.74226329  0.99400283  0.12655909  1
  O  O202  1  0.74731604  0.99431576  0.63011344  1
  O  O203  1  0.00466775  0.36937571  0.25598019  1
  O  O204  1  0.00423149  0.37213325  0.75518556  1
  O  O205  1  0.01273193  0.87972303  0.25839887  1
  O  O206  1  0.01002504  0.87473068  0.75887030  1
  O  O207  1  0.49915239  0.37324141  0.26310810  1
  O  O208  1  0.51510513  0.38949184  0.76260713  1
  O  O209  1  0.50831400  0.86947671  0.25710415  1
  O  O210  1  0.49829102  0.87718344  0.76442553  1
  O  O211  1  0.49422109  0.12224895  0.23755936  1
  O  O212  1  0.50683637  0.12924706  0.73205585  1
  O  O213  1  0.49465837  0.63334796  0.25079867  1
  O  O214  1  0.50032821  0.63169070  0.75185533  1
  O  O215  1  0.99517704  0.12790647  0.24632213  1
  O  O216  1  1.00755890  0.13274446  0.74240627  1
  O  O217  1  0.98559072  0.62477472  0.24455580  1
  O  O218  1  0.99135167  0.62816294  0.74460532  1
  O  O219  1  0.38207627  0.26739774  0.01421766  1
  O  O220  1  0.36016328  0.24872062  0.49151942  1
  O  O221  1  0.37016539  0.75720508  0.00780781  1
  O  O222  1  0.35358580  0.76699448  0.48706929  1
  O  O223  1  0.87159427  0.25392784  0.00511122  1
  O  O224  1  0.87552993  0.25639075  0.51400498  1
  O  O225  1  0.86648733  0.75534972  0.00925509  1
  O  O226  1  0.86535019  0.74387216  0.51178717  1
  O  O227  1  0.12959752  0.24294867  0.49149397  1
  O  O228  1  0.11770873  0.24358387  1.00356830  1
  O  O229  1  0.13420314  0.74747154  0.49271190  1
  O  O230  1  0.14326494  0.75318579  1.00500391  1
  O  O231  1  0.62995822  0.23761285  0.49032004  1
  O  O232  1  0.62982630  0.23772030  0.99817702  1
  O  O233  1  0.63473814  0.74051468  0.50809730  1
  O  O234  1  0.63185568  0.74128559  1.00371392  1
  O  O235  1  0.49506438  0.24458531  0.12894098  1
  O  O236  1  0.50565590  0.23841658  0.61505571  1
  O  O237  1  0.48653925  0.75172117  0.13494897  1
  O  O238  1  0.49808635  0.75838927  0.64450841  1
  O  O239  1  0.99638946  0.24404343  0.13616721  1
  O  O240  1  0.99591556  0.24147253  0.62961272  1
  O  O241  1  0.99048240  0.73890005  0.11784210  1
  O  O242  1  0.99124041  0.74546648  0.62669662  1
  O  O243  1  0.01181388  0.25114308  0.37149964  1
  O  O244  1  -0.00896697  0.25877123  0.86478234  1
  O  O245  1  0.01095429  0.75605634  0.38178310  1
  O  O246  1  -0.00608808  0.76304602  0.87486480  1
  O  O247  1  0.50776153  0.25585525  0.37505437  1
  O  O248  1  0.50386834  0.26588133  0.88030552  1
  O  O249  1  0.49447636  0.76118279  0.36304672  1
  O  O250  1  0.50201730  0.75641973  0.86340355  1
  O  O251  1  0.24363467  0.12931741  0.49280832  1
  O  O252  1  0.23342410  0.12817997  0.99513011  1
  O  O253  1  0.23894382  0.63276703  0.49382116  1
  O  O254  1  0.24824165  0.63210710  0.99116143  1
  O  O255  1  0.74447159  0.12530336  0.49327088  1
  O  O256  1  0.74502724  0.12597215  0.98634334  1
  O  O257  1  0.74518176  0.63045627  0.48836468  1
  O  O258  1  0.74402589  0.63342497  1.00087314  1
  O  O259  1  0.25787661  0.37708468  0.00799291  1
  O  O260  1  0.24472040  0.36324878  0.50337900  1
  O  O261  1  0.26620866  0.86654840  -0.01084689  1
  O  O262  1  0.24985934  0.87157897  0.50898827  1
  O  O263  1  0.75170359  0.37433529  0.01300713  1
  O  O264  1  0.75638575  0.37108943  0.51071567  1
  O  O265  1  0.75503668  0.86988547  0.00594306  1
  O  O266  1  0.74676416  0.86789030  0.50993768  1
  O  O267  1  0.12478369  0.48828614  0.24873759  1
  O  O268  1  0.13220543  0.49000595  0.75427280  1
  O  O269  1  0.12395262  0.99474994  0.23460676  1
  O  O270  1  0.13233335  0.98879233  0.74487581  1
  O  O271  1  0.61964501  0.50671953  0.23589517  1
  O  O272  1  0.63047951  0.49488047  0.74034662  1
  O  O273  1  0.62886756  0.98919580  0.24129204  1
  O  O274  1  0.63891269  1.00283317  0.74015551  1
  O  O275  1  0.36472725  -0.00997061  0.23009004  1
  O  O276  1  0.35882400  0.00044061  0.74461209  1
  O  O277  1  0.37738183  0.50734240  0.26056622  1
  O  O278  1  0.36665596  0.48853554  0.75630156  1
  O  O279  1  0.87529671  0.01074933  0.25405594  1
  O  O280  1  0.86306950  -0.00436166  0.75745725  1
  O  O281  1  0.87263362  0.51402860  0.24899978  1
  O  O282  1  0.87336493  0.51012700  0.75859551  1
  O  O283  1  0.11868406  0.36730054  0.36834932  1
  O  O284  1  0.10818688  0.37648145  0.86808839  1
  O  O285  1  0.11783823  0.86866257  0.36728104  1
  O  O286  1  0.11606082  0.88191065  0.86952615  1
  O  O287  1  0.61981545  0.36374110  0.38137206  1
  O  O288  1  0.62068919  0.37724823  0.86698946  1
  O  O289  1  0.62069727  0.87653662  0.36424530  1
  O  O290  1  0.60861277  0.87242091  0.88699506  1
  O  O291  1  0.38143714  0.13420103  0.12244958  1
  O  O292  1  0.39167552  0.12595906  0.61989233  1
  O  O293  1  0.37770753  0.63121466  0.13242686  1
  O  O294  1  0.38744826  0.63929661  0.57544614  1
  O  O295  1  0.88076683  0.12366700  0.13331466  1
  O  O296  1  0.88761885  0.13115325  0.62238720  1
  O  O297  1  0.87710523  0.63039264  0.13598945  1
  O  O298  1  0.88010100  0.63191152  0.63107538  1
  O  O299  1  0.25753642  0.26295807  0.12887953  1
  O  O300  1  0.24108034  0.25755306  0.61300767  1
  O  O301  1  0.26357348  0.74548187  0.11642232  1
  O  O302  1  0.25336894  0.75721850  0.61894039  1
  O  O303  1  0.74886702  0.26371625  0.12566256  1
  O  O304  1  0.75901517  0.25528282  0.62600423  1
  O  O305  1  0.75590809  0.75457317  0.11653722  1
  O  O306  1  0.75585509  0.75728956  0.61850636  1
  O  O307  1  0.23885488  0.24356359  0.37987693  1
  O  O308  1  0.24027944  0.25270448  0.86902781  1
  O  O309  1  0.23678987  0.74453735  0.38112841  1
  O  O310  1  0.26167619  0.73800058  0.88265481  1
  O  O311  1  0.74512098  0.23829947  0.37681934  1
  O  O312  1  0.75077793  0.24140564  0.87235655  1
  O  O313  1  0.75496931  0.74521282  0.38827255  1
  O  O314  1  0.74829590  0.75226976  0.88738423  1
  O  O315  1  0.00892291  0.12116660  0.00524596  1
  O  O316  1  0.00568925  0.11784417  0.50742821  1
  O  O317  1  0.00119482  0.62154683  0.00858436  1
  O  O318  1  0.00722592  0.62811875  0.50825561  1
  O  O319  1  0.50986538  0.12942618  0.01349086  1
  O  O320  1  0.50765988  0.12226098  0.50512679  1
  O  O321  1  0.50690686  0.61917969  0.00270774  1
  O  O322  1  0.52008456  0.61368305  0.48170409  1
  O  O323  1  0.49974810  0.38268976  0.48866996  1
  O  O324  1  0.49675701  0.38374394  0.99559509  1
  O  O325  1  0.48947731  0.87317634  0.49249844  1
  O  O326  1  0.48423516  0.86910481  0.99285565  1
  O  O327  1  0.99293284  0.37057016  0.49143548  1
  O  O328  1  0.99489342  0.38378054  0.99346427  1
  O  O329  1  1.00880242  0.88298557  0.49138452  1
  O  O330  1  0.99589671  0.88055811  0.99390365  1
  O  O331  1  0.49597845  0.49257825  0.38025754  1
  O  O332  1  0.49544857  0.49446241  0.88375283  1
  O  O333  1  0.50494759  0.98733479  0.37686279  1
  O  O334  1  0.50525724  0.98995118  0.87318751  1
  O  O335  1  1.00085693  0.48750353  0.37205978  1
  O  O336  1  0.99117798  0.49631151  0.88114072  1
  O  O337  1  1.00234423  0.99140290  0.38489771  1
  O  O338  1  0.99244882  0.99318632  0.87760164  1
  O  O339  1  0.00669978  0.00656701  0.11826735  1
  O  O340  1  0.00292765  0.00406316  0.62228827  1
  O  O341  1  -0.00228443  0.51204762  0.11919453  1
  O  O342  1  -0.00468145  0.51325819  0.62859871  1
  O  O343  1  0.51656289  0.00809981  0.12178658  1
  O  O344  1  0.50800731  0.00571787  0.62168242  1
  O  O345  1  0.51039391  0.50002597  0.11796178  1
  O  O346  1  0.50912169  0.49252216  0.61032817  1
  O  O347  1  0.24026632  0.37650276  0.24491018  1
  O  O348  1  0.23851382  0.38418650  0.73979405  1
  O  O349  1  0.24178504  0.87338778  0.25095821  1
  O  O350  1  0.24765674  0.88158318  0.74719623  1
  O  O351  1  0.75147894  0.37316951  0.23922310  1
  O  O352  1  0.74692788  0.37864957  0.73827089  1
  O  O353  1  0.74377652  0.87354406  0.24478890  1
  O  O354  1  0.75078645  0.88056406  0.73581704  1
  O  O355  1  0.25035544  0.12623241  0.26255791  1
  O  O356  1  0.24213180  0.11393395  0.75066513  1
  O  O357  1  0.25602648  0.62360883  0.25769742  1
  O  O358  1  0.24760986  0.61859354  0.75369219  1
  O  O359  1  0.75914800  0.12257924  0.25744924  1
  O  O360  1  0.74747697  0.11671189  0.76129007  1
  O  O361  1  0.75894300  0.63092843  0.26271903  1
  O  O362  1  0.76221980  0.62635471  0.75079852  1
  O  O363  1  0.36027295  0.12290764  0.37015362  1
  O  O364  1  0.37819514  0.13738998  0.86886380  1
  O  O365  1  0.36826696  0.61806653  0.37358112  1
  O  O366  1  0.37032122  0.61104154  0.88269004  1
  O  O367  1  0.86865537  0.12418092  0.37031691  1
  O  O368  1  0.86924220  0.11072357  0.87884851  1
  O  O369  1  0.86721305  0.62993965  0.36268069  1
  O  O370  1  0.87476584  0.62061099  0.86713969  1
  O  O371  1  0.13035026  0.37642912  0.13257965  1
  O  O372  1  0.13203508  0.37742013  0.63144508  1
  O  O373  1  0.12267094  0.88401617  0.13268201  1
  O  O374  1  0.13650308  0.87858791  0.63219293  1
  O  O375  1  0.63309453  0.38704258  0.12473429  1
  O  O376  1  0.63247467  0.38249171  0.62791130  1
  O  O377  1  0.62786234  0.88194565  0.12904396  1
  O  O378  1  0.63209854  0.88918290  0.61799610  1
  O  O379  1  0.12112816  0.25947320  0.25621686  1
  O  O380  1  0.11023846  0.26418389  0.74360071  1
  O  O381  1  0.12724934  0.75983727  0.25820943  1
  O  O382  1  0.12570839  0.76479510  0.74758700  1
  O  O383  1  0.62192053  0.24119914  0.26465666  1
  O  O384  1  0.62916003  0.26519969  0.74895835  1
  O  O385  1  0.61500633  0.75896359  0.24128571  1
  O  O386  1  0.61188885  0.74552816  0.75370809  1
  O  O387  1  0.37730987  0.24873528  0.23822865  1
  O  O388  1  0.38513693  0.28496435  0.73943530  1
  O  O389  1  0.37940028  0.74515851  0.24502496  1
  O  O390  1  0.39139768  0.74962875  0.75035575  1
  O  O391  1  0.88054900  0.23716767  0.25010836  1
  O  O392  1  0.88845567  0.25649522  0.73579550  1
  O  O393  1  0.87182970  0.74340337  0.23731437  1
  O  O394  1  0.87704167  0.74433574  0.74039556  1
  O  O395  1  0.38400792  0.49774275  0.48665115  1
  O  O396  1  0.38519730  0.49217929  0.99867272  1
  O  O397  1  0.37195448  0.98774607  0.50282902  1
  O  O398  1  0.37294800  0.98566214  1.00512271  1
  O  O399  1  0.87223375  0.48691861  0.50473535  1
  O  O400  1  0.88384839  0.50275719  0.99268354  1
  O  O401  1  0.88886143  1.00201176  0.49940720  1
  O  O402  1  0.88160945  0.99397345  0.99335072  1
  O  O403  1  0.12029763  0.00500987  0.00889485  1
  O  O404  1  0.11559056  0.00494031  0.50947511  1
  O  O405  1  0.10800098  0.50492242  0.00357360  1
  O  O406  1  0.12726128  0.51289065  0.49355629  1
  O  O407  1  0.63300341  0.01442601  0.00817501  1
  O  O408  1  0.62361662  0.01088057  0.50622334  1
  O  O409  1  0.61559167  0.50549809  0.00550448  1
  O  O410  1  0.62184238  0.50560279  0.50569127  1
  O  O411  1  0.36822618  0.37257849  0.12133404  1
  O  O412  1  0.35337069  0.38448583  0.61030021  1
  O  O413  1  0.36788041  0.87124222  0.12257306  1
  O  O414  1  0.36334360  0.87420140  0.61832779  1
  O  O415  1  0.86152826  0.37714064  0.12655792  1
  O  O416  1  0.86919766  0.36928379  0.62042942  1
  O  O417  1  0.87169711  0.86873821  0.12220131  1
  O  O418  1  0.86758179  0.86561905  0.62661264  1
  O  O419  1  0.13124472  0.13159555  0.37773579  1
  O  O420  1  0.11940695  0.12339578  0.89109855  1
  O  O421  1  0.12603188  0.63211155  0.37873393  1
  O  O422  1  0.13808163  0.62302521  0.87636977  1
  O  O423  1  0.63211604  0.12635472  0.38083545  1
  O  O424  1  0.63189538  0.12629736  0.88035913  1
  O  O425  1  0.64155007  0.62578963  0.37862547  1
  O  O426  1  0.62910460  0.62408556  0.88855036  1
