# generated using pymatgen
data_V85Zn86O256
_symmetry_space_group_name_H-M   'P 1'
_cell_length_a   16.96318655
_cell_length_b   16.93799701
_cell_length_c   16.96006588
_cell_angle_alpha   89.96838765
_cell_angle_beta   89.99508541
_cell_angle_gamma   89.97402348
_symmetry_Int_Tables_number   1
_chemical_formula_structural   V85Zn86O256
_chemical_formula_sum   'V85 Zn86 O256'
_cell_volume   4873.00562582
_cell_formula_units_Z   1
loop_
 _symmetry_equiv_pos_site_id
 _symmetry_equiv_pos_as_xyz
  1  'x, y, z'
loop_
 _atom_site_type_symbol
 _atom_site_label
 _atom_site_symmetry_multiplicity
 _atom_site_fract_x
 _atom_site_fract_y
 _atom_site_fract_z
 _atom_site_occupancy
  V  V0  1  0.49708009  0.37418533  0.87188133  1
  V  V1  1  0.37650068  0.11500195  0.25345387  1
  V  V2  1  0.02340481  -0.01480270  0.47549797  1
  V  V3  1  0.50590169  0.88783529  0.37683183  1
  V  V4  1  0.25550173  0.11328773  0.38007558  1
  V  V5  1  0.74590297  0.12707566  0.37940757  1
  V  V6  1  0.87639981  0.37543173  0.49919531  1
  V  V7  1  0.34543024  0.86815141  0.47318225  1
  V  V8  1  0.50327009  0.75213207  0.25308223  1
  V  V9  1  0.01710987  0.76241014  0.25958914  1
  V  V10  1  0.48338027  0.38048869  0.37898812  1
  V  V11  1  0.50086766  -0.00110789  0.51514712  1
  V  V12  1  0.12690258  0.25380422  0.88330947  1
  V  V13  1  0.75362142  0.50111434  0.24912765  1
  V  V14  1  0.49891438  0.24774745  0.25097802  1
  V  V15  1  0.37353031  0.87739374  -0.00341554  1
  V  V16  1  0.12593114  0.36376979  0.73897001  1
  V  V17  1  0.00095257  0.11831116  0.62648864  1
  V  V18  1  0.74895943  -0.00036318  0.24845469  1
  V  V19  1  0.25685570  0.50787998  0.25603809  1
  V  V20  1  0.62554674  0.38435039  0.74043835  1
  V  V21  1  0.62566725  0.62454631  -0.00158496  1
  V  V22  1  0.00198993  0.24764373  0.25154350  1
  V  V23  1  0.25493929  0.11355402  0.87639815  1
  V  V24  1  0.49745655  -0.00065613  -0.00969355  1
  V  V25  1  0.74914253  0.62823592  0.37623097  1
  V  V26  1  0.12931083  0.12373790  0.00473999  1
  V  V27  1  0.24043401  0.62350106  0.87895455  1
  V  V28  1  0.25518418  0.26229571  0.50260265  1
  V  V29  1  0.49456916  0.61035814  0.62538699  1
  V  V30  1  0.13556595  0.64236926  0.48675242  1
  V  V31  1  0.37058244  0.62549292  0.75006599  1
  V  V32  1  0.13490369  0.00300946  0.63862265  1
  V  V33  1  -0.00429263  0.49721787  -0.00662646  1
  V  V34  1  0.37148014  0.50045541  0.87659953  1
  V  V35  1  0.62354136  0.24785195  0.87172015  1
  V  V36  1  0.14048390  0.49866359  0.62134755  1
  V  V37  1  0.49884913  0.62459289  0.12592265  1
  V  V38  1  0.87633692  0.12649286  0.25205920  1
  V  V39  1  0.12748026  0.24504086  0.37604837  1
  V  V40  1  0.74952344  0.25164932  0.50375277  1
  V  V41  1  0.50015432  0.12280609  0.12392787  1
  V  V42  1  0.62427739  0.49917681  0.12606198  1
  V  V43  1  0.62571122  0.37453729  0.25159321  1
  V  V44  1  0.12755383  0.50186211  0.11888003  1
  V  V45  1  0.49877872  0.24146015  0.74392952  1
  V  V46  1  0.74597362  0.86721149  0.62551876  1
  V  V47  1  0.12772701  0.37620680  0.24930090  1
  V  V48  1  0.87856559  0.25134268  0.12385816  1
  V  V49  1  0.62351795  0.87039298  0.74676055  1
  V  V50  1  0.75064355  0.12494454  0.87333399  1
  V  V51  1  0.74456465  0.00007682  0.74282864  1
  V  V52  1  0.13074816  0.12404679  0.50571475  1
  V  V53  1  0.86961145  -0.00340198  0.37811933  1
  V  V54  1  0.49997596  0.87128971  0.87592568  1
  V  V55  1  0.76008080  0.75127037  -0.00453954  1
  V  V56  1  0.88095280  0.25065531  0.62802309  1
  V  V57  1  0.62581426  -0.00174741  0.12230573  1
  V  V58  1  0.00655758  0.50034494  0.49622528  1
  V  V59  1  0.00144752  -0.00004805  0.00694747  1
  V  V60  1  0.00507653  0.62537441  0.62297446  1
  V  V61  1  0.23941668  0.88090554  0.12607799  1
  V  V62  1  0.87631410  0.87709167  0.50367224  1
  V  V63  1  0.24189172  0.74478292  0.00219599  1
  V  V64  1  0.25132917  0.87390770  0.63569023  1
  V  V65  1  -0.00232211  0.74823690  0.75323480  1
  V  V66  1  0.36848498  0.11391352  0.74221944  1
  V  V67  1  0.62460056  0.12553117  -0.00172165  1
  V  V68  1  0.75114215  0.25146274  0.00056864  1
  V  V69  1  0.87274880  -0.00495945  0.88019316  1
  V  V70  1  0.62174093  0.25355577  0.38097879  1
  V  V71  1  0.12503692  0.87725187  0.75840711  1
  V  V72  1  0.62343495  0.61996090  0.50696300  1
  V  V73  1  0.36937531  0.24950971  0.11852254  1
  V  V74  1  0.87554781  0.60826009  0.75132247  1
  V  V75  1  0.37305941  0.75109848  0.62614289  1
  V  V76  1  0.88168035  0.12731624  0.75283893  1
  V  V77  1  0.37171680  0.26362699  0.62463045  1
  V  V78  1  0.87977255  0.63130581  0.25052572  1
  V  V79  1  0.37516781  0.74792254  0.12417432  1
  V  V80  1  0.00479404  0.62545295  0.12207327  1
  V  V81  1  0.75709832  0.87459796  0.11808530  1
  V  V82  1  0.75519576  0.60821060  0.87166339  1
  V  V83  1  0.23820367  -0.00049253  0.24483616  1
  V  V84  1  -0.00575720  0.87200661  0.88437189  1
  Zn  Zn85  1  0.37690210  0.62382598  0.26670268  1
  Zn  Zn86  1  0.87244667  0.37903648  -0.00982573  1
  Zn  Zn87  1  0.62868961  0.87354998  0.24839895  1
  Zn  Zn88  1  0.75092450  0.37495565  0.12500989  1
  Zn  Zn89  1  0.49130401  0.50230651  0.49051216  1
  Zn  Zn90  1  0.87824802  0.74990084  0.62485426  1
  Zn  Zn91  1  0.00859022  0.11989489  0.12945820  1
  Zn  Zn92  1  0.25003277  0.37367574  0.12016285  1
  Zn  Zn93  1  0.75127685  0.39069478  0.62798403  1
  Zn  Zn94  1  -0.00634598  0.36710603  0.86476067  1
  Zn  Zn95  1  0.75106242  0.74969818  0.49988584  1
  Zn  Zn96  1  0.62589892  0.75147699  0.37918081  1
  Zn  Zn97  1  0.49766691  0.49619974  0.00221524  1
  Zn  Zn98  1  0.36765941  0.36749287  -0.00768662  1
  Zn  Zn99  1  0.88121789  0.75456406  0.12325920  1
  Zn  Zn100  1  0.12022610  0.74459019  0.88189299  1
  Zn  Zn101  1  0.00064459  0.37267260  0.37473595  1
  Zn  Zn102  1  0.50205443  0.74667819  0.74933034  1
  Zn  Zn103  1  0.24809737  0.49491322  0.75221559  1
  Zn  Zn104  1  0.61830828  0.12292630  0.51841613  1
  Zn  Zn105  1  0.87919403  0.50087593  0.37392403  1
  Zn  Zn106  1  0.62874546  0.74737413  0.87282524  1
  Zn  Zn107  1  0.18952962  0.18424253  0.18952114  1
  Zn  Zn108  1  0.19359454  0.18950752  0.69105132  1
  Zn  Zn109  1  0.18623233  0.68738588  0.18835652  1
  Zn  Zn110  1  0.18732330  0.68863460  0.68702933  1
  Zn  Zn111  1  0.68763060  0.18744913  0.18814814  1
  Zn  Zn112  1  0.69463791  0.19384229  0.68770416  1
  Zn  Zn113  1  0.68899619  0.68841510  0.18494437  1
  Zn  Zn114  1  0.68612786  0.56674895  0.68678213  1
  Zn  Zn115  1  0.30796013  0.30509260  0.30635647  1
  Zn  Zn116  1  0.30712724  0.30873103  0.81034971  1
  Zn  Zn117  1  0.31747938  0.81385645  0.30669690  1
  Zn  Zn118  1  0.31104358  0.81056647  0.81573590  1
  Zn  Zn119  1  0.81281021  0.31347296  0.31470409  1
  Zn  Zn120  1  0.81189565  0.31659781  0.81037839  1
  Zn  Zn121  1  0.81553960  0.81338242  0.31124641  1
  Zn  Zn122  1  0.81246810  0.80762908  0.81153112  1
  Zn  Zn123  1  0.18620975  0.43710043  0.43325786  1
  Zn  Zn124  1  0.18775636  0.43191433  0.94068341  1
  Zn  Zn125  1  0.19014050  0.91748580  0.42353870  1
  Zn  Zn126  1  0.18443958  0.93782634  0.93992673  1
  Zn  Zn127  1  0.68732884  0.44096361  0.44016259  1
  Zn  Zn128  1  0.68400918  0.43361066  0.93818068  1
  Zn  Zn129  1  0.68257408  0.93858374  0.44286088  1
  Zn  Zn130  1  0.68580506  0.93635337  0.93431498  1
  Zn  Zn131  1  0.31332271  0.06341360  0.05948815  1
  Zn  Zn132  1  0.31757185  0.05188284  0.56302037  1
  Zn  Zn133  1  0.31119535  0.55980221  0.06245859  1
  Zn  Zn134  1  0.31217179  0.57366806  0.43598878  1
  Zn  Zn135  1  0.81588985  0.06559872  0.06274191  1
  Zn  Zn136  1  0.81094349  0.06149601  0.56345649  1
  Zn  Zn137  1  0.81601813  0.56502880  0.06392343  1
  Zn  Zn138  1  0.81937963  0.56332103  0.55990180  1
  Zn  Zn139  1  0.43802743  0.43523058  0.19113473  1
  Zn  Zn140  1  0.34843306  0.46534180  0.59009826  1
  Zn  Zn141  1  0.43727995  0.93501643  0.18467345  1
  Zn  Zn142  1  0.43439612  0.93451022  0.69397333  1
  Zn  Zn143  1  0.93954532  0.43624376  0.18550658  1
  Zn  Zn144  1  0.94810749  0.43518991  0.68199056  1
  Zn  Zn145  1  0.93555346  0.93616257  0.18974103  1
  Zn  Zn146  1  0.93767288  0.93869644  0.69100798  1
  Zn  Zn147  1  0.06680107  0.05130452  0.31766293  1
  Zn  Zn148  1  0.06142912  0.06452760  0.82053969  1
  Zn  Zn149  1  0.06634144  0.56576133  0.31123338  1
  Zn  Zn150  1  0.06506364  0.55721537  0.80811440  1
  Zn  Zn151  1  0.56661274  0.06408130  0.31287751  1
  Zn  Zn152  1  0.56350204  0.06242120  0.69507036  1
  Zn  Zn153  1  0.56383014  0.56395772  0.31340083  1
  Zn  Zn154  1  0.55640612  0.56302263  0.81611692  1
  Zn  Zn155  1  0.43485301  0.18524221  0.44084574  1
  Zn  Zn156  1  0.43682900  0.18308977  0.93302313  1
  Zn  Zn157  1  0.44073973  0.69740982  0.44074289  1
  Zn  Zn158  1  0.43488906  0.68762056  0.93878539  1
  Zn  Zn159  1  0.94042417  0.18168701  0.44063228  1
  Zn  Zn160  1  0.94273433  0.18936480  0.93681992  1
  Zn  Zn161  1  0.94157950  0.69009994  0.43581083  1
  Zn  Zn162  1  0.93628572  0.67947328  0.93844399  1
  Zn  Zn163  1  0.06326478  0.31344720  0.06244892  1
  Zn  Zn164  1  0.06256407  0.30973078  0.56276943  1
  Zn  Zn165  1  0.06038940  0.81180358  0.06583917  1
  Zn  Zn166  1  0.06508034  0.81439025  0.56723723  1
  Zn  Zn167  1  0.55877827  0.31291684  0.06185549  1
  Zn  Zn168  1  0.55518536  0.31295744  0.56263911  1
  Zn  Zn169  1  0.56684328  0.81034669  0.06192164  1
  Zn  Zn170  1  0.56329730  0.80631866  0.56402857  1
  O  O171  1  0.12751536  0.13216549  0.10931319  1
  O  O172  1  0.11906177  0.12103593  0.62974937  1
  O  O173  1  0.11569217  0.61499057  0.13030878  1
  O  O174  1  0.11803184  0.61811584  0.62052251  1
  O  O175  1  0.62003775  0.11957880  0.11820770  1
  O  O176  1  0.62568428  0.12856921  0.63092526  1
  O  O177  1  0.62128136  0.61851914  0.11784434  1
  O  O178  1  0.60936579  0.62245128  0.61977357  1
  O  O179  1  0.38646604  0.36497127  0.36727690  1
  O  O180  1  0.38071592  0.38084512  0.86990351  1
  O  O181  1  0.39978664  0.87544223  0.37333406  1
  O  O182  1  0.38136348  0.86934126  0.88848018  1
  O  O183  1  0.87752144  0.37651339  0.38761003  1
  O  O184  1  0.88224942  0.36597989  0.87758327  1
  O  O185  1  0.86778393  0.88797336  0.38380740  1
  O  O186  1  0.88207145  0.88293295  0.87044399  1
  O  O187  1  0.24976175  0.00836780  0.36341869  1
  O  O188  1  0.24447422  0.01428651  0.87519354  1
  O  O189  1  0.24704975  0.50083601  0.35946398  1
  O  O190  1  0.25423716  0.50722003  0.87735793  1
  O  O191  1  0.75207855  0.00922772  0.37320645  1
  O  O192  1  0.75566276  0.00438941  0.86792036  1
  O  O193  1  0.75126357  0.51012792  0.36396935  1
  O  O194  1  0.74951814  0.50977804  0.88165611  1
  O  O195  1  0.24198229  0.49851242  0.13342031  1
  O  O196  1  0.24305072  0.49955982  0.62743572  1
  O  O197  1  0.25585862  0.98741185  0.12708638  1
  O  O198  1  0.23884637  1.00028046  0.63919659  1
  O  O199  1  0.74644822  0.50039952  0.13580705  1
  O  O200  1  0.75348528  0.50316408  0.62548227  1
  O  O201  1  0.74600527  0.99495582  0.12542608  1
  O  O202  1  0.75863213  0.99096821  0.63870554  1
  O  O203  1  0.00795378  0.36710135  0.25282593  1
  O  O204  1  0.02025392  0.38000030  0.75097875  1
  O  O205  1  -0.00125253  0.86107671  0.24429485  1
  O  O206  1  0.00284909  0.86693318  0.76189553  1
  O  O207  1  0.50682587  0.36718810  0.25972860  1
  O  O208  1  0.51264155  0.36003116  0.76271564  1
  O  O209  1  0.50494710  0.87143752  0.25665278  1
  O  O210  1  0.50610164  0.87522671  0.76088751  1
  O  O211  1  0.49451612  0.12731520  0.24591127  1
  O  O212  1  0.48665695  0.13513740  0.75291835  1
  O  O213  1  0.49675060  0.63319685  0.24506382  1
  O  O214  1  0.49091192  0.62575020  0.74460702  1
  O  O215  1  0.99561457  0.12953649  0.24923518  1
  O  O216  1  0.98806973  0.11879001  0.74515660  1
  O  O217  1  0.99478996  0.62986434  0.24274270  1
  O  O218  1  0.99771659  0.62954671  0.74447553  1
  O  O219  1  0.38335571  0.24560917  0.01569373  1
  O  O220  1  0.37027058  0.24565866  0.51577819  1
  O  O221  1  0.36594748  0.75636663  0.00690989  1
  O  O222  1  0.37898480  0.77524352  0.51186671  1
  O  O223  1  0.86806471  0.24670211  0.00849338  1
  O  O224  1  0.87204630  0.25594938  0.50500475  1
  O  O225  1  0.86361308  0.74314979  0.00341066  1
  O  O226  1  0.87674411  0.76506430  0.49970988  1
  O  O227  1  0.13483332  0.24240513  0.49798856  1
  O  O228  1  0.12348876  0.24361250  0.99015403  1
  O  O229  1  0.12067979  0.74192801  0.50141837  1
  O  O230  1  0.13806072  0.75251173  1.00198747  1
  O  O231  1  0.62741260  0.24692324  0.49486629  1
  O  O232  1  0.63138128  0.24637968  0.99486141  1
  O  O233  1  0.63030007  0.73665744  0.49922660  1
  O  O234  1  0.63465670  0.73559088  1.00007088  1
  O  O235  1  0.49605091  0.24099743  0.13165895  1
  O  O236  1  0.48516931  0.25257789  0.63220543  1
  O  O237  1  0.49411500  0.74621271  0.12970992  1
  O  O238  1  0.48557589  0.74714384  0.62837187  1
  O  O239  1  0.99320727  0.24661622  0.13142306  1
  O  O240  1  0.98944452  0.23454929  0.61665997  1
  O  O241  1  1.00027699  0.74104169  0.13213777  1
  O  O242  1  1.00102423  0.74235177  0.63516777  1
  O  O243  1  0.00880908  0.24682211  0.37045669  1
  O  O244  1  0.02055656  0.24452604  0.87272473  1
  O  O245  1  -0.00176465  0.74930024  0.35773778  1
  O  O246  1  -0.00088691  0.75429095  0.87349425  1
  O  O247  1  0.50617263  0.25427157  0.37230285  1
  O  O248  1  0.50600506  0.25205928  0.86864112  1
  O  O249  1  0.50642535  0.76281735  0.36661113  1
  O  O250  1  0.50315055  0.75973944  0.87681803  1
  O  O251  1  0.24976860  0.12261209  0.49441181  1
  O  O252  1  0.24483487  0.12148416  0.98786700  1
  O  O253  1  0.23302140  0.62758243  0.50258631  1
  O  O254  1  0.25479035  0.63387729  0.99291187  1
  O  O255  1  0.74688599  0.13077290  0.49412655  1
  O  O256  1  0.74599866  0.13461097  0.99491912  1
  O  O257  1  0.74639663  0.62605768  0.49103857  1
  O  O258  1  0.74627265  0.62803963  0.99126647  1
  O  O259  1  0.25585513  0.37492301  0.00707215  1
  O  O260  1  0.24810052  0.36187713  0.49449633  1
  O  O261  1  0.25663888  0.87098851  0.00745328  1
  O  O262  1  0.25024424  0.89652335  0.52988791  1
  O  O263  1  0.75015405  0.36254973  0.00282811  1
  O  O264  1  0.75859639  0.37148426  0.50317580  1
  O  O265  1  0.74363089  0.86336391  0.00445501  1
  O  O266  1  0.75599837  0.87706152  0.50925035  1
  O  O267  1  0.13239347  0.49298697  0.24366108  1
  O  O268  1  0.12789402  0.49225461  0.73687613  1
  O  O269  1  0.13910461  1.01044341  0.23902811  1
  O  O270  1  0.11362821  0.98746375  0.75078408  1
  O  O271  1  0.63398960  0.49648778  0.24508326  1
  O  O272  1  0.62023428  0.48777053  0.75256477  1
  O  O273  1  0.63289149  1.00169477  0.23944306  1
  O  O274  1  0.63548310  0.98914778  0.75269535  1
  O  O275  1  0.36993145  0.01183389  0.24028470  1
  O  O276  1  0.37993484  0.01615557  0.75244602  1
  O  O277  1  0.36068732  0.50238651  0.24465687  1
  O  O278  1  0.36802302  0.51427092  0.76468111  1
  O  O279  1  0.86810364  0.00582692  0.25828286  1
  O  O280  1  0.86880217  0.00635495  0.76138263  1
  O  O281  1  0.86967454  0.50811696  0.25092752  1
  O  O282  1  0.88720741  0.50965289  0.74505578  1
  O  O283  1  0.12484553  0.36580734  0.36333808  1
  O  O284  1  0.12124446  0.36301310  0.87028345  1
  O  O285  1  0.08719602  0.94982888  0.39455222  1
  O  O286  1  0.11515729  0.87080342  0.87241510  1
  O  O287  1  0.62477240  0.36422908  0.37113763  1
  O  O288  1  0.61967565  0.36444216  0.86980064  1
  O  O289  1  0.61953545  0.87305820  0.37003980  1
  O  O290  1  0.61612831  0.87201724  0.86970170  1
  O  O291  1  0.38141856  0.13203486  0.12962662  1
  O  O292  1  0.36740951  0.12819898  0.63903477  1
  O  O293  1  0.37954586  0.63738275  0.12315844  1
  O  O294  1  0.37771036  0.63664895  0.63657932  1
  O  O295  1  0.87532661  0.13613003  0.13449421  1
  O  O296  1  0.88202559  0.12802604  0.63115674  1
  O  O297  1  0.88484543  0.62671534  0.13489943  1
  O  O298  1  0.89059256  0.62780662  0.62999496  1
  O  O299  1  0.26739387  0.24876745  0.13198830  1
  O  O300  1  0.26148475  0.24595332  0.61625521  1
  O  O301  1  0.25702867  0.75799899  0.12184915  1
  O  O302  1  0.26039088  0.75964264  0.63123272  1
  O  O303  1  0.75649676  0.24921789  0.11676305  1
  O  O304  1  0.76528003  0.25472009  0.61772213  1
  O  O305  1  0.75150628  0.75796228  0.11620934  1
  O  O306  1  0.75874085  0.76474214  0.62392723  1
  O  O307  1  0.24681029  0.23760568  0.38226871  1
  O  O308  1  0.23305155  0.23846891  0.86917472  1
  O  O309  1  0.26455489  0.83387156  0.40346245  1
  O  O310  1  0.24780391  0.74205468  0.88618865  1
  O  O311  1  0.74218103  0.24582960  0.38229218  1
  O  O312  1  0.74261551  0.24576401  0.88172310  1
  O  O313  1  0.74940381  0.73882292  0.37346605  1
  O  O314  1  0.74901623  0.74032771  0.88203571  1
  O  O315  1  0.00927766  0.11654570  0.00129890  1
  O  O316  1  0.01031716  0.11159867  0.50798031  1
  O  O317  1  -0.00302837  0.61388568  0.01221633  1
  O  O318  1  0.00598774  0.61946119  0.50673451  1
  O  O319  1  0.50439070  0.11587220  0.00160455  1
  O  O320  1  0.49312742  0.10186678  0.49564978  1
  O  O321  1  0.50978572  0.62428934  0.00546518  1
  O  O322  1  0.50623912  0.62850696  0.50850927  1
  O  O323  1  0.50266420  0.37611835  0.48183524  1
  O  O324  1  0.49679018  0.37341556  0.98457742  1
  O  O325  1  0.50860308  0.88345482  0.48762672  1
  O  O326  1  0.49434519  0.87754140  0.99711234  1
  O  O327  1  0.99574839  0.38190032  0.49820044  1
  O  O328  1  0.99890539  0.38821838  1.00135149  1
  O  O329  1  0.99286440  0.88744862  0.51126307  1
  O  O330  1  1.00296014  0.88042233  0.99131581  1
  O  O331  1  0.49964028  0.48371816  0.36684069  1
  O  O332  1  0.49037620  0.49052055  0.87625460  1
  O  O333  1  0.50532796  0.99011387  0.37597822  1
  O  O334  1  0.50276009  0.98516135  0.88960201  1
  O  O335  1  1.00234461  0.49882836  0.38547665  1
  O  O336  1  1.00845793  0.50226483  0.89245278  1
  O  O337  1  0.97145646  1.02904873  0.38201269  1
  O  O338  1  0.99131228  0.99169307  0.88396546  1
  O  O339  1  -0.01144246  0.00105175  0.11064761  1
  O  O340  1  0.00705363  0.00963561  0.62696358  1
  O  O341  1  0.00802004  0.50601787  0.12123583  1
  O  O342  1  0.01184829  0.50696205  0.61250235  1
  O  O343  1  0.50745636  0.00344366  0.11655324  1
  O  O344  1  0.49960251  -0.00539492  0.61909583  1
  O  O345  1  0.50469681  0.50576323  0.12508728  1
  O  O346  1  0.47992386  0.51158532  0.61988793  1
  O  O347  1  0.24345010  0.38258856  0.24524629  1
  O  O348  1  0.23084703  0.37754868  0.75685910  1
  O  O349  1  0.25744957  0.88416144  0.23330966  1
  O  O350  1  0.23611681  0.87085932  0.75006591  1
  O  O351  1  0.74523700  0.38394480  0.25016073  1
  O  O352  1  0.72939620  0.36736631  0.74655180  1
  O  O353  1  0.74934801  0.88227875  0.24084909  1
  O  O354  1  0.74412651  0.88000553  0.74532495  1
  O  O355  1  0.25826635  0.11802258  0.25639534  1
  O  O356  1  0.26063264  0.12561514  0.76036596  1
  O  O357  1  0.25253483  0.61098544  0.24433941  1
  O  O358  1  0.25503292  0.62553020  0.75979730  1
  O  O359  1  0.75427376  0.12024670  0.25852044  1
  O  O360  1  0.75991384  0.11727207  0.75502203  1
  O  O361  1  0.75783599  0.62010218  0.25405471  1
  O  O362  1  0.75848770  0.62101067  0.76355529  1
  O  O363  1  0.36737729  0.12858520  0.36525961  1
  O  O364  1  0.36011551  0.13127260  0.86708814  1
  O  O365  1  0.36306869  0.65299618  0.37491578  1
  O  O366  1  0.36688664  0.62008894  0.87148020  1
  O  O367  1  0.85826850  0.12647921  0.37223127  1
  O  O368  1  0.87107386  0.12128051  0.86825344  1
  O  O369  1  0.86854848  0.62313028  0.36816617  1
  O  O370  1  0.86331011  0.62313690  0.86723059  1
  O  O371  1  0.12460153  0.38008189  0.13680435  1
  O  O372  1  0.12395856  0.37958637  0.63176642  1
  O  O373  1  0.14145602  0.87463225  0.12003231  1
  O  O374  1  0.12846909  0.88318584  0.63922130  1
  O  O375  1  0.62518937  0.38112136  0.13215869  1
  O  O376  1  0.62107392  0.37188322  0.63854293  1
  O  O377  1  0.63526080  0.88282769  0.12404569  1
  O  O378  1  0.63321416  0.87214352  0.63236324  1
  O  O379  1  0.12258216  0.25505122  0.25420405  1
  O  O380  1  0.12574080  0.25978658  0.75340423  1
  O  O381  1  0.11735389  0.75203797  0.25106373  1
  O  O382  1  0.11223188  0.75725376  0.75383386  1
  O  O383  1  0.61942509  0.25342804  0.25830030  1
  O  O384  1  0.61711156  0.25240929  0.75726756  1
  O  O385  1  0.61264232  0.75053704  0.24675519  1
  O  O386  1  0.62190970  0.76594294  0.75438632  1
  O  O387  1  0.38148661  0.23730465  0.24129483  1
  O  O388  1  0.37888676  0.24361871  0.74090291  1
  O  O389  1  0.38714487  0.75279598  0.23979173  1
  O  O390  1  0.37642519  0.74005504  0.74890684  1
  O  O391  1  0.88028450  0.24644162  0.24554854  1
  O  O392  1  0.86933940  0.23942119  0.73914871  1
  O  O393  1  0.87771362  0.73955678  0.24618748  1
  O  O394  1  0.88770274  0.74112722  0.75045714  1
  O  O395  1  0.37629248  0.50123449  0.49154937  1
  O  O396  1  0.37809808  0.49963897  0.98772089  1
  O  O397  1  0.38595916  0.97467680  0.50427513  1
  O  O398  1  0.38551596  0.98977590  1.00646915  1
  O  O399  1  0.88776702  0.49190874  0.49744904  1
  O  O400  1  0.89083680  0.49700198  1.00825768  1
  O  O401  1  0.87717118  0.99089615  0.49498736  1
  O  O402  1  0.87989347  1.00777982  0.98572330  1
  O  O403  1  0.11351418  0.00952752  -0.00431844  1
  O  O404  1  0.12404021  0.00901478  0.52316589  1
  O  O405  1  0.11602938  0.49465918  0.01408485  1
  O  O406  1  0.12159541  0.50311760  0.50492833  1
  O  O407  1  0.61990079  0.00615235  0.00428333  1
  O  O408  1  0.60702421  0.00418253  0.49981354  1
  O  O409  1  0.62411527  0.50881079  0.00646439  1
  O  O410  1  0.61670352  0.51482307  0.49162777  1
  O  O411  1  0.38134161  0.35680662  0.12680156  1
  O  O412  1  0.36960238  0.36237041  0.63431626  1
  O  O413  1  0.37205200  0.86438355  0.11432001  1
  O  O414  1  0.36322361  0.86618819  0.64081564  1
  O  O415  1  0.87264700  0.36127060  0.12436414  1
  O  O416  1  0.88028066  0.36670361  0.61536573  1
  O  O417  1  0.86109480  0.87506720  0.12424440  1
  O  O418  1  0.86965316  0.87606818  0.61930998  1
  O  O419  1  0.13530502  0.12750266  0.38351669  1
  O  O420  1  0.13340561  0.13140014  0.88217142  1
  O  O421  1  0.12357574  0.62662403  0.38764426  1
  O  O422  1  0.13689132  0.62509688  0.87075054  1
  O  O423  1  0.63326862  0.13672393  0.37589263  1
  O  O424  1  0.63225705  0.13837290  0.88115324  1
  O  O425  1  0.63388919  0.62821754  0.37983620  1
  O  O426  1  0.63532220  0.62363666  0.88087013  1
