# generated using pymatgen
data_V85Zn86O256
_symmetry_space_group_name_H-M   'P 1'
_cell_length_a   16.95060863
_cell_length_b   16.94576929
_cell_length_c   16.95474978
_cell_angle_alpha   90.02113977
_cell_angle_beta   90.05142449
_cell_angle_gamma   90.03091693
_symmetry_Int_Tables_number   1
_chemical_formula_structural   V85Zn86O256
_chemical_formula_sum   'V85 Zn86 O256'
_cell_volume   4870.09802927
_cell_formula_units_Z   1
loop_
 _symmetry_equiv_pos_site_id
 _symmetry_equiv_pos_as_xyz
  1  'x, y, z'
loop_
 _atom_site_type_symbol
 _atom_site_label
 _atom_site_symmetry_multiplicity
 _atom_site_fract_x
 _atom_site_fract_y
 _atom_site_fract_z
 _atom_site_occupancy
  V  V0  1  0.24738479  0.12334907  0.38561533  1
  V  V1  1  -0.00258101  0.87331025  0.39260215  1
  V  V2  1  0.74375441  0.39080433  0.62970956  1
  V  V3  1  0.37459635  0.49976096  0.87379296  1
  V  V4  1  0.50362903  0.12019488  0.12300731  1
  V  V5  1  0.26579203  0.62628419  0.38384492  1
  V  V6  1  0.11705975  0.24878190  0.87585646  1
  V  V7  1  0.86929002  0.87700752  0.00392659  1
  V  V8  1  0.12740239  0.63554623  0.50246620  1
  V  V9  1  0.12322241  0.11733403  0.00094032  1
  V  V10  1  0.62449405  0.74968890  0.37461867  1
  V  V11  1  0.87897932  0.76089672  0.62625722  1
  V  V12  1  0.24950558  0.36861155  0.12972105  1
  V  V13  1  0.00481840  0.01899360  0.51023716  1
  V  V14  1  -0.00119690  0.87399253  0.88257753  1
  V  V15  1  0.50566014  0.62069080  0.62751348  1
  V  V16  1  0.12583687  0.24755682  0.37501410  1
  V  V17  1  0.75056785  0.24858659  -0.00944075  1
  V  V18  1  0.12427829  0.49619401  0.11908310  1
  V  V19  1  0.25020722  0.24509423  -0.00189216  1
  V  V20  1  0.49435125  0.37774774  0.37194788  1
  V  V21  1  0.74784202  0.63749868  0.86706252  1
  V  V22  1  0.11581271  0.87683738  0.25120309  1
  V  V23  1  0.36924941  -0.00054607  0.86889206  1
  V  V24  1  0.62685066  -0.01078391  0.62977399  1
  V  V25  1  0.37599717  0.11888446  0.24942518  1
  V  V26  1  0.75704938  0.75782005  0.50098462  1
  V  V27  1  0.24603148  0.00222165  0.25335831  1
  V  V28  1  0.61870339  0.38379996  0.75166418  1
  V  V29  1  0.12605803  0.50169489  0.62553700  1
  V  V30  1  -0.00686591  0.62482471  0.63259814  1
  V  V31  1  0.50121962  0.24610275  0.24841237  1
  V  V32  1  0.24411036  0.63516471  0.87196575  1
  V  V33  1  0.74959318  -0.00417774  0.75416455  1
  V  V34  1  0.75018406  0.25342585  0.50193864  1
  V  V35  1  0.37025012  0.86667421  -0.00755911  1
  V  V36  1  0.37687573  0.37304116  -0.00094745  1
  V  V37  1  0.00391123  0.50249678  0.49865840  1
  V  V38  1  0.74982842  0.37628586  0.11714088  1
  V  V39  1  0.49552151  0.50156281  0.49726068  1
  V  V40  1  0.50233141  0.87267939  0.37383890  1
  V  V41  1  0.87625081  0.12640689  0.25162084  1
  V  V42  1  0.49994209  0.00071120  0.50237837  1
  V  V43  1  0.62657876  0.12459457  0.50337399  1
  V  V44  1  0.87406274  0.24890201  0.62865161  1
  V  V45  1  0.87519818  -0.00318593  0.38600799  1
  V  V46  1  0.75366010  -0.00239721  0.24410592  1
  V  V47  1  0.00106666  0.74756829  0.25380706  1
  V  V48  1  0.12010377  0.63260432  -0.00575043  1
  V  V49  1  0.87546508  0.00587327  0.88149813  1
  V  V50  1  0.51952281  0.75447587  0.74876306  1
  V  V51  1  0.63267394  0.87317960  0.24499846  1
  V  V52  1  0.25145581  0.25476333  0.49935463  1
  V  V53  1  0.86216861  0.49979125  0.85275066  1
  V  V54  1  0.11854484  0.37463930  0.74946114  1
  V  V55  1  0.37610281  0.63059563  0.74871904  1
  V  V56  1  0.62969507  0.61887997  0.50591793  1
  V  V57  1  0.38466357  0.25545562  0.62720693  1
  V  V58  1  -0.01551670  0.49296666  -0.00253400  1
  V  V59  1  -0.00087796  0.62457433  0.12447571  1
  V  V60  1  0.49963194  -0.00263234  0.00135879  1
  V  V61  1  0.12444626  -0.00389337  0.12511936  1
  V  V62  1  0.24606772  0.87941676  0.61373296  1
  V  V63  1  0.59191179  0.53605726  0.14621349  1
  V  V64  1  0.28212671  0.85624363  0.15679970  1
  V  V65  1  0.51308160  0.87486087  0.86669047  1
  V  V66  1  0.87486764  0.25374792  0.12082905  1
  V  V67  1  -0.00065120  0.11929109  0.12399496  1
  V  V68  1  0.37912537  0.12762489  0.75010399  1
  V  V69  1  0.63003347  0.12371507  -0.01076413  1
  V  V70  1  0.00035510  0.74958993  0.75888168  1
  V  V71  1  0.75132022  0.12570896  0.37648919  1
  V  V72  1  0.75280359  0.62270339  0.37627914  1
  V  V73  1  0.24917267  0.49957539  0.75071168  1
  V  V74  1  0.86690153  0.13107269  0.75511737  1
  V  V75  1  0.75368075  0.50097883  0.24542638  1
  V  V76  1  0.00364314  0.37738251  0.37262148  1
  V  V77  1  0.13131160  0.88138384  0.75747389  1
  V  V78  1  0.26569273  0.53903464  0.23003231  1
  V  V79  1  0.86997894  0.75373203  0.12363150  1
  V  V80  1  0.87727342  0.49893188  0.37374222  1
  V  V81  1  0.04237838  0.19265983  0.69238244  1
  V  V82  1  0.50244552  0.51145126  -0.00122606  1
  V  V83  1  0.37497394  0.00022174  0.37676752  1
  V  V84  1  0.62610542  0.36964075  0.24297653  1
  Zn  Zn85  1  0.63415574  0.63978823  -0.00737245  1
  Zn  Zn86  1  0.87388789  0.37688264  0.50112185  1
  Zn  Zn87  1  0.63224465  -0.00735900  0.12040501  1
  Zn  Zn88  1  0.13078398  0.38062402  0.25257902  1
  Zn  Zn89  1  0.24786802  0.12015246  0.87177700  1
  Zn  Zn90  1  0.12951528  0.75027993  0.38084264  1
  Zn  Zn91  1  -0.01060293  0.37045865  0.87495772  1
  Zn  Zn92  1  0.00265809  0.25232482  0.24811089  1
  Zn  Zn93  1  0.75183727  0.87423096  0.62724789  1
  Zn  Zn94  1  0.24460684  0.75467931  -0.00300467  1
  Zn  Zn95  1  0.36589072  0.74927471  0.62159750  1
  Zn  Zn96  1  0.62443524  0.24987836  0.37549685  1
  Zn  Zn97  1  0.37608166  0.24323045  0.12217440  1
  Zn  Zn98  1  0.49723441  0.36884517  0.86696562  1
  Zn  Zn99  1  0.87606771  0.62554244  0.24879991  1
  Zn  Zn100  1  0.37437665  0.38053340  0.49687422  1
  Zn  Zn101  1  0.12526719  0.01466537  0.63058258  1
  Zn  Zn102  1  0.50542225  0.12843232  0.63316525  1
  Zn  Zn103  1  0.25310581  0.37843781  0.62304152  1
  Zn  Zn104  1  0.70587041  0.80084086  0.06401722  1
  Zn  Zn105  1  0.62128268  0.24575900  0.86115985  1
  Zn  Zn106  1  0.37193499  0.87216705  0.50127730  1
  Zn  Zn107  1  0.18623513  0.18726159  0.19066163  1
  Zn  Zn108  1  0.20898128  0.18899749  0.68925868  1
  Zn  Zn109  1  0.19502564  0.68749310  0.18101580  1
  Zn  Zn110  1  0.18261424  0.69497228  0.68907219  1
  Zn  Zn111  1  0.68817783  0.18501691  0.18272032  1
  Zn  Zn112  1  0.68780253  0.19006295  0.68882252  1
  Zn  Zn113  1  0.57683411  0.69626744  0.18741318  1
  Zn  Zn114  1  0.69726170  0.67968182  0.68923705  1
  Zn  Zn115  1  0.31708151  0.30759777  0.31071951  1
  Zn  Zn116  1  0.30893877  0.31035485  0.81132348  1
  Zn  Zn117  1  0.30754470  0.80987545  0.33122129  1
  Zn  Zn118  1  0.31480846  0.81382486  0.80866280  1
  Zn  Zn119  1  0.81407521  0.31288889  0.31104289  1
  Zn  Zn120  1  0.80909375  0.32022997  0.80996954  1
  Zn  Zn121  1  0.81537416  0.81231603  0.31438745  1
  Zn  Zn122  1  0.81742319  0.81448508  0.81015897  1
  Zn  Zn123  1  0.19353949  0.44632572  0.43151981  1
  Zn  Zn124  1  0.18713298  0.43659546  0.93727014  1
  Zn  Zn125  1  0.17767779  0.94180171  0.44108484  1
  Zn  Zn126  1  0.18722656  0.93707439  0.93544915  1
  Zn  Zn127  1  0.68356304  0.43556695  0.43528718  1
  Zn  Zn128  1  0.68437398  0.44538360  0.93939112  1
  Zn  Zn129  1  0.68868469  0.93794775  0.43826344  1
  Zn  Zn130  1  0.69097331  0.93912521  0.93361805  1
  Zn  Zn131  1  0.31266503  0.05046715  0.06447427  1
  Zn  Zn132  1  0.31222127  0.05979673  0.56876653  1
  Zn  Zn133  1  0.30665016  0.56257073  0.05641529  1
  Zn  Zn134  1  0.31446490  0.56343001  0.56402001  1
  Zn  Zn135  1  0.81476562  0.06404781  0.05999845  1
  Zn  Zn136  1  0.81493777  0.06493855  0.56817232  1
  Zn  Zn137  1  0.80526528  0.57072203  0.06259083  1
  Zn  Zn138  1  0.81910179  0.56648225  0.56127906  1
  Zn  Zn139  1  0.43189457  0.43600709  0.18741680  1
  Zn  Zn140  1  0.44170990  0.44006442  0.68586502  1
  Zn  Zn141  1  0.44674791  0.83561263  0.18924560  1
  Zn  Zn142  1  0.43545162  0.93869274  0.68668828  1
  Zn  Zn143  1  0.93736835  0.43470616  0.18605662  1
  Zn  Zn144  1  0.93761646  0.43272720  0.68529526  1
  Zn  Zn145  1  0.93704575  0.93837899  0.19106890  1
  Zn  Zn146  1  0.93923455  0.93986626  0.69239741  1
  Zn  Zn147  1  0.05933654  0.06442151  0.31709077  1
  Zn  Zn148  1  0.05970573  0.05596143  0.81984373  1
  Zn  Zn149  1  0.07362539  0.56353454  0.30977670  1
  Zn  Zn150  1  0.05709744  0.55957865  0.81484002  1
  Zn  Zn151  1  0.56594482  0.05871030  0.31312657  1
  Zn  Zn152  1  0.55935860  0.06135180  0.81097418  1
  Zn  Zn153  1  0.56707351  0.55787776  0.32097635  1
  Zn  Zn154  1  0.56977303  0.55937145  0.81128924  1
  Zn  Zn155  1  0.43777091  0.18905310  0.43818443  1
  Zn  Zn156  1  0.44112342  0.18675878  0.93369949  1
  Zn  Zn157  1  0.43904240  0.69215488  0.44251407  1
  Zn  Zn158  1  0.43927643  0.68915396  0.92874279  1
  Zn  Zn159  1  0.93621151  0.19147181  0.43871386  1
  Zn  Zn160  1  0.93751869  0.18507933  0.94089645  1
  Zn  Zn161  1  0.93889717  0.68578197  0.44052066  1
  Zn  Zn162  1  0.92595379  0.68436851  0.93695750  1
  Zn  Zn163  1  0.06082426  0.31027346  0.06057670  1
  Zn  Zn164  1  0.06873453  0.31776647  0.55444501  1
  Zn  Zn165  1  0.05631134  0.81194789  0.06388686  1
  Zn  Zn166  1  0.06424065  0.81581776  0.57228762  1
  Zn  Zn167  1  0.55974946  0.30924098  0.05281776  1
  Zn  Zn168  1  0.56551459  0.31612273  0.56275238  1
  Zn  Zn169  1  0.53899363  0.79572749  0.04231311  1
  Zn  Zn170  1  0.55971804  0.80756479  0.56084430  1
  O  O171  1  0.11986431  0.11873180  0.12095373  1
  O  O172  1  0.11685629  0.13497560  0.64328463  1
  O  O173  1  0.11870515  0.61693553  0.11486566  1
  O  O174  1  0.11887724  0.62015618  0.62165120  1
  O  O175  1  0.61441766  0.11849836  0.11959910  1
  O  O176  1  0.62555439  0.12004191  0.61426117  1
  O  O177  1  0.64027278  0.62156338  0.11479352  1
  O  O178  1  0.62005055  0.63116956  0.61556684  1
  O  O179  1  0.39017900  0.36989838  0.37389207  1
  O  O180  1  0.37187317  0.38239752  0.88069195  1
  O  O181  1  0.38544480  0.88214078  0.37901306  1
  O  O182  1  0.38223086  0.88265130  0.87467569  1
  O  O183  1  0.88476126  0.38050613  0.37613671  1
  O  O184  1  0.87607155  0.39133772  0.87004809  1
  O  O185  1  0.88456140  0.88636074  0.37476907  1
  O  O186  1  0.88021728  0.88189943  0.88455759  1
  O  O187  1  0.25052498  0.00780905  0.37555802  1
  O  O188  1  0.26545663  0.00175888  0.87926254  1
  O  O189  1  0.24735817  0.52025922  0.36146585  1
  O  O190  1  0.25947246  0.50619274  0.87085291  1
  O  O191  1  0.75921626  0.00650270  0.37363364  1
  O  O192  1  0.76320015  -0.00044767  0.86699640  1
  O  O193  1  0.75734190  0.49936616  0.36919464  1
  O  O194  1  0.76118643  0.49685144  0.87175453  1
  O  O195  1  0.24090456  0.48310819  0.12230509  1
  O  O196  1  0.24424368  0.50025510  0.63336050  1
  O  O197  1  0.24633364  0.98120829  0.13734564  1
  O  O198  1  0.24183694  0.98854336  0.62461386  1
  O  O199  1  0.75489153  0.49030374  0.13328085  1
  O  O200  1  0.75547624  0.48786786  0.61471195  1
  O  O201  1  0.75373293  1.00457687  0.14073053  1
  O  O202  1  0.74421986  0.99780912  0.63076731  1
  O  O203  1  0.00500645  0.37471407  0.26091269  1
  O  O204  1  0.01391210  0.37837199  0.75374368  1
  O  O205  1  0.00401877  0.87186087  0.26352239  1
  O  O206  1  0.00428505  0.86957062  0.76128071  1
  O  O207  1  0.50624656  0.36957717  0.25177311  1
  O  O208  1  0.51259659  0.37471542  0.74765069  1
  O  O209  1  0.51604563  0.88340825  0.26706281  1
  O  O210  1  0.49726980  0.86167746  0.75056704  1
  O  O211  1  0.49785389  0.12344448  0.24224777  1
  O  O212  1  0.48744221  0.12865837  0.75027751  1
  O  O213  1  0.53325070  0.59470612  0.22078605  1
  O  O214  1  0.49708423  0.63260380  0.74613191  1
  O  O215  1  0.99368684  0.12937512  0.24489964  1
  O  O216  1  0.99010210  0.12747090  0.75492295  1
  O  O217  1  1.00212312  0.63272881  0.24529465  1
  O  O218  1  1.00959488  0.63528729  0.74286548  1
  O  O219  1  0.36576310  0.25550552  -0.00044374  1
  O  O220  1  0.36602164  0.25303138  0.50422065  1
  O  O221  1  0.37485765  0.76217530  -0.00771094  1
  O  O222  1  0.38711651  0.76085690  0.51125606  1
  O  O223  1  0.86659273  0.24330036  0.01239438  1
  O  O224  1  0.86728251  0.25365015  0.50769819  1
  O  O225  1  0.87922247  0.76011201  0.01216003  1
  O  O226  1  0.86706313  0.74393338  0.50965302  1
  O  O227  1  0.14002172  0.25451443  0.48820418  1
  O  O228  1  0.13142508  0.24086161  0.99457454  1
  O  O229  1  0.12049361  0.73804362  0.50692315  1
  O  O230  1  0.11849230  0.73581207  1.00077167  1
  O  O231  1  0.63263145  0.24239705  0.49881218  1
  O  O232  1  0.63667425  0.23864731  1.00510420  1
  O  O233  1  0.63303694  0.74149552  0.49211664  1
  O  O234  1  0.62975323  0.75482751  0.99865302  1
  O  O235  1  0.49892857  0.23756305  0.12831127  1
  O  O236  1  0.48755495  0.24659446  0.61213053  1
  O  O237  1  0.49784868  0.75383553  0.13421696  1
  O  O238  1  0.50045803  0.74081084  0.63672898  1
  O  O239  1  0.99277758  0.24258092  0.12601991  1
  O  O240  1  0.99438403  0.25765988  0.62342349  1
  O  O241  1  0.99489871  0.74286983  0.13573354  1
  O  O242  1  0.99526342  0.74399832  0.63232314  1
  O  O243  1  0.00933292  0.25874540  0.37685232  1
  O  O244  1  0.01251712  0.25269894  0.88353609  1
  O  O245  1  0.00037040  0.75783583  0.37189586  1
  O  O246  1  -0.01028109  0.75683756  0.86802834  1
  O  O247  1  0.50348232  0.25493399  0.36647161  1
  O  O248  1  0.51301516  0.26088703  0.89665431  1
  O  O249  1  0.51209127  0.75924971  0.37870155  1
  O  O250  1  0.49859610  0.75832853  0.85690852  1
  O  O251  1  0.25647810  0.13265676  0.49037301  1
  O  O252  1  0.24366035  0.12995756  1.00158160  1
  O  O253  1  0.24174808  0.61698446  0.49198385  1
  O  O254  1  0.23951904  0.63041600  0.98871064  1
  O  O255  1  0.74489566  0.13275490  0.49811783  1
  O  O256  1  0.74043323  0.13402236  1.00694113  1
  O  O257  1  0.74527732  0.63088180  0.49596172  1
  O  O258  1  0.74971833  0.61696462  0.97916538  1
  O  O259  1  0.25716204  0.36658187  0.00593376  1
  O  O260  1  0.25456293  0.36995853  0.49688026  1
  O  O261  1  0.26039365  0.87229083  -0.00658307  1
  O  O262  1  0.24513637  0.87747636  0.51054793  1
  O  O263  1  0.74083736  0.36826156  0.01294215  1
  O  O264  1  0.74792107  0.36798312  0.50673962  1
  O  O265  1  0.76346547  0.88129203  0.00307211  1
  O  O266  1  0.74740564  0.86096782  0.50177449  1
  O  O267  1  0.14038038  0.50281178  0.23257748  1
  O  O268  1  0.12853955  0.49311418  0.74623025  1
  O  O269  1  0.12609386  0.99562440  0.24825953  1
  O  O270  1  0.11501182  0.98584570  0.74764161  1
  O  O271  1  0.63605080  0.48739220  0.24174691  1
  O  O272  1  0.62190377  0.48473079  0.74188362  1
  O  O273  1  0.63741712  0.99225818  0.25019428  1
  O  O274  1  0.63549087  1.00985540  0.74049992  1
  O  O275  1  0.36221398  0.00523371  0.26170459  1
  O  O276  1  0.38248862  0.01239472  0.75790707  1
  O  O277  1  0.35486711  0.49638439  0.24592004  1
  O  O278  1  0.37276354  0.50944567  0.75621675  1
  O  O279  1  0.87099909  0.00603029  0.26236921  1
  O  O280  1  0.86922324  0.01018333  0.75578035  1
  O  O281  1  0.87015097  0.49882874  0.25638892  1
  O  O282  1  0.87809172  0.50207011  0.75462139  1
  O  O283  1  0.12046859  0.37157304  0.37263192  1
  O  O284  1  0.12495036  0.36517933  0.86791074  1
  O  O285  1  0.11424877  0.87285271  0.37069313  1
  O  O286  1  0.11481325  0.88069975  0.86673512  1
  O  O287  1  0.61683754  0.37248218  0.36007215  1
  O  O288  1  0.62561203  0.38019494  0.86045512  1
  O  O289  1  0.62184584  0.86833864  0.37237691  1
  O  O290  1  0.61192131  0.88486248  0.87128726  1
  O  O291  1  0.38742506  0.11789602  0.12845608  1
  O  O292  1  0.37711805  0.13129685  0.63569016  1
  O  O293  1  0.29643693  0.61460563  0.15605264  1
  O  O294  1  0.38390838  0.62589949  0.63413855  1
  O  O295  1  0.88313621  0.13013208  0.13062589  1
  O  O296  1  0.87544733  0.14062054  0.63432908  1
  O  O297  1  0.88253411  0.63313644  0.12730152  1
  O  O298  1  0.88952923  0.63342129  0.62302459  1
  O  O299  1  0.24878230  0.25105459  0.11290474  1
  O  O300  1  0.26151704  0.25555276  0.61367672  1
  O  O301  1  0.23104032  0.77605500  0.11652635  1
  O  O302  1  0.24841726  0.77193001  0.63517512  1
  O  O303  1  0.75744277  0.25641901  0.12022750  1
  O  O304  1  0.75691569  0.25549892  0.61430639  1
  O  O305  1  0.77146487  0.75210144  0.14243107  1
  O  O306  1  0.76079507  0.75017051  0.61939304  1
  O  O307  1  0.24641629  0.24364941  0.38001196  1
  O  O308  1  0.23854287  0.24700859  0.88471966  1
  O  O309  1  0.24536905  0.73561439  0.38562031  1
  O  O310  1  0.25150693  0.73789829  0.87206183  1
  O  O311  1  0.75073339  0.24646004  0.38638947  1
  O  O312  1  0.74858525  0.25752066  0.88878629  1
  O  O313  1  0.74883729  0.74317910  0.38342503  1
  O  O314  1  0.76020811  0.73755072  0.86996602  1
  O  O315  1  0.01209893  0.12845113  0.01120515  1
  O  O316  1  -0.00100648  0.11756664  0.50007843  1
  O  O317  1  0.00360678  0.61297501  0.00265133  1
  O  O318  1  0.00796098  0.61968616  0.51094657  1
  O  O319  1  0.50647337  0.11625447  0.00597813  1
  O  O320  1  0.50882307  0.11451073  0.49884137  1
  O  O321  1  0.50013678  0.61484259  -0.00761492  1
  O  O322  1  0.50947899  0.62038759  0.50696082  1
  O  O323  1  0.50397866  0.38430809  0.49020007  1
  O  O324  1  0.48388830  0.38349212  1.00254937  1
  O  O325  1  0.50715131  0.88781463  0.49075181  1
  O  O326  1  0.49052556  0.88189534  0.98551416  1
  O  O327  1  1.00031994  0.38338622  0.48753306  1
  O  O328  1  1.00599737  0.39014718  0.99711555  1
  O  O329  1  1.00485337  0.88064149  0.49424166  1
  O  O330  1  0.99395041  0.87183950  0.98772784  1
  O  O331  1  0.50278352  0.49066260  0.38327616  1
  O  O332  1  0.48822227  0.49592591  0.88033279  1
  O  O333  1  0.49692202  0.99505703  0.38327353  1
  O  O334  1  0.49269245  0.99414428  0.88140458  1
  O  O335  1  0.99922784  0.49455416  0.37575076  1
  O  O336  1  0.98713089  0.50028340  0.88631851  1
  O  O337  1  0.99421945  0.99539277  0.38798256  1
  O  O338  1  0.98452167  0.98906453  0.87287243  1
  O  O339  1  0.00435962  0.01387452  0.13211424  1
  O  O340  1  -0.00249076  0.00074315  0.61257864  1
  O  O341  1  0.00585365  0.50239765  0.11752698  1
  O  O342  1  0.00481619  0.50712328  0.62110694  1
  O  O343  1  0.50546059  0.00250571  0.10747988  1
  O  O344  1  0.50793651  0.00288247  0.61830604  1
  O  O345  1  0.49613077  0.49584158  0.11273616  1
  O  O346  1  0.50047957  0.51443685  0.61804948  1
  O  O347  1  0.25031366  0.36261865  0.23449597  1
  O  O348  1  0.23798931  0.38105362  0.74972911  1
  O  O349  1  0.22991102  0.88352784  0.25822708  1
  O  O350  1  0.23339963  0.87558520  0.75470638  1
  O  O351  1  0.74351424  0.37928920  0.24356533  1
  O  O352  1  0.74387505  0.37905897  0.73385108  1
  O  O353  1  0.74456626  0.88705868  0.26295164  1
  O  O354  1  0.75670012  0.89073673  0.74662847  1
  O  O355  1  0.25464040  0.12032465  0.25840128  1
  O  O356  1  0.26990897  0.12466320  0.75678694  1
  O  O357  1  0.22746952  0.63284925  0.27763853  1
  O  O358  1  0.25557903  0.62071146  0.75354568  1
  O  O359  1  0.75516107  0.11884555  0.25700236  1
  O  O360  1  0.76170439  0.11688078  0.74535225  1
  O  O361  1  0.75241950  0.60629180  0.25885939  1
  O  O362  1  0.75225470  0.61965217  0.76498171  1
  O  O363  1  0.36768477  0.11995209  0.37085371  1
  O  O364  1  0.37613315  0.11905751  0.86739149  1
  O  O365  1  0.36523667  0.62984871  0.37806833  1
  O  O366  1  0.36720977  0.61801930  0.86753702  1
  O  O367  1  0.87085482  0.12043055  0.37073142  1
  O  O368  1  0.87871493  0.11849183  0.86864141  1
  O  O369  1  0.87115140  0.61657434  0.37281464  1
  O  O370  1  0.86588974  0.60767513  0.87773029  1
  O  O371  1  0.13035014  0.37947646  0.12494652  1
  O  O372  1  0.12755725  0.38273167  0.63160137  1
  O  O373  1  0.10846312  0.88500703  0.13770939  1
  O  O374  1  0.13286465  0.88077574  0.63716665  1
  O  O375  1  0.63036647  0.36865897  0.13512520  1
  O  O376  1  0.63793814  0.37462386  0.62905777  1
  O  O377  1  0.63245722  0.87208451  0.14060214  1
  O  O378  1  0.62620569  0.88678024  0.61947198  1
  O  O379  1  0.12429835  0.25348176  0.26306761  1
  O  O380  1  0.11987353  0.25169083  0.75383051  1
  O  O381  1  0.11292898  0.75953643  0.25084702  1
  O  O382  1  0.11035625  0.76658225  0.74794335  1
  O  O383  1  0.62045485  0.25278725  0.25116157  1
  O  O384  1  0.63460395  0.26794439  0.74872937  1
  O  O385  1  0.63470773  0.75771836  0.26680832  1
  O  O386  1  0.61722560  0.74954344  0.74433875  1
  O  O387  1  0.38338112  0.23728281  0.24490038  1
  O  O388  1  0.37140641  0.24300218  0.74022452  1
  O  O389  1  0.34520075  0.79726530  0.22515328  1
  O  O390  1  0.37885873  0.73787810  0.74718177  1
  O  O391  1  0.87580844  0.24304802  0.24037171  1
  O  O392  1  0.86985349  0.24478682  0.74375080  1
  O  O393  1  0.88916570  0.75070438  0.24817277  1
  O  O394  1  0.88930415  0.75362617  0.74020884  1
  O  O395  1  0.39078612  0.50042669  0.50347405  1
  O  O396  1  0.37581097  0.49536537  0.99239166  1
  O  O397  1  0.38500295  0.99791489  0.49700144  1
  O  O398  1  0.38348154  0.99463882  0.98930488  1
  O  O399  1  0.88549613  0.49916602  0.49111823  1
  O  O400  1  0.88620294  0.49823714  1.00838928  1
  O  O401  1  0.88359171  1.00739906  0.49215642  1
  O  O402  1  0.87408883  0.99421007  0.99271721  1
  O  O403  1  0.13162039  0.01017212  0.00732337  1
  O  O404  1  0.10928741  0.00646550  0.50642909  1
  O  O405  1  0.12090195  0.50596411  0.00762157  1
  O  O406  1  0.12101405  0.50651652  0.50771717  1
  O  O407  1  0.62095645  0.00541591  0.00062842  1
  O  O408  1  0.62166153  0.00741379  0.50686903  1
  O  O409  1  0.61046841  0.49870008  0.01442192  1
  O  O410  1  0.61752834  0.51297330  0.49323720  1
  O  O411  1  0.36576926  0.36841711  0.11589870  1
  O  O412  1  0.37451462  0.36919270  0.62264099  1
  O  O413  1  0.37392331  0.88659670  0.10616836  1
  O  O414  1  0.35631781  0.88040644  0.62710250  1
  O  O415  1  0.86518382  0.36380982  0.12999299  1
  O  O416  1  0.86474837  0.36611512  0.62373302  1
  O  O417  1  0.88781470  0.86865594  0.11548716  1
  O  O418  1  0.87770172  0.86444347  0.62530273  1
  O  O419  1  0.13495926  0.13462626  0.37192772  1
  O  O420  1  0.12552916  0.12830730  0.88353259  1
  O  O421  1  0.11862637  0.62820782  0.39276324  1
  O  O422  1  0.13362549  0.61493383  0.88216702  1
  O  O423  1  0.63287279  0.12398976  0.38719305  1
  O  O424  1  0.62290256  0.12504325  0.88616331  1
  O  O425  1  0.63305984  0.63238514  0.38213444  1
  O  O426  1  0.64013604  0.61983315  0.87581980  1
