# generated using pymatgen
data_V85Zn86O256
_symmetry_space_group_name_H-M   'P 1'
_cell_length_a   16.95720938
_cell_length_b   16.95838909
_cell_length_c   16.94196067
_cell_angle_alpha   90.07427895
_cell_angle_beta   90.07884547
_cell_angle_gamma   90.09525414
_symmetry_Int_Tables_number   1
_chemical_formula_structural   V85Zn86O256
_chemical_formula_sum   'V85 Zn86 O256'
_cell_volume   4871.93258067
_cell_formula_units_Z   1
loop_
 _symmetry_equiv_pos_site_id
 _symmetry_equiv_pos_as_xyz
  1  'x, y, z'
loop_
 _atom_site_type_symbol
 _atom_site_label
 _atom_site_symmetry_multiplicity
 _atom_site_fract_x
 _atom_site_fract_y
 _atom_site_fract_z
 _atom_site_occupancy
  V  V0  1  0.87389355  0.12241451  0.24418586  1
  V  V1  1  0.49832446  0.50544921  -0.00241458  1
  V  V2  1  -0.00164000  0.74842524  0.25135409  1
  V  V3  1  0.24920959  0.87394564  0.12324516  1
  V  V4  1  0.64323679  0.63021289  -0.01690390  1
  V  V5  1  0.00279080  0.12855251  0.63596845  1
  V  V6  1  0.36401621  0.49713271  0.37583108  1
  V  V7  1  0.12811112  0.62218547  0.50139555  1
  V  V8  1  0.86734820  0.87756067  0.50276686  1
  V  V9  1  0.12918344  0.00703014  0.61901504  1
  V  V10  1  0.24825823  0.36466854  0.12294512  1
  V  V11  1  0.37730783  0.12481622  0.75233990  1
  V  V12  1  0.25439154  0.87736797  0.61997998  1
  V  V13  1  0.87475551  0.37718412  -0.00161932  1
  V  V14  1  0.38110380  -0.00413547  0.38655921  1
  V  V15  1  0.50665035  0.49445718  0.48936509  1
  V  V16  1  0.61926561  0.11912209  -0.00078811  1
  V  V17  1  0.24904334  0.13700998  0.88038077  1
  V  V18  1  0.74666511  -0.00769806  0.24583274  1
  V  V19  1  0.12062201  -0.00211880  0.11286032  1
  V  V20  1  0.87161836  0.50385549  0.85807209  1
  V  V21  1  0.36373439  0.62184428  0.74731213  1
  V  V22  1  0.50563291  0.86266440  0.88489581  1
  V  V23  1  0.74959088  0.24735723  0.00087819  1
  V  V24  1  0.00291096  0.50789434  -0.00417909  1
  V  V25  1  0.12822132  0.14116791  -0.00155596  1
  V  V26  1  0.49431685  0.11804125  0.12355407  1
  V  V27  1  0.74732997  0.25209005  0.49484813  1
  V  V28  1  0.87617183  0.37669138  0.50114620  1
  V  V29  1  0.00162109  0.36055339  0.87093660  1
  V  V30  1  0.74741126  0.37633028  0.63274478  1
  V  V31  1  0.37527790  0.25313660  0.62419214  1
  V  V32  1  0.37739293  0.12523750  0.24881478  1
  V  V33  1  0.50410816  0.11832074  0.61821623  1
  V  V34  1  0.25494773  0.74997879  0.49691864  1
  V  V35  1  0.62054130  -0.00566846  0.12196347  1
  V  V36  1  0.62458094  0.24902374  0.87473402  1
  V  V37  1  0.86406065  0.84600940  -0.02084793  1
  V  V38  1  0.25185157  -0.00107781  0.75451283  1
  V  V39  1  0.12503958  0.50265689  0.63977134  1
  V  V40  1  0.36741326  0.49976939  0.87224978  1
  V  V41  1  -0.00197814  0.11927386  0.11626874  1
  V  V42  1  0.74870169  0.62886016  0.40049519  1
  V  V43  1  0.75034198  0.86495296  0.11723438  1
  V  V44  1  0.87887181  0.24854478  0.63436595  1
  V  V45  1  0.12502781  0.35625813  0.75396318  1
  V  V46  1  0.24135290  0.62030236  0.87859098  1
  V  V47  1  0.37135874  0.63456108  0.25917689  1
  V  V48  1  0.24488703  0.12374101  0.37949589  1
  V  V49  1  0.12184919  0.87485012  0.24833099  1
  V  V50  1  0.24833952  0.00153966  0.24917904  1
  V  V51  1  0.74960927  0.12012488  0.86871491  1
  V  V52  1  0.74596378  0.12698147  0.36759824  1
  V  V53  1  0.62759028  0.50212336  0.12283316  1
  V  V54  1  0.50032118  0.63388817  0.12979318  1
  V  V55  1  0.49908016  0.37567856  0.87512770  1
  V  V56  1  0.12176113  0.74769891  0.87880674  1
  V  V57  1  0.87495698  0.49836044  0.37807753  1
  V  V58  1  0.00792482  0.01035082  0.49646664  1
  V  V59  1  0.50271367  0.25167543  0.74719623  1
  V  V60  1  0.74723843  0.49801844  0.25300844  1
  V  V61  1  0.60997878  0.25608976  0.36646734  1
  V  V62  1  0.37757230  0.75616813  0.62353327  1
  V  V63  1  0.62646168  0.50714914  0.62741941  1
  V  V64  1  0.86442393  0.75417054  0.61904005  1
  V  V65  1  -0.00023384  0.37445864  0.37569525  1
  V  V66  1  0.00680273  0.88865128  0.87947248  1
  V  V67  1  -0.00231145  0.74787997  0.74697101  1
  V  V68  1  0.87469816  0.62310253  0.25147769  1
  V  V69  1  0.12367697  0.24830075  0.37711588  1
  V  V70  1  0.24360596  0.24878016  0.50327549  1
  V  V71  1  0.24777776  0.74335468  0.00391924  1
  V  V72  1  0.37164306  0.36286612  0.00007216  1
  V  V73  1  0.38374438  -0.00229616  0.88494319  1
  V  V74  1  0.49827951  0.62070359  0.62134280  1
  V  V75  1  0.87263704  0.24826157  0.12304356  1
  V  V76  1  0.25059032  0.38341013  0.62837716  1
  V  V77  1  0.87675499  0.00533287  0.87858605  1
  V  V78  1  0.12521390  0.38038859  0.24869538  1
  V  V79  1  0.62132312  0.74610068  0.38321980  1
  V  V80  1  0.00096756  0.87604702  0.37668600  1
  V  V81  1  0.12961336  0.74400299  0.37625164  1
  V  V82  1  0.87737811  -0.00113329  0.36861017  1
  V  V83  1  0.43255542  0.29203363  0.17993980  1
  V  V84  1  -0.00155945  0.24988588  0.24831030  1
  Zn  Zn85  1  0.54941612  -0.04828135  0.54648382  1
  Zn  Zn86  1  0.37640356  0.37372779  0.49527906  1
  Zn  Zn87  1  0.49583460  0.86676759  0.37838446  1
  Zn  Zn88  1  0.00340017  0.62567923  0.11900659  1
  Zn  Zn89  1  0.49700251  0.74551512  0.75635833  1
  Zn  Zn90  1  0.37701930  0.87799684  0.00752180  1
  Zn  Zn91  1  0.12767067  0.87502951  0.74866680  1
  Zn  Zn92  1  0.82752561  0.07470898  0.71082308  1
  Zn  Zn93  1  0.24551563  0.50737386  0.24708052  1
  Zn  Zn94  1  0.60706487  0.37590747  0.24971697  1
  Zn  Zn95  1  0.71899856  0.56619567  0.79900217  1
  Zn  Zn96  1  0.62722598  0.38459195  0.75444849  1
  Zn  Zn97  1  0.86867757  0.74561341  0.12697410  1
  Zn  Zn98  1  0.62078768  0.12248249  0.49560827  1
  Zn  Zn99  1  0.61002002  0.84944591  0.24253156  1
  Zn  Zn100  1  0.37992144  0.75404119  0.13010281  1
  Zn  Zn101  1  0.70244719  0.94076195  0.66301399  1
  Zn  Zn102  1  0.74838809  0.37355009  0.12743271  1
  Zn  Zn103  1  0.00060294  0.62529629  0.62884053  1
  Zn  Zn104  1  0.13406338  0.50619252  0.11055996  1
  Zn  Zn105  1  0.62051410  0.86658099  0.75301505  1
  Zn  Zn106  1  0.00269491  0.50158674  0.50320787  1
  Zn  Zn107  1  0.18558816  0.18809583  0.18832086  1
  Zn  Zn108  1  0.19114970  0.18346209  0.68688017  1
  Zn  Zn109  1  0.18435808  0.68380317  0.18629040  1
  Zn  Zn110  1  0.18630851  0.69019242  0.68988769  1
  Zn  Zn111  1  0.68222611  0.18658234  0.18775562  1
  Zn  Zn112  1  0.68399237  0.19092653  0.68334264  1
  Zn  Zn113  1  0.68777171  0.68127991  0.18913632  1
  Zn  Zn114  1  0.68784276  0.70933318  0.69216648  1
  Zn  Zn115  1  0.30624746  0.31764042  0.31667387  1
  Zn  Zn116  1  0.31277546  0.31580514  0.80867289  1
  Zn  Zn117  1  0.31185621  0.81493146  0.31138525  1
  Zn  Zn118  1  0.31432436  0.81201449  0.81328059  1
  Zn  Zn119  1  0.81013363  0.31295116  0.31072059  1
  Zn  Zn120  1  0.81335190  0.31099812  0.81495331  1
  Zn  Zn121  1  0.80726272  0.80973186  0.31554436  1
  Zn  Zn122  1  0.81151629  0.81598020  0.80706247  1
  Zn  Zn123  1  0.18719690  0.43687526  0.44120522  1
  Zn  Zn124  1  0.18747597  0.43001218  0.93591446  1
  Zn  Zn125  1  0.19016656  0.93520861  0.43749609  1
  Zn  Zn126  1  0.19060231  0.93975868  0.93844208  1
  Zn  Zn127  1  0.68552462  0.43589014  0.43722289  1
  Zn  Zn128  1  0.68920740  0.43747164  0.93908227  1
  Zn  Zn129  1  0.68473661  0.93557883  0.43322555  1
  Zn  Zn130  1  0.68953303  0.93861677  0.93368839  1
  Zn  Zn131  1  0.30838859  0.06649718  0.06314345  1
  Zn  Zn132  1  0.31444483  0.06795453  0.56351362  1
  Zn  Zn133  1  0.31259719  0.56067276  0.06529093  1
  Zn  Zn134  1  0.31076767  0.56351450  0.55791891  1
  Zn  Zn135  1  0.81107708  0.05183186  0.05344773  1
  Zn  Zn136  1  0.81657163  0.06639740  0.54320041  1
  Zn  Zn137  1  0.81781501  0.56049441  0.06393796  1
  Zn  Zn138  1  0.79550442  0.58478388  0.61444452  1
  Zn  Zn139  1  0.43311827  0.45906457  0.18545706  1
  Zn  Zn140  1  0.43741201  0.43906320  0.68860146  1
  Zn  Zn141  1  0.43753425  0.93588234  0.19638420  1
  Zn  Zn142  1  0.44131956  0.93520802  0.69642051  1
  Zn  Zn143  1  0.93780344  0.43902570  0.18388957  1
  Zn  Zn144  1  0.94443018  0.43206596  0.68504717  1
  Zn  Zn145  1  0.93413626  0.93264968  0.17863055  1
  Zn  Zn146  1  0.94112895  0.93489481  0.69007273  1
  Zn  Zn147  1  0.06360674  0.06313932  0.30579241  1
  Zn  Zn148  1  0.06881218  0.06647113  0.81282396  1
  Zn  Zn149  1  0.06197116  0.56315337  0.31512881  1
  Zn  Zn150  1  0.05700546  0.56178314  0.81613487  1
  Zn  Zn151  1  0.56136203  0.06077937  0.31053405  1
  Zn  Zn152  1  0.56900935  0.05541215  0.80298091  1
  Zn  Zn153  1  0.56425951  0.57063147  0.31323554  1
  Zn  Zn154  1  0.55253427  0.56672668  0.80965497  1
  Zn  Zn155  1  0.43062268  0.18781362  0.43670922  1
  Zn  Zn156  1  0.43987337  0.18340951  0.93639494  1
  Zn  Zn157  1  0.44006644  0.68524423  0.44111300  1
  Zn  Zn158  1  0.42888612  0.68543601  0.94422950  1
  Zn  Zn159  1  0.93465408  0.18755183  0.43839932  1
  Zn  Zn160  1  0.93761275  0.18556842  0.93811900  1
  Zn  Zn161  1  0.93757677  0.68650007  0.44224581  1
  Zn  Zn162  1  0.91766225  0.69224511  0.92532237  1
  Zn  Zn163  1  0.05852183  0.31714350  0.06386774  1
  Zn  Zn164  1  0.06339493  0.31242426  0.56512492  1
  Zn  Zn165  1  0.05504799  0.80786352  0.05753676  1
  Zn  Zn166  1  0.06550170  0.81982079  0.56103567  1
  Zn  Zn167  1  0.56668390  0.31615939  0.05772240  1
  Zn  Zn168  1  0.56440477  0.31524964  0.55956814  1
  Zn  Zn169  1  0.56634782  0.80869472  0.05235703  1
  Zn  Zn170  1  0.56970852  0.79694469  0.55589235  1
  O  O171  1  0.11771033  0.11819778  0.12095787  1
  O  O172  1  0.12290833  0.11435960  0.62422744  1
  O  O173  1  0.11512469  0.61471130  0.13493603  1
  O  O174  1  0.12673593  0.61742374  0.62095807  1
  O  O175  1  0.61707083  0.11731112  0.11827641  1
  O  O176  1  0.60743177  0.13089556  0.62164691  1
  O  O177  1  0.61972515  0.61495235  0.11906465  1
  O  O178  1  0.61095733  0.61307401  0.62572575  1
  O  O179  1  0.37370465  0.39229294  0.37419863  1
  O  O180  1  0.37719983  0.38260809  0.88088337  1
  O  O181  1  0.37044164  0.89305100  0.37055768  1
  O  O182  1  0.37587141  0.88648448  0.88094567  1
  O  O183  1  0.87957041  0.37722986  0.38073396  1
  O  O184  1  0.88234313  0.37757108  0.88067100  1
  O  O185  1  0.88275570  0.88004333  0.37828867  1
  O  O186  1  0.89291453  0.88729109  0.87240547  1
  O  O187  1  0.25176641  0.00807591  0.36904338  1
  O  O188  1  0.25792304  0.00555691  0.86846738  1
  O  O189  1  0.26119298  0.50083264  0.37577553  1
  O  O190  1  0.25643052  0.50788185  0.88299991  1
  O  O191  1  0.75530822  0.00524790  0.36120155  1
  O  O192  1  0.75959410  0.01003189  0.87540829  1
  O  O193  1  0.75473959  0.50652115  0.37107695  1
  O  O194  1  0.76513392  0.48864617  0.86996475  1
  O  O195  1  0.25043463  0.48722444  0.12785330  1
  O  O196  1  0.24426694  0.48854978  0.62107528  1
  O  O197  1  0.24146756  0.99338205  0.12938425  1
  O  O198  1  0.24946314  0.99646052  0.63034952  1
  O  O199  1  0.74284238  0.49994403  0.13301255  1
  O  O200  1  0.73677455  0.48737868  0.61322743  1
  O  O201  1  0.74267229  0.98933815  0.12839171  1
  O  O202  1  0.77173899  1.01829081  0.63030948  1
  O  O203  1  0.00464428  0.37027926  0.25398788  1
  O  O204  1  0.01562483  0.37379343  0.75586765  1
  O  O205  1  0.00239923  0.86864300  0.25592995  1
  O  O206  1  0.00824093  0.86783662  0.76173204  1
  O  O207  1  0.48865440  0.36675847  0.23026461  1
  O  O208  1  0.50031874  0.36787957  0.75760164  1
  O  O209  1  0.50512832  0.88276403  0.26526830  1
  O  O210  1  0.49115251  0.86963263  0.77314338  1
  O  O211  1  0.48563205  0.12402526  0.24128805  1
  O  O212  1  0.49623098  0.13258043  0.74249572  1
  O  O213  1  0.48750777  0.61694910  0.24007847  1
  O  O214  1  0.48190528  0.62214225  0.73894518  1
  O  O215  1  0.99364816  0.12982653  0.23800999  1
  O  O216  1  1.00702648  0.12373364  0.73578425  1
  O  O217  1  0.98704630  0.63119519  0.25852849  1
  O  O218  1  1.00455005  0.64341954  0.75089500  1
  O  O219  1  0.38407812  0.26404583  -0.00479971  1
  O  O220  1  0.36301769  0.25424783  0.50447851  1
  O  O221  1  0.35902137  0.75333810  0.00704302  1
  O  O222  1  0.36238475  0.74097342  0.50807733  1
  O  O223  1  0.86974220  0.25638733  0.00490327  1
  O  O224  1  0.86698849  0.25948833  0.50297822  1
  O  O225  1  0.91146588  0.75708950  0.02074121  1
  O  O226  1  0.88920551  0.76665196  0.50894580  1
  O  O227  1  0.13623535  0.25489207  0.49470837  1
  O  O228  1  0.12214021  0.24024334  1.00760453  1
  O  O229  1  0.13357610  0.74674622  0.49507111  1
  O  O230  1  0.13172716  0.75277540  0.98778835  1
  O  O231  1  0.63163176  0.24848470  0.48816349  1
  O  O232  1  0.62960888  0.24175051  0.99416206  1
  O  O233  1  0.63455607  0.73619839  0.48376219  1
  O  O234  1  0.62537352  0.72751095  0.99517120  1
  O  O235  1  0.50249247  0.23893913  0.12121823  1
  O  O236  1  0.49522290  0.24764330  0.63116111  1
  O  O237  1  0.50087085  0.73737459  0.11843914  1
  O  O238  1  0.48833956  0.73613688  0.62096328  1
  O  O239  1  0.99226355  0.24241670  0.13015286  1
  O  O240  1  0.99118821  0.23986971  0.61554822  1
  O  O241  1  1.00744162  0.74926960  0.14549576  1
  O  O242  1  1.01363006  0.75439679  0.64097039  1
  O  O243  1  0.00356634  0.25302827  0.36878253  1
  O  O244  1  -0.00353327  0.26109902  0.87720621  1
  O  O245  1  0.00743914  0.75479627  0.36819847  1
  O  O246  1  0.00558688  0.75680411  0.86509107  1
  O  O247  1  0.51167138  0.24542565  0.37780456  1
  O  O248  1  0.50511366  0.25314848  0.86698221  1
  O  O249  1  0.51699770  0.73852556  0.37711170  1
  O  O250  1  0.48873915  0.75990817  0.88043004  1
  O  O251  1  0.25178142  0.13500018  0.49103131  1
  O  O252  1  0.24121193  0.12633855  0.99306571  1
  O  O253  1  0.23764188  0.63582104  0.50400982  1
  O  O254  1  0.25299290  0.63264718  0.99296898  1
  O  O255  1  0.75070025  0.14017886  0.48587395  1
  O  O256  1  0.73796808  0.12769201  0.99330099  1
  O  O257  1  0.75768219  0.61561970  0.49688212  1
  O  O258  1  0.74067226  0.61903269  1.00174122  1
  O  O259  1  0.26044032  0.37744279  0.00834068  1
  O  O260  1  0.25166547  0.36799056  0.51062917  1
  O  O261  1  0.24825775  0.86903071  0.01224443  1
  O  O262  1  0.24829199  0.86780737  0.51304033  1
  O  O263  1  0.76000636  0.36813658  0.00189460  1
  O  O264  1  0.75526437  0.36576529  0.50361318  1
  O  O265  1  0.75671999  0.87442328  0.00490727  1
  O  O266  1  0.76889387  0.88452410  0.49470180  1
  O  O267  1  0.12489662  0.48762494  0.25599851  1
  O  O268  1  0.12252253  0.49709598  0.74169036  1
  O  O269  1  0.13031747  0.99342577  0.24012448  1
  O  O270  1  0.14025465  1.00106112  0.74332729  1
  O  O271  1  0.63086022  0.49884687  0.24355723  1
  O  O272  1  0.62535744  0.50171123  0.74245639  1
  O  O273  1  0.63371596  1.00295958  0.23658999  1
  O  O274  1  0.62476052  0.98214981  0.74683432  1
  O  O275  1  0.36449075  0.01066512  0.25630064  1
  O  O276  1  0.36657288  0.00418445  0.75986828  1
  O  O277  1  0.36995318  0.51054729  0.26277014  1
  O  O278  1  0.37492223  0.50495197  0.76370315  1
  O  O279  1  0.86832967  0.00277259  0.24957304  1
  O  O280  1  0.88896117  0.00054648  0.76912647  1
  O  O281  1  0.87102360  0.50495082  0.25678325  1
  O  O282  1  0.87958791  0.49056390  0.75871184  1
  O  O283  1  0.12052400  0.36863962  0.36935136  1
  O  O284  1  0.11992582  0.37380814  0.86098665  1
  O  O285  1  0.11976504  0.86674634  0.36995501  1
  O  O286  1  0.11931708  0.87063366  0.87528584  1
  O  O287  1  0.62492452  0.36174925  0.37012389  1
  O  O288  1  0.61731659  0.36873440  0.87574286  1
  O  O289  1  0.63461805  0.85291401  0.37130934  1
  O  O290  1  0.60728332  0.87559919  0.88496659  1
  O  O291  1  0.38229101  0.12327562  0.13163693  1
  O  O292  1  0.38137029  0.13473519  0.63293074  1
  O  O293  1  0.38396165  0.62530730  0.13547569  1
  O  O294  1  0.37381624  0.62908002  0.63207894  1
  O  O295  1  0.88059301  0.12443428  0.12286330  1
  O  O296  1  0.88590623  0.13366798  0.62297141  1
  O  O297  1  0.88255732  0.62504304  0.13645370  1
  O  O298  1  0.88884539  0.65048610  0.60908658  1
  O  O299  1  0.24746937  0.26410649  0.13028170  1
  O  O300  1  0.25415684  0.25640318  0.61944256  1
  O  O301  1  0.24623500  0.75753492  0.11911815  1
  O  O302  1  0.25492525  0.75925407  0.62002600  1
  O  O303  1  0.75405987  0.24975055  0.11917065  1
  O  O304  1  0.75492745  0.25502094  0.61367096  1
  O  O305  1  0.74925576  0.76134361  0.13033283  1
  O  O306  1  0.76667248  0.75372364  0.61385555  1
  O  O307  1  0.24464402  0.24449422  0.38330244  1
  O  O308  1  0.25952287  0.23563139  0.86992986  1
  O  O309  1  0.24199781  0.75914643  0.38570564  1
  O  O310  1  0.24315135  0.74367463  0.88284192  1
  O  O311  1  0.74474916  0.24635232  0.37845699  1
  O  O312  1  0.74369653  0.24427033  0.88264591  1
  O  O313  1  0.75413393  0.73150706  0.38052782  1
  O  O314  1  0.82249199  0.76900710  0.90955152  1
  O  O315  1  0.00694157  0.12696567  0.01103742  1
  O  O316  1  -0.00270937  0.11380522  0.50322140  1
  O  O317  1  -0.00869698  0.60869274  -0.00744439  1
  O  O318  1  0.01659157  0.62558377  0.50135796  1
  O  O319  1  0.51156267  0.12544838  0.00608616  1
  O  O320  1  0.49514203  0.13313659  0.51614439  1
  O  O321  1  0.50313461  0.61479532  0.00270867  1
  O  O322  1  0.49010754  0.60744871  0.51326395  1
  O  O323  1  0.49363795  0.39080135  0.50505678  1
  O  O324  1  0.49436150  0.38688037  0.99554957  1
  O  O325  1  0.50146079  0.86520050  0.49089000  1
  O  O326  1  0.49308041  0.87385858  0.99084428  1
  O  O327  1  0.99288196  0.37327389  0.49369130  1
  O  O328  1  0.99016983  0.37891370  0.99166668  1
  O  O329  1  1.00036234  0.88886935  0.49176634  1
  O  O330  1  0.99554092  0.87361986  0.98157321  1
  O  O331  1  0.49443445  0.50575777  0.38661048  1
  O  O332  1  0.49043975  0.49665278  0.88108954  1
  O  O333  1  0.48182104  1.01079743  0.37537923  1
  O  O334  1  0.48517325  0.99708574  0.87369639  1
  O  O335  1  0.99273168  0.49231933  0.37940279  1
  O  O336  1  0.99068888  0.48910278  0.88055488  1
  O  O337  1  0.99914896  0.99791988  0.37759086  1
  O  O338  1  1.00357892  0.99262890  0.87567499  1
  O  O339  1  0.00815045  0.00781411  0.13001779  1
  O  O340  1  0.01057782  0.00638395  0.61703962  1
  O  O341  1  -0.00242501  0.49724235  0.10453857  1
  O  O342  1  0.01026515  0.50328839  0.62272278  1
  O  O343  1  0.50618595  0.00981458  0.12808183  1
  O  O344  1  0.48634851  0.01538956  0.62542269  1
  O  O345  1  0.50731915  0.51027722  0.11467254  1
  O  O346  1  0.50526277  0.50248657  0.61876295  1
  O  O347  1  0.23969305  0.37819506  0.24413951  1
  O  O348  1  0.23666348  0.37196082  0.74261263  1
  O  O349  1  0.24140509  0.87848174  0.23932160  1
  O  O350  1  0.25095307  0.88233500  0.74086866  1
  O  O351  1  0.75157480  0.39003564  0.24857852  1
  O  O352  1  0.74745256  0.36652573  0.73556155  1
  O  O353  1  0.75112486  0.88391785  0.24148880  1
  O  O354  1  0.73910596  0.86134556  0.74211420  1
  O  O355  1  0.25731715  0.12212779  0.25446993  1
  O  O356  1  0.25815130  0.11764241  0.75621174  1
  O  O357  1  0.26738224  0.62537990  0.24647787  1
  O  O358  1  0.25776195  0.62816216  0.75936976  1
  O  O359  1  0.75566508  0.11463750  0.24778750  1
  O  O360  1  0.74652975  0.13791728  0.76472286  1
  O  O361  1  0.76266552  0.61286664  0.25263689  1
  O  O362  1  0.75820573  0.62580495  0.71643806  1
  O  O363  1  0.36291137  0.12073537  0.36768938  1
  O  O364  1  0.37154316  0.11417492  0.87204130  1
  O  O365  1  0.37973507  0.61725565  0.36443746  1
  O  O366  1  0.36411405  0.61818737  0.86969255  1
  O  O367  1  0.86812176  0.11917398  0.36520263  1
  O  O368  1  0.86351707  0.11883335  0.88370225  1
  O  O369  1  0.86723639  0.61784551  0.37402769  1
  O  O370  1  0.87562738  0.60307071  0.86849138  1
  O  O371  1  0.12970885  0.38004586  0.13236149  1
  O  O372  1  0.12960531  0.38045314  0.63598698  1
  O  O373  1  0.12656741  0.88121351  0.12658217  1
  O  O374  1  0.13573229  0.88943191  0.62703518  1
  O  O375  1  0.62624399  0.38908129  0.12574782  1
  O  O376  1  0.63177360  0.38294956  0.62702343  1
  O  O377  1  0.62930854  0.87858480  0.12421421  1
  O  O378  1  0.61137223  0.88185648  0.61996874  1
  O  O379  1  0.11772082  0.26057384  0.25489680  1
  O  O380  1  0.12586467  0.25815830  0.74544941  1
  O  O381  1  0.12092058  0.75477848  0.26039131  1
  O  O382  1  0.12147541  0.75432818  0.76312220  1
  O  O383  1  0.62646347  0.25592709  0.26082521  1
  O  O384  1  0.61365805  0.25336910  0.75429464  1
  O  O385  1  0.63714394  0.74066401  0.26873599  1
  O  O386  1  0.60847549  0.75214314  0.75136793  1
  O  O387  1  0.37150641  0.24434559  0.25230386  1
  O  O388  1  0.38632649  0.24666424  0.74640034  1
  O  O389  1  0.37454470  0.73885584  0.25080474  1
  O  O390  1  0.37461531  0.74030801  0.74118197  1
  O  O391  1  0.87748269  0.24326448  0.24215895  1
  O  O392  1  0.87261835  0.25484097  0.73378212  1
  O  O393  1  0.88159696  0.74200563  0.25120506  1
  O  O394  1  0.89150503  0.76015410  0.73190943  1
  O  O395  1  0.37977836  0.49975578  0.48807213  1
  O  O396  1  0.38280407  0.49498759  0.99211985  1
  O  O397  1  0.36674126  1.00491964  0.48464148  1
  O  O398  1  0.36807572  1.00034811  0.98750030  1
  O  O399  1  0.87748127  0.48327791  0.49553801  1
  O  O400  1  0.88070593  0.49008711  0.99187970  1
  O  O401  1  0.88840210  0.99534448  0.48630277  1
  O  O402  1  0.87290705  0.98404540  0.98344609  1
  O  O403  1  0.12934502  0.00827205  0.01108546  1
  O  O404  1  0.12074954  -0.00176089  0.50650521  1
  O  O405  1  0.10674702  0.49197996  -0.00668443  1
  O  O406  1  0.12649394  0.50794796  0.50900163  1
  O  O407  1  0.62988289  0.00634525  0.01275843  1
  O  O408  1  0.62463021  0.01084102  0.48653977  1
  O  O409  1  0.61865298  0.50628923  0.00506099  1
  O  O410  1  0.61117127  0.49584297  0.50445054  1
  O  O411  1  0.37245009  0.36887190  0.12114552  1
  O  O412  1  0.36513489  0.37031133  0.62779950  1
  O  O413  1  0.36379689  0.87486110  0.12764978  1
  O  O414  1  0.37030579  0.86336655  0.63147621  1
  O  O415  1  0.87344821  0.36871479  0.11503557  1
  O  O416  1  0.86911599  0.36999736  0.61715279  1
  O  O417  1  0.86432437  0.87182566  0.11107061  1
  O  O418  1  0.88793266  0.86747113  0.61339002  1
  O  O419  1  0.13738054  0.13196676  0.36514861  1
  O  O420  1  0.13603748  0.12245753  0.88656754  1
  O  O421  1  0.12431056  0.63709405  0.38154407  1
  O  O422  1  0.13437639  0.63090124  0.87142387  1
  O  O423  1  0.63158236  0.13757961  0.36752000  1
  O  O424  1  0.62807908  0.12634116  0.88156454  1
  O  O425  1  0.64343026  0.62551794  0.37571357  1
  O  O426  1  0.63489726  0.61079875  0.87873838  1
