# generated using pymatgen
data_V85Zn86O256
_symmetry_space_group_name_H-M   'P 1'
_cell_length_a   16.95777671
_cell_length_b   16.95185889
_cell_length_c   16.96144698
_cell_angle_alpha   89.96383664
_cell_angle_beta   90.07992399
_cell_angle_gamma   90.11228650
_symmetry_Int_Tables_number   1
_chemical_formula_structural   V85Zn86O256
_chemical_formula_sum   'V85 Zn86 O256'
_cell_volume   4875.82149574
_cell_formula_units_Z   1
loop_
 _symmetry_equiv_pos_site_id
 _symmetry_equiv_pos_as_xyz
  1  'x, y, z'
loop_
 _atom_site_type_symbol
 _atom_site_label
 _atom_site_symmetry_multiplicity
 _atom_site_fract_x
 _atom_site_fract_y
 _atom_site_fract_z
 _atom_site_occupancy
  V  V0  1  0.00167956  0.86783306  0.37541870  1
  V  V1  1  0.62967168  0.87846070  0.25273441  1
  V  V2  1  0.25029996  0.62530845  0.87305316  1
  V  V3  1  0.00300446  0.38221420  0.38186585  1
  V  V4  1  0.62481858  0.76329776  0.86896104  1
  V  V5  1  0.50028158  0.62574517  0.12541833  1
  V  V6  1  0.74941346  0.74952973  0.50153616  1
  V  V7  1  0.12393722  -0.00362141  0.61946380  1
  V  V8  1  0.62016872  0.49643200  0.62717159  1
  V  V9  1  0.88206864  0.87327641  -0.00575728  1
  V  V10  1  0.00332892  0.25994743  0.24935790  1
  V  V11  1  0.37601569  0.61852509  0.24672801  1
  V  V12  1  0.74913780  0.87469076  0.62806298  1
  V  V13  1  0.48766759  -0.01104191  0.48408930  1
  V  V14  1  0.32066298  0.31370401  0.55376413  1
  V  V15  1  0.25267877  0.12501650  0.38039499  1
  V  V16  1  0.24800511  0.24947413  -0.00275206  1
  V  V17  1  0.13132550  0.49771526  0.13743153  1
  V  V18  1  -0.00504159  0.13438538  0.61888817  1
  V  V19  1  0.49864614  0.37815688  0.37848205  1
  V  V20  1  0.24476725  0.62539331  0.36771620  1
  V  V21  1  0.25395430  0.76110132  0.00308796  1
  V  V22  1  0.13125775  0.49370110  0.62714628  1
  V  V23  1  0.35750699  0.11528327  0.75296342  1
  V  V24  1  0.87571665  0.62503157  0.25175841  1
  V  V25  1  0.87077635  0.87947932  0.49203520  1
  V  V26  1  0.12377720  0.86799539  0.25027147  1
  V  V27  1  0.63088209  0.25062143  0.37659373  1
  V  V28  1  0.87552719  0.49915373  0.87515229  1
  V  V29  1  0.50146039  0.11180264  0.12735370  1
  V  V30  1  0.87708738  0.62726381  0.74901645  1
  V  V31  1  0.75339153  0.10889378  0.37332164  1
  V  V32  1  0.50199325  0.25093759  0.25145273  1
  V  V33  1  0.00226344  0.76512592  0.74930826  1
  V  V34  1  0.12473279  0.12934538  -0.00648273  1
  V  V35  1  0.75325047  0.36606113  0.62618958  1
  V  V36  1  -0.00225172  0.12750485  0.12694155  1
  V  V37  1  0.17912701  0.93103465  0.79403365  1
  V  V38  1  0.37315288  0.12342825  0.25661654  1
  V  V39  1  0.75164443  0.12572273  0.87585423  1
  V  V40  1  -0.00026792  0.62120230  0.62112974  1
  V  V41  1  0.75056982  0.62208196  0.37727363  1
  V  V42  1  0.48564194  0.88943573  0.88041498  1
  V  V43  1  0.49208152  0.24092985  0.75353434  1
  V  V44  1  0.87470127  0.24951264  0.12736569  1
  V  V45  1  0.24730912  0.37708931  0.13901594  1
  V  V46  1  0.75526869  0.88450543  0.12771639  1
  V  V47  1  0.12198440  -0.00225589  0.12907356  1
  V  V48  1  0.62002759  0.74807927  0.37061066  1
  V  V49  1  0.01137700  0.37341091  0.86747144  1
  V  V50  1  0.37508637  0.49962335  0.87742411  1
  V  V51  1  0.37369700  0.25121966  0.12608968  1
  V  V52  1  0.49260603  0.12100216  0.62707574  1
  V  V53  1  0.50001144  0.62441176  0.62736016  1
  V  V54  1  0.12216777  0.75043199  0.86919248  1
  V  V55  1  -0.00231580  0.00053606  -0.00243707  1
  V  V56  1  0.00170661  0.62509470  0.12534641  1
  V  V57  1  0.74661435  -0.00150801  0.74895845  1
  V  V58  1  0.25284483  0.88090139  0.61639570  1
  V  V59  1  0.61859477  0.37454277  0.75108815  1
  V  V60  1  0.13027973  0.25592660  0.37064526  1
  V  V61  1  0.00331931  0.49984264  0.00007460  1
  V  V62  1  0.74916571  0.37445234  0.12533884  1
  V  V63  1  0.24699904  -0.00179453  0.25360773  1
  V  V64  1  0.87276107  0.11356816  0.25505230  1
  V  V65  1  0.37244965  0.62415579  0.74828895  1
  V  V66  1  0.87562365  0.37399322  -0.00131999  1
  V  V67  1  0.12667543  0.12954795  0.49761602  1
  V  V68  1  0.12764251  0.62593184  -0.00017687  1
  V  V69  1  0.75090766  0.75021534  0.00216118  1
  V  V70  1  0.62497041  0.62418096  0.50172594  1
  V  V71  1  0.74977862  0.49793420  0.25272469  1
  V  V72  1  0.87387620  0.13825880  0.74295882  1
  V  V73  1  0.37776888  0.76418432  0.12203115  1
  V  V74  1  0.24469386  0.75270833  0.49412797  1
  V  V75  1  0.62036382  -0.00629901  0.62468108  1
  V  V76  1  0.62333645  0.12668202  0.50017385  1
  V  V77  1  0.36825926  0.49805668  0.37864211  1
  V  V78  1  0.37481607  0.75575451  0.62015649  1
  V  V79  1  0.74727735  0.62421678  0.87536851  1
  V  V80  1  0.88251655  -0.00223342  0.86852568  1
  V  V81  1  0.12174535  0.62312648  0.49713874  1
  V  V82  1  0.62277840  0.24737765  0.87845637  1
  V  V83  1  0.49918408  0.37210826  0.87911295  1
  V  V84  1  -0.00593487  0.00252847  0.49057466  1
  Zn  Zn85  1  0.00672239  0.26051273  0.73719555  1
  Zn  Zn86  1  0.50312010  0.49937738  0.00260518  1
  Zn  Zn87  1  0.87754272  0.74972352  0.12583930  1
  Zn  Zn88  1  0.87897426  0.49961356  0.38797179  1
  Zn  Zn89  1  0.50611212  0.75770752  0.74799638  1
  Zn  Zn90  1  0.46585883  0.78143296  0.28879261  1
  Zn  Zn91  1  0.75866836  0.24557797  0.50531344  1
  Zn  Zn92  1  0.62385212  0.50081315  0.12388844  1
  Zn  Zn93  1  0.49479269  0.49715986  0.50200066  1
  Zn  Zn94  1  0.74948463  0.24826715  0.00148772  1
  Zn  Zn95  1  0.62263793  0.62478074  -0.00001946  1
  Zn  Zn96  1  0.37493103  0.37321011  0.00262608  1
  Zn  Zn97  1  0.23480813  0.47477780  0.75652353  1
  Zn  Zn98  1  0.74794287  0.49902732  0.75094979  1
  Zn  Zn99  1  0.62636179  0.37612110  0.25000350  1
  Zn  Zn100  1  0.87691386  0.75181954  0.62441022  1
  Zn  Zn101  1  0.35379629  -0.00145202  0.87834006  1
  Zn  Zn102  1  0.13416900  0.24896882  0.86113974  1
  Zn  Zn103  1  0.62647783  -0.00316799  0.12395071  1
  Zn  Zn104  1  0.00363691  0.74582866  0.25524927  1
  Zn  Zn105  1  0.88246027  0.37345505  0.50930991  1
  Zn  Zn106  1  0.61738115  0.11518845  -0.00437573  1
  Zn  Zn107  1  0.18638407  0.18722101  0.18703574  1
  Zn  Zn108  1  0.18912900  0.19948168  0.67752811  1
  Zn  Zn109  1  0.19182679  0.68848942  0.18491184  1
  Zn  Zn110  1  0.18711919  0.68826963  0.68522304  1
  Zn  Zn111  1  0.68883670  0.18519577  0.19131116  1
  Zn  Zn112  1  0.67821681  0.18506549  0.69018123  1
  Zn  Zn113  1  0.68897949  0.68896354  0.18701780  1
  Zn  Zn114  1  0.68868357  0.68756143  0.68934923  1
  Zn  Zn115  1  0.31439455  0.31140131  0.32042141  1
  Zn  Zn116  1  0.31445469  0.30522317  0.81345009  1
  Zn  Zn117  1  0.30403856  0.81399264  0.31264969  1
  Zn  Zn118  1  0.31828889  0.80765100  0.81238443  1
  Zn  Zn119  1  0.81699561  0.30958381  0.31541184  1
  Zn  Zn120  1  0.81101215  0.31491132  0.81059943  1
  Zn  Zn121  1  0.81091144  0.81016587  0.31348547  1
  Zn  Zn122  1  0.81321793  0.81279319  0.81193248  1
  Zn  Zn123  1  0.18791379  0.43963933  0.44083804  1
  Zn  Zn124  1  0.19179092  0.43708999  0.94660724  1
  Zn  Zn125  1  0.18553470  0.93808464  0.43482697  1
  Zn  Zn126  1  0.18527074  0.93733201  0.95571535  1
  Zn  Zn127  1  0.68574520  0.43629139  0.44137263  1
  Zn  Zn128  1  0.68602939  0.43906239  0.94090160  1
  Zn  Zn129  1  0.67860089  0.93629428  0.43939981  1
  Zn  Zn130  1  0.68953970  0.93983613  0.94307136  1
  Zn  Zn131  1  0.30642825  0.05734488  0.07095118  1
  Zn  Zn132  1  0.31427806  0.06327043  0.56196582  1
  Zn  Zn133  1  0.31213752  0.56379490  0.06045178  1
  Zn  Zn134  1  0.30806707  0.56179093  0.55918204  1
  Zn  Zn135  1  0.81346755  0.06280063  0.05964465  1
  Zn  Zn136  1  0.81123855  0.06321473  0.55966354  1
  Zn  Zn137  1  0.81307446  0.56129333  0.06324459  1
  Zn  Zn138  1  0.81179684  0.55467862  0.56417980  1
  Zn  Zn139  1  0.43663200  0.43865580  0.19147050  1
  Zn  Zn140  1  0.39758657  0.41408866  0.70340631  1
  Zn  Zn141  1  0.43052407  0.92872284  0.22425091  1
  Zn  Zn142  1  0.43811249  0.93559944  0.69563514  1
  Zn  Zn143  1  0.93697004  0.43984453  0.19025707  1
  Zn  Zn144  1  0.93729149  0.44389923  0.68697488  1
  Zn  Zn145  1  0.93843156  0.93559707  0.18667494  1
  Zn  Zn146  1  0.93397840  0.94430508  0.67912583  1
  Zn  Zn147  1  0.05876439  0.06472950  0.31333991  1
  Zn  Zn148  1  0.05864371  0.07392796  0.80825502  1
  Zn  Zn149  1  0.06573442  0.56345389  0.31277112  1
  Zn  Zn150  1  0.06122295  0.56395322  0.80857748  1
  Zn  Zn151  1  0.56744876  0.06042243  0.30995044  1
  Zn  Zn152  1  0.56360271  0.05754741  0.81268974  1
  Zn  Zn153  1  0.56064070  0.56398749  0.30884995  1
  Zn  Zn154  1  0.56004573  0.56331169  0.81242605  1
  Zn  Zn155  1  0.44114070  0.18374269  0.43830318  1
  Zn  Zn156  1  0.40764084  0.14054439  0.96135294  1
  Zn  Zn157  1  0.43227061  0.68202217  0.44306667  1
  Zn  Zn158  1  0.44016521  0.69033430  0.94132085  1
  Zn  Zn159  1  0.93414690  0.19634346  0.43611558  1
  Zn  Zn160  1  0.93785949  0.19026409  0.93576547  1
  Zn  Zn161  1  0.93531269  0.68832780  0.43968102  1
  Zn  Zn162  1  0.93989716  0.68852484  0.93477146  1
  Zn  Zn163  1  0.06412867  0.31593169  0.06198008  1
  Zn  Zn164  1  0.07120549  0.31245056  0.55730575  1
  Zn  Zn165  1  0.06287056  0.81145178  0.06223485  1
  Zn  Zn166  1  0.06245091  0.81089152  0.56252368  1
  Zn  Zn167  1  0.56357692  0.30766409  0.06242200  1
  Zn  Zn168  1  0.51801562  0.32731210  0.58194101  1
  Zn  Zn169  1  0.56375011  0.81371405  0.06197263  1
  Zn  Zn170  1  0.56049047  0.81365770  0.55853612  1
  O  O171  1  0.11371177  0.11764290  0.12193100  1
  O  O172  1  0.11934275  0.11601145  0.61377560  1
  O  O173  1  0.12006279  0.61992112  0.12000247  1
  O  O174  1  0.11714616  0.62199722  0.61777226  1
  O  O175  1  0.61056827  0.12228306  0.13418954  1
  O  O176  1  0.61980274  0.11255964  0.61786033  1
  O  O177  1  0.61099421  0.62913522  0.12702679  1
  O  O178  1  0.61878794  0.61983124  0.62450733  1
  O  O179  1  0.38433051  0.38731526  0.36789977  1
  O  O180  1  0.38387388  0.38212651  0.87995249  1
  O  O181  1  0.39860081  0.86961185  0.31903479  1
  O  O182  1  0.37982179  0.88056173  0.87700933  1
  O  O183  1  0.89367511  0.37585721  0.37053611  1
  O  O184  1  0.87965097  0.38100689  0.88026266  1
  O  O185  1  0.87876566  0.87231279  0.38581372  1
  O  O186  1  0.86952947  0.88593753  0.88182510  1
  O  O187  1  0.24151620  0.01084482  0.36269202  1
  O  O188  1  0.23249883  -0.01180340  0.86046136  1
  O  O189  1  0.25651901  0.51116804  0.37834077  1
  O  O190  1  0.25710230  0.50388925  0.87263022  1
  O  O191  1  0.74592548  0.01007935  0.38082947  1
  O  O192  1  0.75830222  0.00637546  0.86591768  1
  O  O193  1  0.75058094  0.50361579  0.36822852  1
  O  O194  1  0.75606188  0.50839530  0.87419154  1
  O  O195  1  0.24276621  0.49080970  0.11905937  1
  O  O196  1  0.23487085  0.50932551  0.62949789  1
  O  O197  1  0.23390243  1.00735541  0.14050277  1
  O  O198  1  0.24264538  0.98853312  0.61714387  1
  O  O199  1  0.75067394  0.49151535  0.13312263  1
  O  O200  1  0.73384553  0.49081727  0.63005065  1
  O  O201  1  0.75703105  0.98702672  0.12456113  1
  O  O202  1  0.74340608  0.99395983  0.62947815  1
  O  O203  1  -0.00133481  0.36432809  0.25372440  1
  O  O204  1  -0.00663625  0.37680368  0.76403618  1
  O  O205  1  0.00375097  0.87232796  0.25845479  1
  O  O206  1  -0.00839525  0.86400514  0.73977909  1
  O  O207  1  0.50317051  0.36704596  0.25874335  1
  O  O208  1  0.49805770  0.36358983  0.76202129  1
  O  O209  1  0.52943015  0.86310684  0.23143033  1
  O  O210  1  0.49833359  0.87121185  0.77140944  1
  O  O211  1  0.49311184  0.13188538  0.24813782  1
  O  O212  1  0.49914354  0.12565870  0.74417237  1
  O  O213  1  0.48933205  0.62915875  0.24348168  1
  O  O214  1  0.49556930  0.63082163  0.73957572  1
  O  O215  1  0.99289070  0.13534138  0.24620396  1
  O  O216  1  0.98859621  0.12576964  0.73537030  1
  O  O217  1  0.99369301  0.62506659  0.24396702  1
  O  O218  1  0.98920139  0.63354887  0.74585228  1
  O  O219  1  0.36551179  0.24322220  0.01189291  1
  O  O220  1  0.36964515  0.25559797  0.48652201  1
  O  O221  1  0.36703164  0.74704447  0.01100716  1
  O  O222  1  0.36318492  0.74293944  0.51366822  1
  O  O223  1  0.87474511  0.25662899  0.00894292  1
  O  O224  1  0.87051728  0.26087027  0.49929648  1
  O  O225  1  0.87011220  0.75756894  -0.00342411  1
  O  O226  1  0.86531172  0.75815817  0.50293071  1
  O  O227  1  0.12260122  0.23636058  0.48819296  1
  O  O228  1  0.13019854  0.24420526  1.00007249  1
  O  O229  1  0.13652733  0.73999851  0.50654331  1
  O  O230  1  0.13037025  0.74583180  0.99256747  1
  O  O231  1  0.62280394  0.23376084  0.49164862  1
  O  O232  1  0.62831659  0.24454316  0.98857716  1
  O  O233  1  0.63181476  0.74496975  0.49457037  1
  O  O234  1  0.63668832  0.74671413  0.98916845  1
  O  O235  1  0.49406985  0.24902203  0.13848190  1
  O  O236  1  0.51343581  0.23155392  0.64118132  1
  O  O237  1  0.48599109  0.74242816  0.11665995  1
  O  O238  1  0.49242206  0.74600381  0.62567041  1
  O  O239  1  0.99602475  0.24802630  0.13147307  1
  O  O240  1  1.00509428  0.23794832  0.61832284  1
  O  O241  1  0.99952518  0.73538495  0.12531422  1
  O  O242  1  0.99930898  0.74066055  0.63274069  1
  O  O243  1  0.01020251  0.25845302  0.36674092  1
  O  O244  1  0.00148500  0.26713156  0.87584187  1
  O  O245  1  -0.00308594  0.76323921  0.37550646  1
  O  O246  1  0.01390397  0.74814860  0.86738917  1
  O  O247  1  0.50880732  0.25349687  0.36710470  1
  O  O248  1  0.50877162  0.25495915  0.87051074  1
  O  O249  1  0.51475966  0.73842448  0.38268859  1
  O  O250  1  0.51758962  0.74693618  0.87351161  1
  O  O251  1  0.24136216  0.11632111  0.48834377  1
  O  O252  1  0.23278476  0.13744213  1.01504974  1
  O  O253  1  0.24205105  0.63346120  0.49097698  1
  O  O254  1  0.24432473  0.63207192  0.99130502  1
  O  O255  1  0.74127562  0.12654392  0.49373767  1
  O  O256  1  0.75484676  0.12756898  0.98442500  1
  O  O257  1  0.74401219  0.62962049  0.49888392  1
  O  O258  1  0.75315528  0.63312894  0.99194406  1
  O  O259  1  0.25411227  0.36486104  0.01256093  1
  O  O260  1  0.26095869  0.37902239  0.50379159  1
  O  O261  1  0.24774905  0.86112114  0.00540419  1
  O  O262  1  0.24612862  0.86679819  0.50371842  1
  O  O263  1  0.75748409  0.37309141  0.00816496  1
  O  O264  1  0.73911394  0.37042617  0.52006270  1
  O  O265  1  0.76289658  0.86775523  0.00617453  1
  O  O266  1  0.75362449  0.87193659  0.50653034  1
  O  O267  1  0.12583305  0.50432813  0.23602834  1
  O  O268  1  0.12561612  0.50552793  0.73518321  1
  O  O269  1  0.12499910  0.99564716  0.24466228  1
  O  O270  1  0.11869837  0.99778407  0.74090746  1
  O  O271  1  0.63857882  0.49936031  0.24707650  1
  O  O272  1  0.62371297  0.49320637  0.74517821  1
  O  O273  1  0.62799004  0.98333645  0.24651828  1
  O  O274  1  0.63920830  1.00410219  0.74108205  1
  O  O275  1  0.36013413  0.01716933  0.24222399  1
  O  O276  1  0.37276464  0.01106567  0.75444411  1
  O  O277  1  0.37570731  0.51139016  0.25992930  1
  O  O278  1  0.38255442  0.51529572  0.76208804  1
  O  O279  1  0.88346725  0.01473215  0.24810016  1
  O  O280  1  0.86572552  0.00788115  0.75282314  1
  O  O281  1  0.86568581  0.50980498  0.25230289  1
  O  O282  1  0.87233604  0.51070175  0.75747184  1
  O  O283  1  0.11763766  0.36781626  0.37820634  1
  O  O284  1  0.11344740  0.37792405  0.87927373  1
  O  O285  1  0.11319535  0.87966007  0.36416604  1
  O  O286  1  0.12944519  0.87273936  0.86426504  1
  O  O287  1  0.62145155  0.36629912  0.37116699  1
  O  O288  1  0.61943960  0.36821552  0.87129528  1
  O  O289  1  0.63284190  0.86515278  0.36128323  1
  O  O290  1  0.63283864  0.86379764  0.87430874  1
  O  O291  1  0.38347508  0.13627268  0.13602467  1
  O  O292  1  0.38742467  0.11806247  0.63418498  1
  O  O293  1  0.38357221  0.62196505  0.13087791  1
  O  O294  1  0.38098407  0.62874469  0.63104456  1
  O  O295  1  0.87904316  0.13114871  0.13064859  1
  O  O296  1  0.88259484  0.11998957  0.63071297  1
  O  O297  1  0.88456621  0.62355691  0.13268753  1
  O  O298  1  0.87991845  0.62595681  0.63303673  1
  O  O299  1  0.25655890  0.25537156  0.12189211  1
  O  O300  1  0.26294314  0.25258075  0.61034805  1
  O  O301  1  0.26514010  0.74265265  0.11450629  1
  O  O302  1  0.25459368  0.76095230  0.61849941  1
  O  O303  1  0.75623923  0.25658722  0.12571459  1
  O  O304  1  0.73844639  0.26317244  0.62907789  1
  O  O305  1  0.75491922  0.75205968  0.11184290  1
  O  O306  1  0.74969168  0.75935991  0.62048233  1
  O  O307  1  0.23746057  0.24103663  0.36810164  1
  O  O308  1  0.24879258  0.25575528  0.89190030  1
  O  O309  1  0.25337682  0.74237421  0.38483418  1
  O  O310  1  0.24135569  0.74686827  0.88037540  1
  O  O311  1  0.73841054  0.24758940  0.37575860  1
  O  O312  1  0.74290161  0.24199056  0.87316606  1
  O  O313  1  0.74349210  0.74130805  0.38361777  1
  O  O314  1  0.74458666  0.74484626  0.88163018  1
  O  O315  1  0.00322609  0.12179122  0.00697633  1
  O  O316  1  0.00421559  0.11926744  0.49966741  1
  O  O317  1  0.00529496  0.62012296  0.00650077  1
  O  O318  1  0.00801830  0.63292609  0.50889453  1
  O  O319  1  0.50369523  0.13403752  0.02480409  1
  O  O320  1  0.50569240  0.11742861  0.50906467  1
  O  O321  1  0.50146281  0.62183722  0.01015027  1
  O  O322  1  0.50602814  0.62510090  0.51466147  1
  O  O323  1  0.51089502  0.37855143  0.48157113  1
  O  O324  1  0.49846704  0.37246703  0.98989164  1
  O  O325  1  0.50361011  0.88998335  0.49822184  1
  O  O326  1  0.50713937  0.86512834  0.97651821  1
  O  O327  1  1.00356104  0.37309905  0.48460112  1
  O  O328  1  0.99484938  0.38171347  0.99135971  1
  O  O329  1  0.99245890  0.88087521  0.49457027  1
  O  O330  1  0.98887989  0.88048868  1.00247741  1
  O  O331  1  0.49363790  0.49329106  0.37373995  1
  O  O332  1  0.49397360  0.49076163  0.87653866  1
  O  O333  1  0.50261886  1.00592530  0.38568035  1
  O  O334  1  0.49898067  0.99063799  0.87779800  1
  O  O335  1  1.00203960  0.48464186  0.36663121  1
  O  O336  1  0.99618661  0.49222892  0.87841820  1
  O  O337  1  1.00221939  0.99185534  0.38596772  1
  O  O338  1  0.98780704  1.00695966  0.87658562  1
  O  O339  1  0.00259065  0.00781434  0.11827020  1
  O  O340  1  0.00618899  0.00822923  0.61156781  1
  O  O341  1  0.00667196  0.50852463  0.12175051  1
  O  O342  1  0.00781706  0.51538609  0.63023274  1
  O  O343  1  0.49438190  0.01243608  0.13906214  1
  O  O344  1  0.50723248  0.00284041  0.62467809  1
  O  O345  1  0.50195592  0.50799759  0.12583868  1
  O  O346  1  0.50972160  0.50910492  0.62475892  1
  O  O347  1  0.25478945  0.36853026  0.23791147  1
  O  O348  1  0.29145695  0.38140890  0.73704034  1
  O  O349  1  0.23505571  0.88667902  0.25337525  1
  O  O350  1  0.24565189  0.87254253  0.74134776  1
  O  O351  1  0.75317605  0.38200136  0.24396163  1
  O  O352  1  0.73807869  0.37580104  0.74209090  1
  O  O353  1  0.74425354  0.86652774  0.23879637  1
  O  O354  1  0.75814537  0.88332150  0.73629049  1
  O  O355  1  0.25514370  0.12256951  0.25857169  1
  O  O356  1  0.26074440  0.12547481  0.73519157  1
  O  O357  1  0.25442407  0.62954424  0.26175613  1
  O  O358  1  0.25939446  0.62813675  0.75704120  1
  O  O359  1  0.76021309  0.12730415  0.26043037  1
  O  O360  1  0.75528874  0.12013831  0.75609926  1
  O  O361  1  0.75758996  0.61792510  0.25390552  1
  O  O362  1  0.76132112  0.62575595  0.75726370  1
  O  O363  1  0.36458506  0.13018948  0.36817051  1
  O  O364  1  0.36669904  0.12604201  0.85509101  1
  O  O365  1  0.36751526  0.62154083  0.36599189  1
  O  O366  1  0.37193068  0.62123656  0.86902536  1
  O  O367  1  0.86546665  0.13032649  0.36656644  1
  O  O368  1  0.86967200  0.12047260  0.86513199  1
  O  O369  1  0.87010635  0.62122394  0.36890779  1
  O  O370  1  0.86705058  0.62195159  0.86918478  1
  O  O371  1  0.13372246  0.38574271  0.12169640  1
  O  O372  1  0.11858945  0.39485287  0.61898010  1
  O  O373  1  0.11320831  0.88989503  0.13253518  1
  O  O374  1  0.13015946  0.88891107  0.61781437  1
  O  O375  1  0.63876208  0.37223257  0.12714229  1
  O  O376  1  0.61773883  0.38157372  0.63370588  1
  O  O377  1  0.64065060  0.87084888  0.13016462  1
  O  O378  1  0.63311593  0.88590983  0.61920957  1
  O  O379  1  0.11471864  0.24405120  0.25791121  1
  O  O380  1  0.11869029  0.24281637  0.75026745  1
  O  O381  1  0.12377127  0.76419642  0.24067029  1
  O  O382  1  0.11635063  0.74679940  0.75716024  1
  O  O383  1  0.61713658  0.24998336  0.25864516  1
  O  O384  1  0.61630996  0.25290584  0.76270970  1
  O  O385  1  0.63429754  0.75446648  0.26299113  1
  O  O386  1  0.62823063  0.74883713  0.76505040  1
  O  O387  1  0.38183678  0.24217249  0.24748487  1
  O  O388  1  0.38807496  0.23507577  0.75208818  1
  O  O389  1  0.36995394  0.73488848  0.23267117  1
  O  O390  1  0.37748871  0.73912367  0.73979790  1
  O  O391  1  0.88373780  0.24386389  0.24319174  1
  O  O392  1  0.87915508  0.24028165  0.75192404  1
  O  O393  1  0.87621467  0.73573273  0.24902838  1
  O  O394  1  0.88190166  0.74339197  0.74924072  1
  O  O395  1  0.37932004  0.51254600  0.48391137  1
  O  O396  1  0.37699192  0.49950672  0.98669759  1
  O  O397  1  0.38922022  1.00294748  0.50032189  1
  O  O398  1  0.36735619  1.03352194  0.98505157  1
  O  O399  1  0.87037582  0.48655354  0.50035823  1
  O  O400  1  0.88282355  0.49529704  0.99486072  1
  O  O401  1  0.88267734  0.99213401  0.50268263  1
  O  O402  1  0.87983222  0.99430057  0.98931574  1
  O  O403  1  0.11683139  0.00878724  0.00921370  1
  O  O404  1  0.11664208  0.00902372  0.50274776  1
  O  O405  1  0.11974744  0.50840504  0.00585986  1
  O  O406  1  0.12804691  0.51533747  0.51074615  1
  O  O407  1  0.63276127  0.00483621  0.01054989  1
  O  O408  1  0.61660258  0.00890868  0.50700329  1
  O  O409  1  0.62311420  0.50630439  0.00543781  1
  O  O410  1  0.62199982  0.50802571  0.50931911  1
  O  O411  1  0.37204664  0.36409252  0.12552661  1
  O  O412  1  0.40404844  0.36233764  0.60349081  1
  O  O413  1  0.38147110  0.86174161  0.13246094  1
  O  O414  1  0.36603885  0.86674282  0.63143256  1
  O  O415  1  0.86669654  0.37134346  0.12140822  1
  O  O416  1  0.85557253  0.37908998  0.63369584  1
  O  O417  1  0.87198456  0.86999590  0.11710024  1
  O  O418  1  0.86585361  0.87536951  0.61154127  1
  O  O419  1  0.13044699  0.13142131  0.37960936  1
  O  O420  1  0.11816117  0.12787649  0.88959460  1
  O  O421  1  0.13217208  0.62281589  0.38285291  1
  O  O422  1  0.12967629  0.63275203  0.87813974  1
  O  O423  1  0.63246925  0.12984736  0.37969993  1
  O  O424  1  0.63333558  0.13048994  0.87442167  1
  O  O425  1  0.63192885  0.62886913  0.37974182  1
  O  O426  1  0.63872589  0.62953620  0.87323729  1
