# generated using pymatgen
data_V85Zn86O256
_symmetry_space_group_name_H-M   'P 1'
_cell_length_a   16.92740823
_cell_length_b   16.93304026
_cell_length_c   16.93281373
_cell_angle_alpha   90.00827042
_cell_angle_beta   90.02468285
_cell_angle_gamma   90.00334167
_symmetry_Int_Tables_number   1
_chemical_formula_structural   V85Zn86O256
_chemical_formula_sum   'V85 Zn86 O256'
_cell_volume   4853.49396918
_cell_formula_units_Z   1
loop_
 _symmetry_equiv_pos_site_id
 _symmetry_equiv_pos_as_xyz
  1  'x, y, z'
loop_
 _atom_site_type_symbol
 _atom_site_label
 _atom_site_symmetry_multiplicity
 _atom_site_fract_x
 _atom_site_fract_y
 _atom_site_fract_z
 _atom_site_occupancy
  V  V0  1  0.49431842  0.37862182  0.38132450  1
  V  V1  1  0.74719919  0.24956801  0.50052968  1
  V  V2  1  0.37153199  0.49593133  0.38643810  1
  V  V3  1  0.62393361  0.37442956  0.75446252  1
  V  V4  1  0.00058395  0.37542461  0.37419882  1
  V  V5  1  0.86871149  0.87625026  0.50187028  1
  V  V6  1  0.75278117  0.86829830  0.11998420  1
  V  V7  1  -0.00200409  0.50047052  0.50073907  1
  V  V8  1  0.37431019  0.25372655  0.62654254  1
  V  V9  1  0.36996075  0.87501755  0.51425010  1
  V  V10  1  0.86714080  0.63577112  0.24215473  1
  V  V11  1  0.87731277  0.12457726  0.24951400  1
  V  V12  1  0.49661152  0.86573405  0.37087696  1
  V  V13  1  0.12910962  0.62264828  -0.00061221  1
  V  V14  1  0.62583892  0.38091723  0.25068503  1
  V  V15  1  0.13616558  -0.00448069  0.62330570  1
  V  V16  1  0.37526675  -0.00214129  0.37390303  1
  V  V17  1  0.74947746  -0.01686072  0.74840283  1
  V  V18  1  0.87694294  0.12349365  0.75348910  1
  V  V19  1  0.24393509  0.11896155  0.89267769  1
  V  V20  1  0.25790643  0.75780578  0.00651821  1
  V  V21  1  0.87543331  0.24774691  0.62406973  1
  V  V22  1  0.37731862  0.50650166  0.87859832  1
  V  V23  1  0.12523310  0.62545466  0.50052983  1
  V  V24  1  0.63098129  -0.01520809  0.62593866  1
  V  V25  1  0.75459806  0.11978388  0.87464418  1
  V  V26  1  0.37667737  0.62227830  0.24855170  1
  V  V27  1  0.37066362  0.35729296  -0.00116160  1
  V  V28  1  0.12491009  0.24808576  0.37793213  1
  V  V29  1  -0.00065984  0.62714895  0.62538106  1
  V  V30  1  0.50168217  -0.00106289  0.50001381  1
  V  V31  1  0.87716103  0.62766613  0.74932736  1
  V  V32  1  0.50651473  0.73233590  0.74599470  1
  V  V33  1  0.74507694  0.74812495  0.49766366  1
  V  V34  1  0.86672960  0.50050708  0.36331106  1
  V  V35  1  0.00379309  0.12348112  0.11183703  1
  V  V36  1  0.00875875  0.25757211  0.75157899  1
  V  V37  1  0.12306279  0.00162982  0.11390321  1
  V  V38  1  0.50213283  0.12824506  0.62779552  1
  V  V39  1  0.75553419  0.25021022  -0.00046409  1
  V  V40  1  0.62718712  0.12492142  0.00050940  1
  V  V41  1  0.62486119  0.12573316  0.50137472  1
  V  V42  1  0.87538014  -0.00035825  0.37482696  1
  V  V43  1  0.74946821  0.12476515  0.37526828  1
  V  V44  1  0.49815180  0.12772686  0.12310025  1
  V  V45  1  0.49491245  0.25193654  0.24768940  1
  V  V46  1  0.14669639  0.87998763  0.74773909  1
  V  V47  1  0.61080106  0.61789766  0.50137129  1
  V  V48  1  0.62291352  0.62824290  -0.00140821  1
  V  V49  1  0.87882968  0.50075889  0.87586288  1
  V  V50  1  0.74639624  0.37695695  0.62600114  1
  V  V51  1  0.62460002  0.50363890  0.12945666  1
  V  V52  1  0.87019983  0.75553767  0.62486142  1
  V  V53  1  0.24583485  0.37329414  0.62869280  1
  V  V54  1  0.89094977  0.87285402  0.00110993  1
  V  V55  1  0.49954443  0.88608062  0.86481784  1
  V  V56  1  0.12964899  0.38560662  0.25165030  1
  V  V57  1  0.24981847  -0.00462260  0.24428143  1
  V  V58  1  0.87613846  0.25134048  0.12797702  1
  V  V59  1  0.62600221  0.24854567  0.87593078  1
  V  V60  1  0.74957686  0.62841435  0.87504978  1
  V  V61  1  0.24625504  0.12439988  0.37934721  1
  V  V62  1  0.62106921  0.86824806  0.24861451  1
  V  V63  1  0.87237358  0.37734552  0.49886299  1
  V  V64  1  0.12764512  0.75693199  0.87517457  1
  V  V65  1  0.74982491  0.37939685  0.12820804  1
  V  V66  1  0.74914885  0.50122343  0.74774576  1
  V  V67  1  0.00257474  0.76370973  0.75128665  1
  V  V68  1  0.37290722  0.12834636  0.24678922  1
  V  V69  1  0.89375078  -0.00337110  0.87920066  1
  V  V70  1  0.88066333  0.37729610  0.00031449  1
  V  V71  1  0.62170715  0.25026865  0.37601028  1
  V  V72  1  0.00483319  0.00087681  0.49942450  1
  V  V73  1  0.62781132  0.00012860  0.12481569  1
  V  V74  1  0.12578741  0.87506406  0.24539473  1
  V  V75  1  0.37240211  0.72814527  0.63344259  1
  V  V76  1  0.25227265  0.50140383  0.75361340  1
  V  V77  1  0.25329865  0.25468582  0.49914137  1
  V  V78  1  0.12309193  0.75153787  0.37513481  1
  V  V79  1  0.24644032  0.61990692  0.36640749  1
  V  V80  1  0.00626555  0.12305253  0.62244044  1
  V  V81  1  0.25888765  0.37139649  0.12893629  1
  V  V82  1  0.12198756  0.49545798  0.63517480  1
  V  V83  1  0.49866587  0.63672567  0.12836084  1
  V  V84  1  0.36143403  0.11194755  0.75369255  1
  Zn  Zn85  1  0.37343250  0.76196801  0.13950976  1
  Zn  Zn86  1  0.25507962  0.62963892  0.86983963  1
  Zn  Zn87  1  -0.00290047  0.63007034  0.12289936  1
  Zn  Zn88  1  0.12861680  0.50336935  0.13078129  1
  Zn  Zn89  1  0.00350589  0.25011066  0.25050679  1
  Zn  Zn90  1  0.59736917  0.51834172  0.63262226  1
  Zn  Zn91  1  0.49803007  0.00038050  -0.00835193  1
  Zn  Zn92  1  0.14728381  0.25354102  0.90861556  1
  Zn  Zn93  1  -0.00481646  0.75341371  0.24290671  1
  Zn  Zn94  1  0.01648052  0.37984017  0.86817654  1
  Zn  Zn95  1  0.49364751  0.24704413  0.75652011  1
  Zn  Zn96  1  -0.00096319  0.87354684  0.37398230  1
  Zn  Zn97  1  0.37597846  0.88782052  0.00130471  1
  Zn  Zn98  1  0.24699184  0.75329202  0.50668924  1
  Zn  Zn99  1  0.75489939  0.75122418  -0.00030783  1
  Zn  Zn100  1  0.74299020  0.61991546  0.37294044  1
  Zn  Zn101  1  0.61951987  0.74489979  0.37227572  1
  Zn  Zn102  1  0.00273298  0.50414646  0.00265756  1
  Zn  Zn103  1  0.75103035  -0.00160322  0.24936771  1
  Zn  Zn104  1  0.49629440  0.49818706  0.00432209  1
  Zn  Zn105  1  0.49854585  0.37158373  0.88086848  1
  Zn  Zn106  1  0.62609893  0.75820899  0.86713287  1
  Zn  Zn107  1  0.18633471  0.19032561  0.18587342  1
  Zn  Zn108  1  0.18588432  0.18435083  0.68782148  1
  Zn  Zn109  1  0.18766797  0.68964833  0.18582442  1
  Zn  Zn110  1  0.19000120  0.68712004  0.68783959  1
  Zn  Zn111  1  0.68802089  0.19025906  0.18939418  1
  Zn  Zn112  1  0.68953239  0.18483056  0.68874842  1
  Zn  Zn113  1  0.68982000  0.68836011  0.18885321  1
  Zn  Zn114  1  0.68763398  0.68949339  0.68330696  1
  Zn  Zn115  1  0.31069306  0.31482124  0.30891655  1
  Zn  Zn116  1  0.30679128  0.30996497  0.81212473  1
  Zn  Zn117  1  0.30916859  0.80950626  0.31539220  1
  Zn  Zn118  1  0.32114250  0.81206986  0.81372918  1
  Zn  Zn119  1  0.81035763  0.31308453  0.31185139  1
  Zn  Zn120  1  0.81725127  0.31100119  0.81376000  1
  Zn  Zn121  1  0.80616646  0.81512123  0.31415452  1
  Zn  Zn122  1  0.81809874  0.81348103  0.81832242  1
  Zn  Zn123  1  0.18878501  0.43785822  0.44236965  1
  Zn  Zn124  1  0.19286998  0.43419139  0.93937139  1
  Zn  Zn125  1  0.18879649  0.93676954  0.43575683  1
  Zn  Zn126  1  0.19239650  0.93912412  0.93098228  1
  Zn  Zn127  1  0.68197943  0.43840697  0.43929420  1
  Zn  Zn128  1  0.69034883  0.44147844  0.94129116  1
  Zn  Zn129  1  0.68674618  0.93559002  0.43682566  1
  Zn  Zn130  1  0.68429006  0.93539098  0.93547384  1
  Zn  Zn131  1  0.31292923  0.06218630  0.06187309  1
  Zn  Zn132  1  0.31624641  0.06690157  0.56086082  1
  Zn  Zn133  1  0.30831854  0.55971743  0.06349681  1
  Zn  Zn134  1  0.30705467  0.56041292  0.55940027  1
  Zn  Zn135  1  0.81733788  0.05884619  0.06050633  1
  Zn  Zn136  1  0.81331164  0.06072854  0.56484332  1
  Zn  Zn137  1  0.80803396  0.56149807  0.06282379  1
  Zn  Zn138  1  0.80743241  0.56445342  0.56015450  1
  Zn  Zn139  1  0.43403554  0.44447544  0.19010842  1
  Zn  Zn140  1  0.43296000  0.43813120  0.69376450  1
  Zn  Zn141  1  0.43786059  0.93895027  0.18163391  1
  Zn  Zn142  1  0.44617879  0.93663270  0.68989296  1
  Zn  Zn143  1  0.94590857  0.44264560  0.18534181  1
  Zn  Zn144  1  0.93411928  0.43771617  0.68651429  1
  Zn  Zn145  1  0.94077831  0.93582975  0.18538718  1
  Zn  Zn146  1  0.93699713  0.93950957  0.68553095  1
  Zn  Zn147  1  0.06217547  0.06277792  0.30966581  1
  Zn  Zn148  1  0.07290857  0.06423416  0.81055771  1
  Zn  Zn149  1  0.05398009  0.56569729  0.31209613  1
  Zn  Zn150  1  0.06380831  0.56896760  0.81460948  1
  Zn  Zn151  1  0.56204037  0.05809548  0.31047281  1
  Zn  Zn152  1  0.56736306  0.06251194  0.80626091  1
  Zn  Zn153  1  0.55608825  0.56287724  0.31465813  1
  Zn  Zn154  1  0.56051045  0.56014677  0.81633704  1
  Zn  Zn155  1  0.43560416  0.18957482  0.43780709  1
  Zn  Zn156  1  0.43428238  0.17938036  0.93380958  1
  Zn  Zn157  1  0.43089357  0.68782626  0.43964088  1
  Zn  Zn158  1  0.44103175  0.68980137  0.93517818  1
  Zn  Zn159  1  0.93922881  0.18667392  0.43877578  1
  Zn  Zn160  1  0.97397567  0.20334455  0.95333209  1
  Zn  Zn161  1  0.93608663  0.68641722  0.43386526  1
  Zn  Zn162  1  0.94377544  0.69323368  0.93725823  1
  Zn  Zn163  1  0.06636750  0.31463719  0.06687616  1
  Zn  Zn164  1  0.06459628  0.31094056  0.56092157  1
  Zn  Zn165  1  0.06681500  0.80915427  0.06679683  1
  Zn  Zn166  1  0.06020138  0.81612286  0.56331969  1
  Zn  Zn167  1  0.55931777  0.31302368  0.06200814  1
  Zn  Zn168  1  0.53655258  0.34781052  0.58383965  1
  Zn  Zn169  1  0.56068761  0.81504078  0.05500365  1
  Zn  Zn170  1  0.55572493  0.80580451  0.56213542  1
  O  O171  1  0.11596057  0.11387141  0.13270994  1
  O  O172  1  0.11226931  0.11470814  0.62936528  1
  O  O173  1  0.13041664  0.62434536  0.10988292  1
  O  O174  1  0.11892745  0.61881167  0.61991154  1
  O  O175  1  0.62277602  0.11983666  0.12157540  1
  O  O176  1  0.61795347  0.12404592  0.61916047  1
  O  O177  1  0.62018656  0.62084066  0.12145417  1
  O  O178  1  0.62829150  0.62515762  0.60880675  1
  O  O179  1  0.37841765  0.38811339  0.36807849  1
  O  O180  1  0.37353682  0.37673665  0.88761456  1
  O  O181  1  0.38052956  0.88003987  0.37918292  1
  O  O182  1  0.39386667  0.86977357  0.87893854  1
  O  O183  1  0.87821672  0.38374577  0.37732671  1
  O  O184  1  0.87386709  0.38573243  0.88326745  1
  O  O185  1  0.87552744  0.88357750  0.38098136  1
  O  O186  1  0.87671105  0.88806714  0.88446717  1
  O  O187  1  0.25419611  0.00856971  0.36794580  1
  O  O188  1  0.24955767  0.01752928  0.87431077  1
  O  O189  1  0.25977463  0.50519384  0.37903920  1
  O  O190  1  0.25996362  0.50026642  0.86918140  1
  O  O191  1  0.75857162  0.00709547  0.37546210  1
  O  O192  1  0.75186979  0.00563497  0.86532969  1
  O  O193  1  0.76424742  0.49646899  0.37978634  1
  O  O194  1  0.75963620  0.51029040  0.87030210  1
  O  O195  1  0.24344361  0.48175402  0.11872097  1
  O  O196  1  0.24267190  0.49203300  0.62974720  1
  O  O197  1  0.23773088  1.01186600  0.13889100  1
  O  O198  1  0.23427791  1.00543957  0.60976449  1
  O  O199  1  0.73426602  0.49399705  0.12247435  1
  O  O200  1  0.75023705  0.48997187  0.63144156  1
  O  O201  1  0.73928590  0.99487969  0.12397239  1
  O  O202  1  0.74305650  1.00354076  0.63455531  1
  O  O203  1  0.00745546  0.37274367  0.25871533  1
  O  O204  1  -0.00471588  0.36174912  0.74521605  1
  O  O205  1  0.00952931  0.87428724  0.25494461  1
  O  O206  1  0.00148989  0.86483368  0.74589488  1
  O  O207  1  0.50549888  0.36759667  0.25325163  1
  O  O208  1  0.51553100  0.36729396  0.75783481  1
  O  O209  1  0.50865905  0.88490960  0.26006848  1
  O  O210  1  0.49810190  0.86472779  0.76024593  1
  O  O211  1  0.49402052  0.13190955  0.24602274  1
  O  O212  1  0.49737906  0.12759056  0.73768435  1
  O  O213  1  0.49110852  0.62426038  0.24099950  1
  O  O214  1  0.50428110  0.63200993  0.74576809  1
  O  O215  1  0.98744940  0.12700467  0.24646630  1
  O  O216  1  0.99173834  0.13119166  0.74372446  1
  O  O217  1  0.98079078  0.62780819  0.25127829  1
  O  O218  1  0.99535675  0.63526973  0.74368919  1
  O  O219  1  0.38079736  0.25920085  -0.00005374  1
  O  O220  1  0.36121042  0.24383424  0.50799337  1
  O  O221  1  0.36109944  0.74551984  -0.00269767  1
  O  O222  1  0.37592906  0.75961160  0.51478233  1
  O  O223  1  0.87502457  0.25953334  0.00658691  1
  O  O224  1  0.86881991  0.25759874  0.50356576  1
  O  O225  1  0.87349082  0.76831999  -0.01074058  1
  O  O226  1  0.86968157  0.75627013  0.50483846  1
  O  O227  1  0.13556375  0.25276234  0.48764707  1
  O  O228  1  0.07895949  0.23125546  0.99599537  1
  O  O229  1  0.12426789  0.74502915  0.49524084  1
  O  O230  1  0.13544334  0.74721236  0.99158673  1
  O  O231  1  0.63186573  0.24224046  0.49199086  1
  O  O232  1  0.63359289  0.24795452  0.99145148  1
  O  O233  1  0.63076369  0.74313163  0.49900675  1
  O  O234  1  0.62873015  0.73697345  0.99663103  1
  O  O235  1  0.50887083  0.23678211  0.13418372  1
  O  O236  1  0.49058462  0.24621809  0.62609341  1
  O  O237  1  0.49972987  0.73894136  0.12093952  1
  O  O238  1  0.48616592  0.75406518  0.63746703  1
  O  O239  1  0.99089385  0.24115699  0.13175543  1
  O  O240  1  0.99518510  0.24256101  0.62905585  1
  O  O241  1  1.00395265  0.74394734  0.13021178  1
  O  O242  1  0.99016196  0.74585009  0.62950373  1
  O  O243  1  0.00821128  0.25625899  0.37680736  1
  O  O244  1  -0.01407527  0.25619886  0.85338006  1
  O  O245  1  0.01268386  0.74917173  0.37267511  1
  O  O246  1  0.01618014  0.74770117  0.86346663  1
  O  O247  1  0.50381961  0.25169924  0.36426684  1
  O  O248  1  0.51254473  0.24871730  0.87570205  1
  O  O249  1  0.49780583  0.76264130  0.37841835  1
  O  O250  1  0.50257114  0.74777893  0.85760341  1
  O  O251  1  0.25385794  0.13182946  0.48487318  1
  O  O252  1  0.24968191  0.12757576  0.99264502  1
  O  O253  1  0.23890239  0.62576139  0.49042072  1
  O  O254  1  0.24238548  0.63463490  0.99507437  1
  O  O255  1  0.74711261  0.12976189  0.49494801  1
  O  O256  1  0.74727718  0.12988619  0.99517104  1
  O  O257  1  0.74346002  0.63418526  0.49460728  1
  O  O258  1  0.74484665  0.62805035  0.99133002  1
  O  O259  1  0.26438445  0.37110905  0.00985937  1
  O  O260  1  0.24819004  0.36642958  0.51323745  1
  O  O261  1  0.25266949  0.86037044  -0.00811639  1
  O  O262  1  0.26694236  0.87271876  0.49295488  1
  O  O263  1  0.76096965  0.37181548  0.00646664  1
  O  O264  1  0.75088230  0.37052700  0.50831730  1
  O  O265  1  0.75495731  0.87435080  0.00578089  1
  O  O266  1  0.76121355  0.86850166  0.49692647  1
  O  O267  1  0.12081480  0.48893652  0.25691065  1
  O  O268  1  0.12687235  0.50218424  0.73994357  1
  O  O269  1  0.13283682  0.99207629  0.25025243  1
  O  O270  1  0.12267635  0.98586365  0.73996929  1
  O  O271  1  0.61950495  0.49072494  0.24474751  1
  O  O272  1  0.63018332  0.49122519  0.74870849  1
  O  O273  1  0.62933300  0.99231700  0.24186129  1
  O  O274  1  0.63842843  1.00418574  0.73770595  1
  O  O275  1  0.36759623  0.00758707  0.25410073  1
  O  O276  1  0.37940507  0.01532554  0.73920745  1
  O  O277  1  0.37420704  0.51420603  0.26149742  1
  O  O278  1  0.36688242  0.49056025  0.76699403  1
  O  O279  1  0.87417328  0.00710010  0.25652113  1
  O  O280  1  0.87162861  0.00397543  0.75886019  1
  O  O281  1  0.87653357  0.50396700  0.26082377  1
  O  O282  1  0.86948682  0.50589524  0.75666290  1
  O  O283  1  0.12136871  0.37045432  0.37199914  1
  O  O284  1  0.12655461  0.36378018  0.88534040  1
  O  O285  1  0.12401795  0.86689856  0.36793419  1
  O  O286  1  0.12930566  0.87106247  0.85794771  1
  O  O287  1  0.61696957  0.37264031  0.36706687  1
  O  O288  1  0.62996817  0.36797910  0.87120615  1
  O  O289  1  0.61550817  0.87582592  0.36681694  1
  O  O290  1  0.61009887  0.87178925  0.87643159  1
  O  O291  1  0.38383847  0.12360106  0.13927770  1
  O  O292  1  0.38254653  0.13337249  0.62985615  1
  O  O293  1  0.38224712  0.62353445  0.13205631  1
  O  O294  1  0.37644293  0.63006590  0.62051643  1
  O  O295  1  0.87673247  0.12872588  0.13452814  1
  O  O296  1  0.88500632  0.12603075  0.63298814  1
  O  O297  1  0.86966967  0.62094769  0.13953959  1
  O  O298  1  0.87936251  0.63197866  0.62973077  1
  O  O299  1  0.24295709  0.27003027  0.12734912  1
  O  O300  1  0.25118409  0.25355137  0.61847587  1
  O  O301  1  0.25207295  0.74930350  0.10967797  1
  O  O302  1  0.26661974  0.74488815  0.62434635  1
  O  O303  1  0.75601504  0.25726730  0.11912072  1
  O  O304  1  0.75765247  0.25306705  0.62017916  1
  O  O305  1  0.74754713  0.76471116  0.12253917  1
  O  O306  1  0.76311019  0.74655690  0.61494757  1
  O  O307  1  0.24641873  0.24651784  0.38111693  1
  O  O308  1  0.25218531  0.23028291  0.86916820  1
  O  O309  1  0.23763880  0.74029480  0.38100247  1
  O  O310  1  0.24212610  0.74830869  0.87686223  1
  O  O311  1  0.74304326  0.24487156  0.37986559  1
  O  O312  1  0.74882346  0.24171657  0.88134189  1
  O  O313  1  0.74544285  0.74942576  0.38783085  1
  O  O314  1  0.74752271  0.73821651  0.87162627  1
  O  O315  1  -0.02310949  0.10851299  0.01696760  1
  O  O316  1  -0.00646708  0.11422098  0.51024618  1
  O  O317  1  0.01533864  0.62665500  -0.00285458  1
  O  O318  1  0.00418821  0.62038286  0.50543966  1
  O  O319  1  0.50883013  0.12785706  0.00855547  1
  O  O320  1  0.50227003  0.12095099  0.50969627  1
  O  O321  1  0.50746777  0.62219046  0.00679563  1
  O  O322  1  0.51196114  0.62988780  0.49788765  1
  O  O323  1  0.49839658  0.35541639  0.47755872  1
  O  O324  1  0.48594620  0.37748090  1.00234014  1
  O  O325  1  0.48930162  0.87948897  0.49266499  1
  O  O326  1  0.50013359  0.87685225  0.98312471  1
  O  O327  1  0.99232066  0.37914404  0.49486708  1
  O  O328  1  0.98719374  0.38206211  1.00051892  1
  O  O329  1  0.98711532  0.88194528  0.49676027  1
  O  O330  1  0.98940362  0.87552328  1.00527738  1
  O  O331  1  0.48570173  0.49065058  0.37310318  1
  O  O332  1  0.48904628  0.49358193  0.87818748  1
  O  O333  1  0.49377543  0.99456615  0.38252815  1
  O  O334  1  0.50452332  0.99081956  0.86853902  1
  O  O335  1  0.98796759  0.49434739  0.38187130  1
  O  O336  1  0.98889192  0.49915293  0.87307754  1
  O  O337  1  0.99220299  1.00209598  0.38318175  1
  O  O338  1  0.99145670  1.00312922  0.86960514  1
  O  O339  1  0.01632533  0.00754455  0.13284643  1
  O  O340  1  0.00518421  0.00575120  0.61782066  1
  O  O341  1  0.00936854  0.51086023  0.12109701  1
  O  O342  1  0.00460263  0.50463343  0.62157262  1
  O  O343  1  0.51393723  0.01504882  0.13022632  1
  O  O344  1  0.51016609  0.00896528  0.61940217  1
  O  O345  1  0.51077961  0.50770415  0.12466163  1
  O  O346  1  0.50899535  0.45468442  0.61724544  1
  O  O347  1  0.24425891  0.37691498  0.24066104  1
  O  O348  1  0.24963993  0.38338555  0.73744983  1
  O  O349  1  0.24302958  0.88689268  0.25757325  1
  O  O350  1  0.24480128  0.87351893  0.74787899  1
  O  O351  1  0.73418607  0.36859774  0.24431717  1
  O  O352  1  0.74488125  0.37919177  0.74640368  1
  O  O353  1  0.74276073  0.87891956  0.24065568  1
  O  O354  1  0.75681983  0.88391422  0.75155051  1
  O  O355  1  0.25733668  0.12310329  0.25816804  1
  O  O356  1  0.26074203  0.11928413  0.74277944  1
  O  O357  1  0.24956314  0.62397532  0.26201952  1
  O  O358  1  0.24547398  0.60684426  0.75008704  1
  O  O359  1  0.76036178  0.12466091  0.25617583  1
  O  O360  1  0.76477575  0.12088474  0.75374076  1
  O  O361  1  0.76096679  0.62608179  0.25551411  1
  O  O362  1  0.75563227  0.62109350  0.75490294  1
  O  O363  1  0.37029548  0.11910526  0.36536443  1
  O  O364  1  0.36706343  0.12500121  0.85957920  1
  O  O365  1  0.36642093  0.61672996  0.37321103  1
  O  O366  1  0.37511784  0.60968393  0.87841392  1
  O  O367  1  0.87092989  0.12048764  0.36912346  1
  O  O368  1  0.87342100  0.11203638  0.86831754  1
  O  O369  1  0.87157748  0.61241889  0.36904442  1
  O  O370  1  0.87043224  0.62088792  0.87041490  1
  O  O371  1  0.12905610  0.37824439  0.13647333  1
  O  O372  1  0.13057793  0.38497035  0.62028425  1
  O  O373  1  0.12494236  0.88768011  0.13691984  1
  O  O374  1  0.12313726  0.88058213  0.63689776  1
  O  O375  1  0.62657309  0.38260684  0.13136112  1
  O  O376  1  0.64078907  0.35964834  0.63878952  1
  O  O377  1  0.62855090  0.88239042  0.12871892  1
  O  O378  1  0.62089484  0.88650431  0.61509385  1
  O  O379  1  0.12592721  0.26108491  0.26386418  1
  O  O380  1  0.10799379  0.24706299  0.74441416  1
  O  O381  1  0.12851072  0.75956411  0.25759323  1
  O  O382  1  0.12236078  0.76105423  0.75179124  1
  O  O383  1  0.61534560  0.25640587  0.25609678  1
  O  O384  1  0.63109232  0.25416221  0.76452554  1
  O  O385  1  0.62742356  0.76384142  0.25190421  1
  O  O386  1  0.61139609  0.74699859  0.74550491  1
  O  O387  1  0.38647850  0.24377479  0.25499949  1
  O  O388  1  0.37486398  0.24020898  0.74080780  1
  O  O389  1  0.36433138  0.73125763  0.25301044  1
  O  O390  1  0.38176272  0.74480565  0.73836696  1
  O  O391  1  0.87503688  0.24265022  0.24548819  1
  O  O392  1  0.87845743  0.24065286  0.74125347  1
  O  O393  1  0.87303434  0.73851270  0.25753525  1
  O  O394  1  0.88194424  0.74813651  0.74362381  1
  O  O395  1  0.37323740  0.50147177  0.48575872  1
  O  O396  1  0.37382817  0.49274118  0.98884974  1
  O  O397  1  0.38032784  0.99113007  0.49615268  1
  O  O398  1  0.38642095  1.00334336  1.00665661  1
  O  O399  1  0.87879705  0.49470387  0.49425006  1
  O  O400  1  0.87468756  0.49616925  0.99177126  1
  O  O401  1  0.88092965  0.99343713  0.49617549  1
  O  O402  1  0.87215221  0.99055802  0.98460506  1
  O  O403  1  0.13038271  -0.00751655  0.01612326  1
  O  O404  1  0.11075091  -0.01092317  0.50442927  1
  O  O405  1  0.12719801  0.51627579  -0.00729959  1
  O  O406  1  0.11710656  0.50613599  0.50904710  1
  O  O407  1  0.62160415  0.00798032  0.00791002  1
  O  O408  1  0.62210487  0.00714922  0.50519666  1
  O  O409  1  0.62368977  0.51106141  0.00768329  1
  O  O410  1  0.62633080  0.51451995  0.50255159  1
  O  O411  1  0.36741024  0.37828054  0.11833401  1
  O  O412  1  0.36430879  0.36001802  0.62979453  1
  O  O413  1  0.38140198  0.87124622  0.11708942  1
  O  O414  1  0.37745040  0.87896618  0.61413425  1
  O  O415  1  0.87100678  0.37369319  0.12128456  1
  O  O416  1  0.86328802  0.37004928  0.62018341  1
  O  O417  1  0.86691426  0.88771223  0.10934700  1
  O  O418  1  0.87891304  0.86681466  0.61559614  1
  O  O419  1  0.13412201  0.13492161  0.36752386  1
  O  O420  1  0.13931606  0.13061837  0.87142921  1
  O  O421  1  0.12819148  0.62880992  0.37937300  1
  O  O422  1  0.13004989  0.63575209  0.88254602  1
  O  O423  1  0.62910494  0.12806049  0.37960580  1
  O  O424  1  0.63308183  0.13130329  0.87878961  1
  O  O425  1  0.62415998  0.62580323  0.38413101  1
  O  O426  1  0.63402023  0.62233502  0.88244868  1
