# generated using pymatgen
data_V85Zn86O256
_symmetry_space_group_name_H-M   'P 1'
_cell_length_a   16.93327739
_cell_length_b   16.94709964
_cell_length_c   16.92907354
_cell_angle_alpha   90.00797718
_cell_angle_beta   89.92180529
_cell_angle_gamma   89.99412255
_symmetry_Int_Tables_number   1
_chemical_formula_structural   V85Zn86O256
_chemical_formula_sum   'V85 Zn86 O256'
_cell_volume   4858.13060586
_cell_formula_units_Z   1
loop_
 _symmetry_equiv_pos_site_id
 _symmetry_equiv_pos_as_xyz
  1  'x, y, z'
loop_
 _atom_site_type_symbol
 _atom_site_label
 _atom_site_symmetry_multiplicity
 _atom_site_fract_x
 _atom_site_fract_y
 _atom_site_fract_z
 _atom_site_occupancy
  V  V0  1  0.74481596  0.24771166  0.49951931  1
  V  V1  1  0.74829640  0.37602464  0.62334569  1
  V  V2  1  0.24533612  0.87089470  0.62998692  1
  V  V3  1  0.25354075  0.62964776  0.87888266  1
  V  V4  1  0.37780720  0.12273302  0.74589101  1
  V  V5  1  0.25216298  -0.00113460  0.24102065  1
  V  V6  1  0.87335583  0.37805411  0.48922165  1
  V  V7  1  0.50108473  0.74841090  0.75023056  1
  V  V8  1  0.75450810  0.87206499  0.62143928  1
  V  V9  1  0.13291344  0.49765916  0.63192396  1
  V  V10  1  0.49814658  0.51919404  0.00156575  1
  V  V11  1  0.36851799  0.87646408  0.00609639  1
  V  V12  1  0.37697556  0.25148478  0.12593134  1
  V  V13  1  0.37170637  0.62462916  0.75042321  1
  V  V14  1  0.75081830  -0.00134752  0.25023339  1
  V  V15  1  0.50247596  0.13567378  0.62007465  1
  V  V16  1  0.24472397  0.62870013  0.37344697  1
  V  V17  1  0.13148158  0.25947224  0.37753646  1
  V  V18  1  0.00447148  0.25724385  0.25228015  1
  V  V19  1  0.25059338  -0.00477752  0.75038510  1
  V  V20  1  0.74598171  0.62464068  0.88002207  1
  V  V21  1  0.00055717  0.87561500  0.87386488  1
  V  V22  1  0.12207872  -0.00525215  0.62728798  1
  V  V23  1  0.37699189  0.38126482  0.00508293  1
  V  V24  1  0.74744644  0.50093192  0.74934489  1
  V  V25  1  0.37499824  0.74816562  0.62432532  1
  V  V26  1  0.62613210  0.50732956  0.62146852  1
  V  V27  1  0.37429270  0.00034826  0.37536245  1
  V  V28  1  0.62730192  0.00522313  0.61884334  1
  V  V29  1  0.00442600  0.75323852  0.74812614  1
  V  V30  1  0.88238939  0.61673933  0.25122099  1
  V  V31  1  0.62093612  0.24627200  0.36989190  1
  V  V32  1  -0.00020923  0.62369642  0.62288873  1
  V  V33  1  0.88433379  -0.00628524  0.37514270  1
  V  V34  1  0.37415913  0.49770255  0.37521022  1
  V  V35  1  -0.00189731  0.76199746  0.25619534  1
  V  V36  1  0.87208224  0.37389871  0.00559744  1
  V  V37  1  0.74907019  0.49571712  0.24732726  1
  V  V38  1  0.50153570  0.87467471  0.87735507  1
  V  V39  1  0.11755692  0.62829000  0.00527333  1
  V  V40  1  0.50489019  0.25002906  0.76726106  1
  V  V41  1  0.37697502  0.62312926  0.24396809  1
  V  V42  1  0.00514523  0.36981296  0.86340982  1
  V  V43  1  0.74786326  0.13609621  0.87685250  1
  V  V44  1  0.36373775  0.36416904  0.51109241  1
  V  V45  1  0.12334954  0.23558558  0.87252310  1
  V  V46  1  0.13231782  0.12738626  0.49970187  1
  V  V47  1  0.62671307  0.87492468  0.75039370  1
  V  V48  1  0.50458668  0.00261818  0.49931255  1
  V  V49  1  0.37763616  0.13224764  0.25321052  1
  V  V50  1  0.73771244  0.61782051  0.37648270  1
  V  V51  1  0.32091393  0.45446424  0.82626764  1
  V  V52  1  0.50180895  0.12698253  0.13131400  1
  V  V53  1  0.24280559  0.74929511  0.49589047  1
  V  V54  1  0.75137517  0.00140426  0.75065299  1
  V  V55  1  0.75424505  0.87430413  0.12454936  1
  V  V56  1  0.74752384  0.74596137  0.00425577  1
  V  V57  1  0.62352525  0.37070383  0.23914676  1
  V  V58  1  0.49921705  0.37126103  0.37116012  1
  V  V59  1  0.24416530  0.49578007  0.25088098  1
  V  V60  1  0.87750082  0.25135079  0.62876313  1
  V  V61  1  0.62142248  0.51850098  0.12236036  1
  V  V62  1  0.74031575  0.74678307  0.49102521  1
  V  V63  1  -0.00312105  0.50097312  0.49323995  1
  V  V64  1  0.36964922  0.75376229  0.12806100  1
  V  V65  1  0.74678551  0.12331596  0.37796681  1
  V  V66  1  0.87729199  0.12703451  0.24830275  1
  V  V67  1  0.62764393  0.86955837  0.25301046  1
  V  V68  1  0.37493905  0.87360733  0.49986530  1
  V  V69  1  0.11858412  0.50357623  0.12774374  1
  V  V70  1  0.00789772  0.00482902  0.00059688  1
  V  V71  1  -0.00177799  0.12725590  0.62669026  1
  V  V72  1  0.87557272  0.62642219  0.75020468  1
  V  V73  1  0.87296552  0.00183837  0.87788452  1
  V  V74  1  0.50325204  0.74504766  0.24648174  1
  V  V75  1  0.13310784  0.86946527  0.25672624  1
  V  V76  1  0.62698860  0.74811236  0.87882057  1
  V  V77  1  0.23992143  0.37326025  0.12728382  1
  V  V78  1  0.87850642  0.49956288  0.87612292  1
  V  V79  1  0.50513838  0.86785450  0.37608614  1
  V  V80  1  0.01192783  0.12813313  0.12320155  1
  V  V81  1  0.50202409  -0.00066234  0.00122177  1
  V  V82  1  0.12522387  0.75490225  0.87557074  1
  V  V83  1  0.62329778  0.13347442  -0.00355854  1
  V  V84  1  0.50246801  0.50515837  0.49734530  1
  Zn  Zn85  1  0.87656419  0.87349012  0.00279364  1
  Zn  Zn86  1  0.50309892  0.62753926  0.61824415  1
  Zn  Zn87  1  0.62853632  0.37028295  0.75671449  1
  Zn  Zn88  1  0.88312537  0.86429212  0.48902861  1
  Zn  Zn89  1  -0.00033969  0.38008281  0.37054753  1
  Zn  Zn90  1  0.37538323  -0.00172378  0.87458900  1
  Zn  Zn91  1  0.74008388  0.26302335  0.00595044  1
  Zn  Zn92  1  0.24400873  0.24495408  -0.00017459  1
  Zn  Zn93  1  0.62743134  0.00065505  0.12573529  1
  Zn  Zn94  1  0.88501630  0.73978452  0.12231204  1
  Zn  Zn95  1  0.12128708  0.62660364  0.49576458  1
  Zn  Zn96  1  0.25331348  0.12949103  0.38103981  1
  Zn  Zn97  1  -0.00214679  0.50314779  0.00427821  1
  Zn  Zn98  1  0.13051356  -0.00335374  0.12259100  1
  Zn  Zn99  1  0.50859332  0.38192168  0.88038044  1
  Zn  Zn100  1  0.87113984  0.25415661  0.12701159  1
  Zn  Zn101  1  0.87615984  0.74959624  0.61940109  1
  Zn  Zn102  1  0.24459336  0.75635635  0.00999854  1
  Zn  Zn103  1  0.15683703  0.34858663  0.71936521  1
  Zn  Zn104  1  0.00456221  -0.00689288  0.49643357  1
  Zn  Zn105  1  0.24837102  0.11930397  0.87932150  1
  Zn  Zn106  1  0.87804810  0.13082592  0.75291839  1
  Zn  Zn107  1  0.19013571  0.18784621  0.19398524  1
  Zn  Zn108  1  0.18029998  0.17991189  0.69005136  1
  Zn  Zn109  1  0.18465434  0.68964664  0.18995477  1
  Zn  Zn110  1  0.18624788  0.68259333  0.68883496  1
  Zn  Zn111  1  0.69051188  0.18981343  0.18518633  1
  Zn  Zn112  1  0.68645224  0.18632608  0.68828085  1
  Zn  Zn113  1  0.69182753  0.68776281  0.19172770  1
  Zn  Zn114  1  0.68850257  0.68749421  0.68612470  1
  Zn  Zn115  1  0.31163022  0.31430558  0.31431257  1
  Zn  Zn116  1  0.29374111  0.28054194  0.77083342  1
  Zn  Zn117  1  0.31321666  0.81347982  0.31236095  1
  Zn  Zn118  1  0.31416873  0.81264887  0.81517722  1
  Zn  Zn119  1  0.80945089  0.31121228  0.30892895  1
  Zn  Zn120  1  0.81290249  0.31617700  0.81328120  1
  Zn  Zn121  1  0.81382323  0.80608886  0.31185470  1
  Zn  Zn122  1  0.81599090  0.81284568  0.81213083  1
  Zn  Zn123  1  0.18573342  0.44119469  0.44345040  1
  Zn  Zn124  1  0.18033978  0.43258718  0.94511796  1
  Zn  Zn125  1  0.18707388  0.93746959  0.43697545  1
  Zn  Zn126  1  0.18630726  0.93670330  0.93624369  1
  Zn  Zn127  1  0.68416825  0.43587565  0.43525533  1
  Zn  Zn128  1  0.68397108  0.43997322  0.93907395  1
  Zn  Zn129  1  0.69074635  0.93504105  0.43703038  1
  Zn  Zn130  1  0.68756742  0.93928297  0.94053401  1
  Zn  Zn131  1  0.31391380  0.06563162  0.06055803  1
  Zn  Zn132  1  0.31436436  0.06252478  0.56474157  1
  Zn  Zn133  1  0.30852096  0.56536278  0.06362242  1
  Zn  Zn134  1  0.31523969  0.55910567  0.56051133  1
  Zn  Zn135  1  0.81449841  0.06635449  0.06269888  1
  Zn  Zn136  1  0.81372225  0.06306485  0.55847334  1
  Zn  Zn137  1  0.80916736  0.55948703  0.06627010  1
  Zn  Zn138  1  0.81367470  0.56429741  0.55814565  1
  Zn  Zn139  1  0.44025910  0.43909526  0.18686870  1
  Zn  Zn140  1  0.44438018  0.43232540  0.68303676  1
  Zn  Zn141  1  0.43926458  0.93832763  0.18825598  1
  Zn  Zn142  1  0.43861895  0.93699009  0.68535413  1
  Zn  Zn143  1  0.93648622  0.43942215  0.18948626  1
  Zn  Zn144  1  0.93650507  0.43894464  0.68258512  1
  Zn  Zn145  1  0.94101707  0.93690593  0.18767060  1
  Zn  Zn146  1  0.93779535  0.93796654  0.68895054  1
  Zn  Zn147  1  0.06755653  0.06622829  0.31026518  1
  Zn  Zn148  1  0.06026752  0.06006733  0.80588773  1
  Zn  Zn149  1  0.06307635  0.56455643  0.31302099  1
  Zn  Zn150  1  0.06512394  0.56346141  0.81250786  1
  Zn  Zn151  1  0.56382832  0.05898230  0.31233520  1
  Zn  Zn152  1  0.56457997  0.06233085  0.81219062  1
  Zn  Zn153  1  0.56283266  0.56058363  0.31094360  1
  Zn  Zn154  1  0.56170496  0.56065142  0.81347550  1
  Zn  Zn155  1  0.43944655  0.18898470  0.44111931  1
  Zn  Zn156  1  0.42623625  0.18487906  0.93969042  1
  Zn  Zn157  1  0.43324947  0.68615068  0.43334107  1
  Zn  Zn158  1  0.43503064  0.69130404  0.93876088  1
  Zn  Zn159  1  0.94085360  0.18544563  0.43967162  1
  Zn  Zn160  1  0.93819195  0.18941197  0.93889970  1
  Zn  Zn161  1  0.92993946  0.68477190  0.43168604  1
  Zn  Zn162  1  0.93480962  0.68854403  0.93894267  1
  Zn  Zn163  1  0.05699524  0.31357310  0.05485529  1
  Zn  Zn164  1  0.06135605  0.31349085  0.55755610  1
  Zn  Zn165  1  0.06165067  0.81526979  0.07182645  1
  Zn  Zn166  1  0.06100895  0.81390361  0.55764756  1
  Zn  Zn167  1  0.55651391  0.31244885  0.06155823  1
  Zn  Zn168  1  0.56370561  0.31960992  0.55816414  1
  Zn  Zn169  1  0.56403952  0.80977521  0.06693377  1
  Zn  Zn170  1  0.56512938  0.81358574  0.56368979  1
  O  O171  1  0.11498280  0.12209031  0.13139779  1
  O  O172  1  0.11749888  0.11703048  0.61943149  1
  O  O173  1  0.13305076  0.61715796  0.11656929  1
  O  O174  1  0.11260805  0.61908889  0.62302375  1
  O  O175  1  0.61574787  0.12252805  0.12026194  1
  O  O176  1  0.62012215  0.11144026  0.62768591  1
  O  O177  1  0.62263952  0.61676996  0.13049027  1
  O  O178  1  0.62289495  0.61266835  0.62800326  1
  O  O179  1  0.38359668  0.38024683  0.37597164  1
  O  O180  1  0.37626658  0.38899708  0.88411039  1
  O  O181  1  0.38327392  0.88218206  0.37942865  1
  O  O182  1  0.38512180  0.87433490  0.88527961  1
  O  O183  1  0.87464926  0.36909651  0.38621569  1
  O  O184  1  0.88204689  0.38298334  0.88060421  1
  O  O185  1  0.86884831  0.89079487  0.37018854  1
  O  O186  1  0.88198342  0.88362812  0.87779818  1
  O  O187  1  0.26504624  0.00088678  0.37107854  1
  O  O188  1  0.24964829  -0.00311570  0.86137060  1
  O  O189  1  0.25359248  0.50491492  0.36731306  1
  O  O190  1  0.25530186  0.50950415  0.88579152  1
  O  O191  1  0.75629837  0.00727777  0.36978807  1
  O  O192  1  0.75815874  0.00514606  0.87264518  1
  O  O193  1  0.74317298  0.51060715  0.36813492  1
  O  O194  1  0.75958012  0.50890130  0.87209455  1
  O  O195  1  0.24252641  0.49348888  0.13250009  1
  O  O196  1  0.23184740  0.50774123  0.62039453  1
  O  O197  1  0.25460258  1.00274833  0.13755987  1
  O  O198  1  0.24591595  0.99034357  0.63225036  1
  O  O199  1  0.73241500  0.50119331  0.13275192  1
  O  O200  1  0.74446276  0.49779034  0.62687585  1
  O  O201  1  0.75074608  0.99301259  0.13168305  1
  O  O202  1  0.74530396  0.99465783  0.62656127  1
  O  O203  1  -0.00548372  0.36170284  0.25182829  1
  O  O204  1  -0.00955942  0.37812762  0.76448752  1
  O  O205  1  0.00457572  0.86667125  0.25609020  1
  O  O206  1  -0.00362520  0.86768775  0.76311060  1
  O  O207  1  0.50700775  0.37946335  0.26272389  1
  O  O208  1  0.49815897  0.35889950  0.75433800  1
  O  O209  1  0.50806684  0.86997985  0.25688474  1
  O  O210  1  0.50618634  0.86854078  0.75489845  1
  O  O211  1  0.49338289  0.11744853  0.23926836  1
  O  O212  1  0.49879844  0.13041586  0.74322508  1
  O  O213  1  0.49093249  0.63445583  0.25822829  1
  O  O214  1  0.48813802  0.63150078  0.75294233  1
  O  O215  1  0.99465289  0.13414545  0.24439145  1
  O  O216  1  0.99526705  0.12052251  0.73283126  1
  O  O217  1  0.98472190  0.62032310  0.25004628  1
  O  O218  1  0.99459794  0.63159912  0.74420514  1
  O  O219  1  0.37269231  0.26171063  0.00941337  1
  O  O220  1  0.37667657  0.26454937  0.49604970  1
  O  O221  1  0.37526909  0.75915106  0.01138425  1
  O  O222  1  0.36798370  0.75439345  0.50627859  1
  O  O223  1  0.87639537  0.26653569  -0.00037545  1
  O  O224  1  0.86379478  0.25489047  0.50515789  1
  O  O225  1  0.86384046  0.75207014  0.00392180  1
  O  O226  1  0.86203844  0.74855673  0.50074149  1
  O  O227  1  0.12006532  0.24189984  0.48740851  1
  O  O228  1  0.12719813  0.26190795  0.97900761  1
  O  O229  1  0.13923084  0.74592950  0.50471341  1
  O  O230  1  0.12486354  0.74678992  0.99602655  1
  O  O231  1  0.63846212  0.25733693  0.48934251  1
  O  O232  1  0.62179010  0.23760433  1.00260688  1
  O  O233  1  0.64088841  0.75091602  0.50449198  1
  O  O234  1  0.63793839  0.75451007  0.99469694  1
  O  O235  1  0.48584285  0.24179576  0.12380726  1
  O  O236  1  0.51028575  0.23688969  0.62080560  1
  O  O237  1  0.49126260  0.75395688  0.13984702  1
  O  O238  1  0.49518431  0.74868912  0.63060620  1
  O  O239  1  0.99848495  0.24437399  0.13127923  1
  O  O240  1  0.98877349  0.24148842  0.61531694  1
  O  O241  1  0.99998319  0.74900448  0.14471159  1
  O  O242  1  1.00052969  0.74343005  0.63283852  1
  O  O243  1  0.00888834  0.25034382  0.36866625  1
  O  O244  1  0.00569467  0.26305517  0.87949133  1
  O  O245  1  0.00057543  0.73530941  0.35457082  1
  O  O246  1  0.00439317  0.75678448  0.87032511  1
  O  O247  1  0.51245057  0.25581490  0.37939715  1
  O  O248  1  0.49793084  0.24816822  0.86818564  1
  O  O249  1  0.49300755  0.76165662  0.36587328  1
  O  O250  1  0.50719658  0.75507179  0.87184027  1
  O  O251  1  0.23824793  0.12235174  0.50285640  1
  O  O252  1  0.26141572  0.13203813  0.99149236  1
  O  O253  1  0.25351927  0.63271178  0.49105594  1
  O  O254  1  0.24189777  0.63210913  0.99373246  1
  O  O255  1  0.75299329  0.13227753  0.48632985  1
  O  O256  1  0.73920550  0.12121320  0.99221727  1
  O  O257  1  0.75230965  0.63160282  0.48569146  1
  O  O258  1  0.75403074  0.63270350  0.99134511  1
  O  O259  1  0.26121867  0.37600200  0.00943776  1
  O  O260  1  0.26527259  0.37945329  0.49510981  1
  O  O261  1  0.26443397  0.87652794  -0.00260447  1
  O  O262  1  0.25508127  0.86800640  0.50590114  1
  O  O263  1  0.76724143  0.37848604  -0.00789506  1
  O  O264  1  0.75497127  0.36905327  0.50347819  1
  O  O265  1  0.75193578  0.86932980  0.00887898  1
  O  O266  1  0.75432527  0.86342673  0.50382413  1
  O  O267  1  0.13606652  0.50527441  0.24414375  1
  O  O268  1  0.12116703  0.50286889  0.73353372  1
  O  O269  1  0.13791607  0.99675789  0.24959248  1
  O  O270  1  0.13427827  1.00253846  0.73600467  1
  O  O271  1  0.62747688  0.49340849  0.23942701  1
  O  O272  1  0.63143661  0.49987656  0.74146580  1
  O  O273  1  0.63231296  0.98760282  0.24870612  1
  O  O274  1  0.63172563  0.99316277  0.74207346  1
  O  O275  1  0.37233661  0.00663148  0.25756283  1
  O  O276  1  0.36845964  0.00174179  0.75047370  1
  O  O277  1  0.36797258  0.50688146  0.25285081  1
  O  O278  1  0.38227174  0.50504265  0.75690714  1
  O  O279  1  0.87129433  0.00606019  0.25831568  1
  O  O280  1  0.86950893  0.00201156  0.76213790  1
  O  O281  1  0.86408004  0.50609288  0.24747542  1
  O  O282  1  0.86843440  0.50626961  0.75623950  1
  O  O283  1  0.12234094  0.36248950  0.38183185  1
  O  O284  1  0.10921152  0.38171015  0.86995747  1
  O  O285  1  0.12509530  0.88500436  0.35717266  1
  O  O286  1  0.11774458  0.86240771  0.87752586  1
  O  O287  1  0.61795129  0.36690953  0.36632021  1
  O  O288  1  0.62228347  0.37971868  0.87045391  1
  O  O289  1  0.61634768  0.87855107  0.36705602  1
  O  O290  1  0.62153980  0.86979102  0.87063129  1
  O  O291  1  0.38187272  0.13220293  0.13341593  1
  O  O292  1  0.38872750  0.11482332  0.63582062  1
  O  O293  1  0.37136556  0.63212348  0.13828008  1
  O  O294  1  0.37704170  0.62867996  0.63415152  1
  O  O295  1  0.88361154  0.12233342  0.13918852  1
  O  O296  1  0.88064117  0.13252114  0.62224013  1
  O  O297  1  0.86243011  0.62540627  0.14487371  1
  O  O298  1  0.88466357  0.62575458  0.63114617  1
  O  O299  1  0.25799134  0.25719096  0.12778791  1
  O  O300  1  0.23549622  0.27315620  0.67335754  1
  O  O301  1  0.26428138  0.74965242  0.12885449  1
  O  O302  1  0.25394571  0.75467702  0.62094921  1
  O  O303  1  0.75861509  0.24309558  0.11688254  1
  O  O304  1  0.75178788  0.25315480  0.61566408  1
  O  O305  1  0.75079914  0.75656754  0.11882021  1
  O  O306  1  0.75181532  0.75621957  0.61612960  1
  O  O307  1  0.23561129  0.24811216  0.37007595  1
  O  O308  1  0.23356660  0.24549389  0.86817654  1
  O  O309  1  0.25902917  0.74181511  0.38434623  1
  O  O310  1  0.24070032  0.74649295  0.87811179  1
  O  O311  1  0.74347403  0.24208734  0.37930957  1
  O  O312  1  0.75551724  0.23851382  0.87982217  1
  O  O313  1  0.74929649  0.74110920  0.38376783  1
  O  O314  1  0.74840148  0.74390216  0.88194602  1
  O  O315  1  -0.00629593  0.11761569  0.01078012  1
  O  O316  1  0.01008593  0.11758487  0.50902367  1
  O  O317  1  0.01304144  0.62388461  -0.00618199  1
  O  O318  1  -0.00319455  0.62032883  0.50618271  1
  O  O319  1  0.50264097  0.11851241  0.00745328  1
  O  O320  1  0.49678571  0.11406740  0.50769194  1
  O  O321  1  0.49537460  0.61801009  0.00409790  1
  O  O322  1  0.49301782  0.61070433  0.49706779  1
  O  O323  1  0.49482480  0.38387189  0.48772715  1
  O  O324  1  0.48709734  0.38124110  1.00049198  1
  O  O325  1  0.49663557  0.87908324  0.49312470  1
  O  O326  1  0.49715810  0.88194464  0.99837281  1
  O  O327  1  0.98945106  0.38347284  0.49733941  1
  O  O328  1  0.98847380  0.38286910  0.98756504  1
  O  O329  1  0.99391375  0.87995766  0.50177670  1
  O  O330  1  0.99759361  0.88078899  0.98996594  1
  O  O331  1  0.49625303  0.49274228  0.37920956  1
  O  O332  1  0.50435850  0.50459240  0.89684655  1
  O  O333  1  0.49224118  0.99109779  0.37850859  1
  O  O334  1  0.50125620  0.99221621  0.88317836  1
  O  O335  1  1.00452777  0.49941355  0.38771803  1
  O  O336  1  0.98854319  0.49742511  0.87397130  1
  O  O337  1  0.98614202  1.00795598  0.37214199  1
  O  O338  1  0.99505949  0.99441410  0.87879786  1
  O  O339  1  -0.00060202  0.00829924  0.11643133  1
  O  O340  1  0.00822505  0.00378842  0.62488013  1
  O  O341  1  0.01517602  0.49542034  0.12683471  1
  O  O342  1  0.00224158  0.50896043  0.61580730  1
  O  O343  1  0.50149654  0.00843231  0.11807287  1
  O  O344  1  0.51023035  0.00335773  0.61932235  1
  O  O345  1  0.51262397  0.49926693  0.11850936  1
  O  O346  1  0.50877624  0.50158690  0.61598807  1
  O  O347  1  0.25550280  0.38622035  0.24130143  1
  O  O348  1  0.25911054  0.39616146  0.77303779  1
  O  O349  1  0.24239173  0.88174452  0.25305738  1
  O  O350  1  0.25655760  0.87964279  0.73989967  1
  O  O351  1  0.74014970  0.38826697  0.25747587  1
  O  O352  1  0.75149474  0.38362353  0.74144082  1
  O  O353  1  0.74433481  0.87532787  0.24545852  1
  O  O354  1  0.74612046  0.87957298  0.74277878  1
  O  O355  1  0.26140907  0.11635005  0.25555159  1
  O  O356  1  0.26064496  0.11178132  0.74945222  1
  O  O357  1  0.25650124  0.61938008  0.25547519  1
  O  O358  1  0.26270268  0.62800142  0.75856336  1
  O  O359  1  0.75805547  0.11996871  0.25872308  1
  O  O360  1  0.75076290  0.11844828  0.75909463  1
  O  O361  1  0.75195621  0.61506864  0.25893849  1
  O  O362  1  0.75757148  0.62181749  0.75650665  1
  O  O363  1  0.37799748  0.11853695  0.36926119  1
  O  O364  1  0.37718081  0.11769394  0.85961327  1
  O  O365  1  0.36580871  0.61760053  0.36422507  1
  O  O366  1  0.36155525  0.63342102  0.87048352  1
  O  O367  1  0.86934296  0.11873598  0.36564438  1
  O  O368  1  0.86857180  0.11908483  0.87460929  1
  O  O369  1  0.85959978  0.62612777  0.35740515  1
  O  O370  1  0.86819999  0.61891816  0.87056554  1
  O  O371  1  0.13584758  0.38069297  0.11737922  1
  O  O372  1  0.11360828  0.39218108  0.62314168  1
  O  O373  1  0.11888023  0.88282527  0.14627536  1
  O  O374  1  0.13716136  0.88010255  0.62216336  1
  O  O375  1  0.61743089  0.37464990  0.13716677  1
  O  O376  1  0.63219242  0.38519600  0.62858054  1
  O  O377  1  0.63684044  0.87679533  0.13288157  1
  O  O378  1  0.63692677  0.88252697  0.62927978  1
  O  O379  1  0.11732376  0.24420904  0.26556160  1
  O  O380  1  0.11043085  0.25143464  0.76918963  1
  O  O381  1  0.11805191  0.76200544  0.25119473  1
  O  O382  1  0.11240289  0.74281850  0.75947374  1
  O  O383  1  0.63076381  0.25776103  0.25932749  1
  O  O384  1  0.60850351  0.24818883  0.74701440  1
  O  O385  1  0.61825153  0.76067842  0.24630173  1
  O  O386  1  0.62169323  0.75573513  0.75619761  1
  O  O387  1  0.37199443  0.23823665  0.24653117  1
  O  O388  1  0.39523094  0.23538414  0.74725456  1
  O  O389  1  0.38213896  0.74449843  0.24622377  1
  O  O390  1  0.38012541  0.74343318  0.74442175  1
  O  O391  1  0.88263112  0.24205438  0.25073122  1
  O  O392  1  0.86645801  0.24973723  0.73299621  1
  O  O393  1  0.88493508  0.74198994  0.24783171  1
  O  O394  1  0.88689076  0.74426547  0.74854708  1
  O  O395  1  0.38262788  0.49262286  0.49200965  1
  O  O396  1  0.38944890  0.49714131  1.01466778  1
  O  O397  1  0.38120021  0.99351754  0.49341187  1
  O  O398  1  0.38735327  0.99314891  1.00008142  1
  O  O399  1  0.88238314  0.48964237  0.50411302  1
  O  O400  1  0.87611684  0.49549272  0.99297493  1
  O  O401  1  0.87389908  1.00046334  0.48195734  1
  O  O402  1  0.88337165  0.99944945  0.98970051  1
  O  O403  1  0.11255651  -0.00395224  0.00145611  1
  O  O404  1  0.12783156  0.00585453  0.51167743  1
  O  O405  1  0.12368890  0.50985607  0.00967261  1
  O  O406  1  0.11433065  0.50560546  0.50863580  1
  O  O407  1  0.61406036  0.00699366  0.00329134  1
  O  O408  1  0.61996624  -0.00702640  0.50864082  1
  O  O409  1  0.61466591  0.50035808  0.01531288  1
  O  O410  1  0.61526851  0.49434008  0.50739583  1
  O  O411  1  0.36955507  0.36878694  0.12246158  1
  O  O412  1  0.37813991  0.37831996  0.60991788  1
  O  O413  1  0.38129668  0.86769383  0.11800286  1
  O  O414  1  0.36682143  0.86947732  0.61834672  1
  O  O415  1  0.88044842  0.37829114  0.10881307  1
  O  O416  1  0.86843994  0.36821017  0.61493514  1
  O  O417  1  0.86385984  0.87312298  0.12674395  1
  O  O418  1  0.86187024  0.87555766  0.62612556  1
  O  O419  1  0.12824581  0.13158567  0.38473630  1
  O  O420  1  0.12004304  0.13257857  0.87363678  1
  O  O421  1  0.14041109  0.62255397  0.37591613  1
  O  O422  1  0.13394893  0.63373561  0.88081861  1
  O  O423  1  0.63388931  0.13257843  0.36755278  1
  O  O424  1  0.63461250  0.11848318  0.88481455  1
  O  O425  1  0.63853775  0.62686473  0.36834680  1
  O  O426  1  0.63917349  0.63059215  0.86913290  1
