# generated using pymatgen
data_V85Zn86O256
_symmetry_space_group_name_H-M   'P 1'
_cell_length_a   16.94978413
_cell_length_b   16.94656641
_cell_length_c   16.94227459
_cell_angle_alpha   89.92526394
_cell_angle_beta   89.98825890
_cell_angle_gamma   90.00717815
_symmetry_Int_Tables_number   1
_chemical_formula_structural   V85Zn86O256
_chemical_formula_sum   'V85 Zn86 O256'
_cell_volume   4866.50555588
_cell_formula_units_Z   1
loop_
 _symmetry_equiv_pos_site_id
 _symmetry_equiv_pos_as_xyz
  1  'x, y, z'
loop_
 _atom_site_type_symbol
 _atom_site_label
 _atom_site_symmetry_multiplicity
 _atom_site_fract_x
 _atom_site_fract_y
 _atom_site_fract_z
 _atom_site_occupancy
  V  V0  1  0.50203719  0.00826994  0.49935370  1
  V  V1  1  0.12893598  0.88376815  0.74850111  1
  V  V2  1  0.87490613  0.12664159  0.24940313  1
  V  V3  1  0.24917781  0.88916786  0.62874824  1
  V  V4  1  0.37832919  0.25221556  0.11594778  1
  V  V5  1  0.43308967  0.44227125  0.43696030  1
  V  V6  1  0.50070703  0.26883754  0.75308985  1
  V  V7  1  0.25035357  0.25230345  0.50642914  1
  V  V8  1  -0.00184137  0.10298490  0.62609702  1
  V  V9  1  -0.00173278  0.49871552  0.49806362  1
  V  V10  1  0.25659436  0.87639272  0.12517074  1
  V  V11  1  0.49937320  0.48500297  -0.00234679  1
  V  V12  1  0.25059666  0.49808954  0.75167799  1
  V  V13  1  0.87331828  0.74636788  0.62362178  1
  V  V14  1  0.49511370  0.75011369  0.23515081  1
  V  V15  1  0.86957742  0.36747329  0.49925982  1
  V  V16  1  0.61379657  0.63322546  -0.01163252  1
  V  V17  1  0.62321255  0.87276085  0.75180945  1
  V  V18  1  0.62138246  0.61729463  0.49624994  1
  V  V19  1  0.74260878  0.12984157  0.38025364  1
  V  V20  1  0.87578128  0.38580642  -0.01093044  1
  V  V21  1  0.62512166  0.00878863  0.62068606  1
  V  V22  1  -0.01401459  0.77209743  0.23517941  1
  V  V23  1  0.13098942  0.37779334  0.25102031  1
  V  V24  1  0.74659258  0.87277407  0.62437486  1
  V  V25  1  0.12042848  0.37549154  0.76383268  1
  V  V26  1  0.37982211  0.13293906  0.25387383  1
  V  V27  1  0.37452566  0.62595427  0.23183181  1
  V  V28  1  0.75101744  0.25377719  0.00260125  1
  V  V29  1  0.87400064  0.62624800  0.25178293  1
  V  V30  1  0.25237906  0.00376936  0.24974886  1
  V  V31  1  0.87265217  0.61271047  0.75248603  1
  V  V32  1  0.75185644  0.39411664  0.13148220  1
  V  V33  1  0.74917025  0.75059532  0.49775485  1
  V  V34  1  0.87378776  0.12471033  0.75354215  1
  V  V35  1  0.61680531  0.37104153  0.25191857  1
  V  V36  1  -0.00051177  0.37446744  0.37384518  1
  V  V37  1  0.00135266  0.25025245  0.24842847  1
  V  V38  1  0.37863892  0.48293410  0.87773013  1
  V  V39  1  0.24734125  0.12531519  0.37846292  1
  V  V40  1  0.25390223  0.62464400  0.87677656  1
  V  V41  1  0.12592409  0.62495822  0.00174401  1
  V  V42  1  0.00196178  0.62484206  0.13015974  1
  V  V43  1  0.24952543  0.74879593  0.50064768  1
  V  V44  1  0.75316919  0.12324244  0.87735795  1
  V  V45  1  0.88002722  0.00015673  0.38435718  1
  V  V46  1  0.25995413  0.62062220  0.37138619  1
  V  V47  1  -0.00100353  0.75101900  0.75503830  1
  V  V48  1  -0.00250379  -0.01385908  -0.00693764  1
  V  V49  1  0.74584148  0.62161773  0.36809058  1
  V  V50  1  0.75289821  0.62422484  0.87673078  1
  V  V51  1  0.24342757  0.11913283  0.87206298  1
  V  V52  1  0.12393364  0.49653379  0.62611682  1
  V  V53  1  0.12489660  0.75539503  0.87539657  1
  V  V54  1  0.13156497  0.87749481  0.25271245  1
  V  V55  1  0.37802807  0.11894091  0.74881924  1
  V  V56  1  0.86967507  0.49789332  0.37025134  1
  V  V57  1  0.74758288  0.00049156  0.75369249  1
  V  V58  1  0.11896435  0.10883114  0.50729174  1
  V  V59  1  -0.00322677  0.50107391  -0.01044884  1
  V  V60  1  0.75071817  -0.00556032  0.24753919  1
  V  V61  1  0.62845995  -0.00337744  0.12407519  1
  V  V62  1  0.12725751  0.00810407  0.11893697  1
  V  V63  1  0.49880191  0.87361512  0.87370921  1
  V  V64  1  0.50426643  0.74733361  0.75155815  1
  V  V65  1  0.50086584  0.12863016  0.12687901  1
  V  V66  1  0.87374769  0.25549908  0.12429150  1
  V  V67  1  0.37590100  0.62331775  0.75302557  1
  V  V68  1  0.37281959  0.74812155  0.62521849  1
  V  V69  1  0.62125523  0.51307843  0.12754868  1
  V  V70  1  0.12301686  0.24759199  0.37963596  1
  V  V71  1  0.13134305  0.49989606  0.12968030  1
  V  V72  1  0.12174460  0.75003710  0.37183348  1
  V  V73  1  0.50225751  0.87268868  0.37578656  1
  V  V74  1  0.25590203  0.37663565  0.11932630  1
  V  V75  1  0.00306476  0.12921620  0.11288661  1
  V  V76  1  0.24353273  0.24753025  -0.00343189  1
  V  V77  1  0.37615747  0.87459074  0.00071166  1
  V  V78  1  0.62687973  0.49354199  0.63125593  1
  V  V79  1  0.62198385  0.26613167  0.87336340  1
  V  V80  1  0.49914764  0.61969873  0.61928195  1
  V  V81  1  -0.00094423  0.25384326  0.75083894  1
  V  V82  1  0.25385404  0.75028607  0.00540505  1
  V  V83  1  -0.00206248  0.62386112  0.62236228  1
  V  V84  1  0.62253140  0.12724038  -0.00273175  1
  Zn  Zn85  1  0.84919085  0.78432323  0.11020577  1
  Zn  Zn86  1  0.73190995  0.24731600  0.50415949  1
  Zn  Zn87  1  0.38073603  0.25724920  0.62401821  1
  Zn  Zn88  1  0.50491442  0.13195991  0.62626192  1
  Zn  Zn89  1  0.74731476  0.48668048  0.75876469  1
  Zn  Zn90  1  0.00667338  0.88142133  0.38749874  1
  Zn  Zn91  1  0.62167123  0.74815272  0.37064380  1
  Zn  Zn92  1  0.60234980  0.24708169  0.37541908  1
  Zn  Zn93  1  0.49717074  0.00222784  -0.00282210  1
  Zn  Zn94  1  0.12500458  0.62340866  0.49673024  1
  Zn  Zn95  1  0.74538230  0.36769199  0.62879865  1
  Zn  Zn96  1  0.37591794  -0.00084553  0.37643133  1
  Zn  Zn97  1  0.62855676  0.86885663  0.24394096  1
  Zn  Zn98  1  0.25086069  0.37649308  0.62294321  1
  Zn  Zn99  1  0.87276565  0.24904725  0.62361080  1
  Zn  Zn100  1  0.74391431  0.76329192  -0.00610174  1
  Zn  Zn101  1  0.30536757  0.45194939  0.30030712  1
  Zn  Zn102  1  0.84950782  -0.07314146  0.92252657  1
  Zn  Zn103  1  0.37083804  -0.00183755  0.87105755  1
  Zn  Zn104  1  0.88574669  0.88700368  0.51630460  1
  Zn  Zn105  1  0.11787100  0.24853102  0.88118706  1
  Zn  Zn106  1  0.37736361  0.87652029  0.50075648  1
  Zn  Zn107  1  0.19013315  0.19113530  0.18845292  1
  Zn  Zn108  1  0.18160724  0.18137972  0.69071491  1
  Zn  Zn109  1  0.18846072  0.69052903  0.18983764  1
  Zn  Zn110  1  0.18571933  0.68551353  0.68782544  1
  Zn  Zn111  1  0.68895593  0.18870196  0.18969969  1
  Zn  Zn112  1  0.68598759  0.19526978  0.69069586  1
  Zn  Zn113  1  0.68800417  0.69208916  0.18190962  1
  Zn  Zn114  1  0.68618060  0.68200509  0.68833301  1
  Zn  Zn115  1  0.43677676  0.30984894  0.30217694  1
  Zn  Zn116  1  0.30943990  0.30803525  0.80593064  1
  Zn  Zn117  1  0.31822995  0.81051670  0.31395443  1
  Zn  Zn118  1  0.31305309  0.81183216  0.81251074  1
  Zn  Zn119  1  0.80776976  0.31387489  0.30864570  1
  Zn  Zn120  1  0.80947896  0.31148873  0.81140518  1
  Zn  Zn121  1  0.81088566  0.81594122  0.31788397  1
  Zn  Zn122  1  0.80841103  0.80127010  0.81254035  1
  Zn  Zn123  1  0.18689102  0.43835885  0.43958096  1
  Zn  Zn124  1  0.18937562  0.43774274  0.94140404  1
  Zn  Zn125  1  0.19172857  0.93636496  0.44132814  1
  Zn  Zn126  1  0.18442278  0.93968231  0.93740484  1
  Zn  Zn127  1  0.68411141  0.43632983  0.43809790  1
  Zn  Zn128  1  0.69159538  0.44507472  0.94283668  1
  Zn  Zn129  1  0.68727519  0.93836354  0.43563153  1
  Zn  Zn130  1  0.67976253  0.93671033  0.93739767  1
  Zn  Zn131  1  0.31420062  0.06492206  0.05696110  1
  Zn  Zn132  1  0.31784860  0.06645495  0.56269014  1
  Zn  Zn133  1  0.31655150  0.55913993  0.06035251  1
  Zn  Zn134  1  0.31080065  0.56216270  0.56153588  1
  Zn  Zn135  1  0.81496969  0.06243966  0.06302383  1
  Zn  Zn136  1  0.80966889  0.06657551  0.56623548  1
  Zn  Zn137  1  0.82863415  0.59977481  0.04575010  1
  Zn  Zn138  1  0.80881430  0.55874125  0.55791519  1
  Zn  Zn139  1  0.44139875  0.44434806  0.17714442  1
  Zn  Zn140  1  0.43422376  0.43793240  0.67984978  1
  Zn  Zn141  1  0.43996345  0.94222319  0.18813402  1
  Zn  Zn142  1  0.43652612  0.93860618  0.68412133  1
  Zn  Zn143  1  0.93989953  0.44167585  0.18568928  1
  Zn  Zn144  1  0.93596031  0.43252335  0.68658850  1
  Zn  Zn145  1  0.94481023  0.94638333  0.19479697  1
  Zn  Zn146  1  0.92200103  0.92186003  0.72654206  1
  Zn  Zn147  1  0.06217681  0.06446819  0.30935031  1
  Zn  Zn148  1  0.06027956  0.06377926  0.81296670  1
  Zn  Zn149  1  0.06256289  0.56552996  0.31207809  1
  Zn  Zn150  1  0.06473799  0.56746540  0.81191975  1
  Zn  Zn151  1  0.56209116  0.06218902  0.31116786  1
  Zn  Zn152  1  0.56106361  0.06294077  0.81283547  1
  Zn  Zn153  1  0.55434949  0.56117337  0.30891980  1
  Zn  Zn154  1  0.56039892  0.55728692  0.81427295  1
  Zn  Zn155  1  0.43490761  0.18701962  0.44176753  1
  Zn  Zn156  1  0.43525959  0.19136863  0.93302415  1
  Zn  Zn157  1  0.43697336  0.68792595  0.43477332  1
  Zn  Zn158  1  0.43727416  0.68938138  0.93816892  1
  Zn  Zn159  1  0.93826536  0.18171057  0.43970564  1
  Zn  Zn160  1  0.93543607  0.19180668  0.93678668  1
  Zn  Zn161  1  0.93820798  0.69283222  0.43508973  1
  Zn  Zn162  1  0.93676842  0.69207390  0.93771213  1
  Zn  Zn163  1  0.06232435  0.31717337  0.05949795  1
  Zn  Zn164  1  0.06042233  0.30769473  0.56619044  1
  Zn  Zn165  1  0.06601842  0.81636673  0.06481131  1
  Zn  Zn166  1  0.06523808  0.81432681  0.56488053  1
  Zn  Zn167  1  0.56710105  0.31273169  0.06767579  1
  Zn  Zn168  1  0.55527952  0.31377996  0.55591228  1
  Zn  Zn169  1  0.56521152  0.81274731  0.06105575  1
  Zn  Zn170  1  0.56311547  0.81119512  0.56125939  1
  O  O171  1  0.11766276  0.11812436  0.13149449  1
  O  O172  1  0.10861302  0.11976747  0.62282083  1
  O  O173  1  0.12569190  0.61566403  0.12377319  1
  O  O174  1  0.11544501  0.61348656  0.62512124  1
  O  O175  1  0.61897381  0.12257169  0.11849838  1
  O  O176  1  0.62525543  0.11149224  0.63302155  1
  O  O177  1  0.63076926  0.61663113  0.10935480  1
  O  O178  1  0.61714410  0.61918769  0.61648006  1
  O  O179  1  0.37680910  0.38707892  0.36259649  1
  O  O180  1  0.36619567  0.38481829  0.87255093  1
  O  O181  1  0.38731675  0.87884538  0.37642365  1
  O  O182  1  0.37918478  0.87766152  0.88087915  1
  O  O183  1  0.87779508  0.38155554  0.37651209  1
  O  O184  1  0.86850793  0.37414488  0.89086095  1
  O  O185  1  0.87402211  0.89382483  0.37639597  1
  O  O186  1  0.88806305  0.87679146  0.83140840  1
  O  O187  1  0.25007063  0.00945700  0.37044975  1
  O  O188  1  0.24996916  0.01492050  0.87808981  1
  O  O189  1  0.23836677  0.51602812  0.37047841  1
  O  O190  1  0.25639769  0.50578932  0.87280724  1
  O  O191  1  0.75669774  0.01032515  0.36796835  1
  O  O192  1  0.74666912  0.01065105  0.86893838  1
  O  O193  1  0.75870746  0.50922494  0.37849925  1
  O  O194  1  0.74356773  0.51607067  0.87072561  1
  O  O195  1  0.24266155  0.49101699  0.11810766  1
  O  O196  1  0.23880668  0.50274198  0.63248606  1
  O  O197  1  0.24374099  0.99850221  0.12688656  1
  O  O198  1  0.25373027  0.98716808  0.62219561  1
  O  O199  1  0.74214233  0.49415466  0.12016934  1
  O  O200  1  0.73438037  0.50226826  0.62565749  1
  O  O201  1  0.74172918  1.00916190  0.13460912  1
  O  O202  1  0.74251998  0.99377608  0.63065042  1
  O  O203  1  0.00947650  0.37012163  0.25298823  1
  O  O204  1  0.00679663  0.36678613  0.74816948  1
  O  O205  1  0.01578323  0.87851801  0.26734128  1
  O  O206  1  0.01576516  0.85385971  0.73394824  1
  O  O207  1  0.51196687  0.37414698  0.23741277  1
  O  O208  1  0.49769428  0.36706608  0.75200172  1
  O  O209  1  0.49869840  0.86573358  0.25480833  1
  O  O210  1  0.50245218  0.86783034  0.75284045  1
  O  O211  1  0.49045980  0.11758755  0.23863692  1
  O  O212  1  0.48801967  0.12741955  0.74969678  1
  O  O213  1  0.48561548  0.63792597  0.25104646  1
  O  O214  1  0.49646450  0.63181045  0.74446104  1
  O  O215  1  0.99423155  0.13191445  0.24038279  1
  O  O216  1  0.99226190  0.12690607  0.74276060  1
  O  O217  1  0.99348887  0.63502922  0.24577990  1
  O  O218  1  0.99483343  0.63017707  0.74238450  1
  O  O219  1  0.36492336  0.24597455  0.01010712  1
  O  O220  1  0.35376998  0.23848310  0.50561039  1
  O  O221  1  0.36640302  0.76261694  -0.00318775  1
  O  O222  1  0.36373740  0.75103823  0.50432681  1
  O  O223  1  0.87130065  0.26215342  0.00713999  1
  O  O224  1  0.87645134  0.26146136  0.49567105  1
  O  O225  1  0.86102504  0.71677701  0.01490379  1
  O  O226  1  0.86146976  0.74614118  0.50546303  1
  O  O227  1  0.12680393  0.23831765  0.49604390  1
  O  O228  1  0.13698671  0.25345276  0.99996816  1
  O  O229  1  0.13557272  0.74606300  0.49243865  1
  O  O230  1  0.13170286  0.74657023  0.99338078  1
  O  O231  1  0.62180544  0.26005003  0.48573158  1
  O  O232  1  0.62992167  0.24181097  0.99654171  1
  O  O233  1  0.63554915  0.73960221  0.49980587  1
  O  O234  1  0.62053660  0.73615787  0.99737750  1
  O  O235  1  0.49344105  0.23866812  0.11842219  1
  O  O236  1  0.50204201  0.25033419  0.64012433  1
  O  O237  1  0.49767398  0.75655141  0.13651788  1
  O  O238  1  0.49255710  0.74212021  0.63067552  1
  O  O239  1  0.99664972  0.24648777  0.12850973  1
  O  O240  1  0.99625740  0.24286510  0.63885752  1
  O  O241  1  1.02161156  0.73114821  0.13171447  1
  O  O242  1  0.99779365  0.73538047  0.62913225  1
  O  O243  1  0.00389365  0.25361243  0.36877358  1
  O  O244  1  0.00292236  0.23973829  0.85877450  1
  O  O245  1  0.00872977  0.75202020  0.36321531  1
  O  O246  1  0.01090080  0.74082294  0.86637075  1
  O  O247  1  0.49124726  0.23215074  0.35923356  1
  O  O248  1  0.50821877  0.24933752  0.86459948  1
  O  O249  1  0.50120366  0.75851671  0.36840595  1
  O  O250  1  0.49315024  0.76226990  0.86393329  1
  O  O251  1  0.23948178  0.12650161  0.49702411  1
  O  O252  1  0.25429630  0.13305151  0.98379998  1
  O  O253  1  0.24773993  0.63161153  0.48819062  1
  O  O254  1  0.24641219  0.63317986  0.99813999  1
  O  O255  1  0.75294033  0.12616069  0.48379279  1
  O  O256  1  0.74495973  0.13109578  0.99523334  1
  O  O257  1  0.74350514  0.63019871  0.48817857  1
  O  O258  1  0.73318378  0.61926640  0.98567224  1
  O  O259  1  0.24777555  0.36686971  0.01206825  1
  O  O260  1  0.23819103  0.35562327  0.50011162  1
  O  O261  1  0.25515439  0.87037279  0.00543457  1
  O  O262  1  0.25234232  0.86668212  0.51245598  1
  O  O263  1  0.75646669  0.37515654  0.01312473  1
  O  O264  1  0.75850637  0.37399984  0.50134058  1
  O  O265  1  0.76355964  0.87583552  -0.02334121  1
  O  O266  1  0.75128049  0.86607592  0.50599444  1
  O  O267  1  0.11840787  0.49300552  0.23895786  1
  O  O268  1  0.12737898  0.49459541  0.74517171  1
  O  O269  1  0.13253486  0.99699696  0.24191563  1
  O  O270  1  0.11841955  0.98224656  0.75680952  1
  O  O271  1  0.61490179  0.49553264  0.23404138  1
  O  O272  1  0.62494421  0.50626156  0.73440559  1
  O  O273  1  0.63382325  1.00088836  0.24067385  1
  O  O274  1  0.62784648  0.99179177  0.74331185  1
  O  O275  1  0.36799795  0.01343271  0.24888778  1
  O  O276  1  0.37686811  0.01438770  0.74973431  1
  O  O277  1  0.37776597  0.51871966  0.24013806  1
  O  O278  1  0.37136013  0.50601263  0.75877038  1
  O  O279  1  0.86856591  0.00746373  0.25574549  1
  O  O280  1  0.86251873  0.01805364  0.74660432  1
  O  O281  1  0.88223677  0.50736135  0.26356894  1
  O  O282  1  0.87632663  0.51053624  0.74536874  1
  O  O283  1  0.12059397  0.37110228  0.36708119  1
  O  O284  1  0.12556548  0.37505001  0.86674859  1
  O  O285  1  0.13338593  0.86312901  0.37252972  1
  O  O286  1  0.13419154  0.86170580  0.86695117  1
  O  O287  1  0.62946650  0.38244586  0.35287249  1
  O  O288  1  0.63254550  0.36404204  0.88504745  1
  O  O289  1  0.61412459  0.87394444  0.36973888  1
  O  O290  1  0.61429658  0.87738232  0.85977742  1
  O  O291  1  0.38258800  0.13037266  0.12779577  1
  O  O292  1  0.37463270  0.13295504  0.63928031  1
  O  O293  1  0.36579161  0.63333745  0.13357280  1
  O  O294  1  0.38169709  0.62723350  0.63015932  1
  O  O295  1  0.88322338  0.13392622  0.12964296  1
  O  O296  1  0.88396898  0.12700857  0.63193217  1
  O  O297  1  0.88646493  0.61836423  0.14399949  1
  O  O298  1  0.88023546  0.62558309  0.62802494  1
  O  O299  1  0.25630981  0.25533656  0.11726037  1
  O  O300  1  0.23937974  0.24631655  0.61176767  1
  O  O301  1  0.24232535  0.76143766  0.11316404  1
  O  O302  1  0.25558850  0.74511787  0.61578965  1
  O  O303  1  0.75514731  0.25874765  0.11953532  1
  O  O304  1  0.75391807  0.24855806  0.61886704  1
  O  O305  1  0.74168357  0.76134951  0.11376081  1
  O  O306  1  0.75206514  0.75106559  0.61815014  1
  O  O307  1  0.24050978  0.23419917  0.38887855  1
  O  O308  1  0.24807357  0.24339638  0.88271044  1
  O  O309  1  0.24580481  0.74302627  0.38080184  1
  O  O310  1  0.24569169  0.74524388  0.88538653  1
  O  O311  1  0.75430243  0.23403349  0.37182144  1
  O  O312  1  0.74198686  0.24235720  0.88339790  1
  O  O313  1  0.74579724  0.74325323  0.38197927  1
  O  O314  1  0.74374641  0.73111784  0.87322405  1
  O  O315  1  -0.00330388  0.12406345  0.01098688  1
  O  O316  1  0.00331829  0.12377276  0.51730704  1
  O  O317  1  0.00815841  0.62034311  0.01009519  1
  O  O318  1  0.00046097  0.62012602  0.50608500  1
  O  O319  1  0.50759183  0.12511239  0.00311275  1
  O  O320  1  0.49625278  0.11219161  0.50697914  1
  O  O321  1  0.51108246  0.61980447  -0.00762377  1
  O  O322  1  0.50855830  0.63447637  0.50874256  1
  O  O323  1  0.48101213  0.37688400  0.49638065  1
  O  O324  1  0.50390813  0.38619524  1.00353586  1
  O  O325  1  0.49940926  0.88016246  0.49227572  1
  O  O326  1  0.49296269  0.87387088  0.99122669  1
  O  O327  1  0.99481946  0.37883542  0.49181990  1
  O  O328  1  0.98840375  0.38900397  1.00891054  1
  O  O329  1  0.99445943  0.86488377  0.49781344  1
  O  O330  1  1.00018223  0.88546388  1.00154946  1
  O  O331  1  0.49778213  0.50324086  0.38758136  1
  O  O332  1  0.49263966  0.49841856  0.88603086  1
  O  O333  1  0.50121365  0.99407640  0.38302498  1
  O  O334  1  0.49739151  0.98658486  0.87541572  1
  O  O335  1  0.99487966  0.49500992  0.37966803  1
  O  O336  1  1.00706175  0.50837731  0.89059699  1
  O  O337  1  0.98338149  1.00555489  0.37193038  1
  O  O338  1  1.00623363  1.00516756  0.89514623  1
  O  O339  1  0.00851380  0.00979117  0.11872633  1
  O  O340  1  -0.01111943  0.00666124  0.63636943  1
  O  O341  1  0.01021529  0.51114154  0.12191965  1
  O  O342  1  0.00365317  0.50794728  0.62024182  1
  O  O343  1  0.50733826  0.01251975  0.12041049  1
  O  O344  1  0.50900492  -0.00121975  0.61696675  1
  O  O345  1  0.50780883  0.50472291  0.10726781  1
  O  O346  1  0.50760689  0.51362872  0.62894349  1
  O  O347  1  0.23715781  0.37891596  0.23900775  1
  O  O348  1  0.23688564  0.38194275  0.74923004  1
  O  O349  1  0.25111057  0.88089500  0.24327705  1
  O  O350  1  0.24495008  0.86837633  0.73698419  1
  O  O351  1  0.74237919  0.37769011  0.23625919  1
  O  O352  1  0.75347825  0.37600450  0.74217628  1
  O  O353  1  0.74850749  0.88957208  0.25410546  1
  O  O354  1  0.73733730  0.87614586  0.74476509  1
  O  O355  1  0.25439710  0.12307245  0.25948667  1
  O  O356  1  0.26280857  0.13525048  0.76241931  1
  O  O357  1  0.26364878  0.63491764  0.25810194  1
  O  O358  1  0.25478491  0.61809608  0.75638422  1
  O  O359  1  0.75798305  0.11840961  0.25616992  1
  O  O360  1  0.75439585  0.12419831  0.75928654  1
  O  O361  1  0.75676618  0.63189602  0.26054010  1
  O  O362  1  0.75685459  0.62127914  0.75742601  1
  O  O363  1  0.36369166  0.12136898  0.36779478  1
  O  O364  1  0.36796131  0.12234465  0.86502593  1
  O  O365  1  0.36234120  0.62879357  0.36831920  1
  O  O366  1  0.36914746  0.62070601  0.87082298  1
  O  O367  1  0.86910506  0.11649458  0.36933098  1
  O  O368  1  0.86167523  0.13036359  0.87026348  1
  O  O369  1  0.86914232  0.61793155  0.36892665  1
  O  O370  1  0.86285582  0.62606469  0.86677266  1
  O  O371  1  0.13103945  0.38137912  0.13153059  1
  O  O372  1  0.12295251  0.38739757  0.63065776  1
  O  O373  1  0.13699131  0.88567714  0.13103248  1
  O  O374  1  0.14276824  0.86719498  0.63267919  1
  O  O375  1  0.63544845  0.38415669  0.13084973  1
  O  O376  1  0.62020549  0.39290948  0.61648358  1
  O  O377  1  0.61818381  0.89327038  0.12363935  1
  O  O378  1  0.62771160  0.87985719  0.63430188  1
  O  O379  1  0.12166506  0.25839332  0.25715882  1
  O  O380  1  0.11772633  0.26056561  0.75053248  1
  O  O381  1  0.11782543  0.76013696  0.25422079  1
  O  O382  1  0.11973283  0.74969558  0.75909504  1
  O  O383  1  0.62866651  0.26730300  0.25040692  1
  O  O384  1  0.61042448  0.24749584  0.76065220  1
  O  O385  1  0.60944719  0.74904669  0.24962470  1
  O  O386  1  0.61129435  0.75605934  0.74194151  1
  O  O387  1  0.37048258  0.23698691  0.23346136  1
  O  O388  1  0.38935426  0.24208127  0.75391267  1
  O  O389  1  0.38614341  0.74214554  0.25076801  1
  O  O390  1  0.38299125  0.74283816  0.74515158  1
  O  O391  1  0.88090343  0.24770599  0.24320951  1
  O  O392  1  0.88052894  0.23907541  0.75008127  1
  O  O393  1  0.88250995  0.74079180  0.26268234  1
  O  O394  1  0.88362130  0.73379978  0.74139483  1
  O  O395  1  0.36550371  0.49591269  0.49044874  1
  O  O396  1  0.39001061  0.50283320  0.99279929  1
  O  O397  1  0.38551321  0.99684033  0.49949544  1
  O  O398  1  0.37603776  0.98711042  0.99686180  1
  O  O399  1  0.87950362  0.49183900  0.48906204  1
  O  O400  1  0.88611686  0.50041908  1.00679330  1
  O  O401  1  0.86835693  1.00197144  0.48778973  1
  O  O402  1  0.89095295  0.99989050  1.00374354  1
  O  O403  1  0.11601861  -0.00308441  0.01227920  1
  O  O404  1  0.12389036  0.00979648  0.49641184  1
  O  O405  1  0.11989567  0.50512563  0.01051681  1
  O  O406  1  0.11758184  0.50202431  0.50844303  1
  O  O407  1  0.62367493  0.01342069  0.00539680  1
  O  O408  1  0.61787173  -0.00588698  0.51030060  1
  O  O409  1  0.61344756  0.50754099  0.00368346  1
  O  O410  1  0.62838839  0.51303014  0.50795683  1
  O  O411  1  0.36644241  0.36587131  0.13209817  1
  O  O412  1  0.36271137  0.36829615  0.63408394  1
  O  O413  1  0.36356301  0.88218769  0.11882870  1
  O  O414  1  0.36326854  0.86675808  0.62655773  1
  O  O415  1  0.86422277  0.37682514  0.12441394  1
  O  O416  1  0.87543708  0.37324366  0.61066382  1
  O  O417  1  0.92935624  0.84041410  0.15946913  1
  O  O418  1  0.86370039  0.86466965  0.63192611  1
  O  O419  1  0.12753646  0.12743301  0.38237544  1
  O  O420  1  0.14032057  0.12892802  0.86527669  1
  O  O421  1  0.13402415  0.63771191  0.37033034  1
  O  O422  1  0.13472419  0.63394359  0.88109740  1
  O  O423  1  0.64046385  0.12651492  0.36548290  1
  O  O424  1  0.63203907  0.12966839  0.88308244  1
  O  O425  1  0.63054428  0.62368811  0.37844240  1
  O  O426  1  0.62801410  0.62292245  0.88328863  1
