# generated using pymatgen
data_V85Zn86O256
_symmetry_space_group_name_H-M   'P 1'
_cell_length_a   16.94178559
_cell_length_b   16.94376318
_cell_length_c   16.92644529
_cell_angle_alpha   89.96978393
_cell_angle_beta   90.00952208
_cell_angle_gamma   89.99526790
_symmetry_Int_Tables_number   1
_chemical_formula_structural   V85Zn86O256
_chemical_formula_sum   'V85 Zn86 O256'
_cell_volume   4858.86405154
_cell_formula_units_Z   1
loop_
 _symmetry_equiv_pos_site_id
 _symmetry_equiv_pos_as_xyz
  1  'x, y, z'
loop_
 _atom_site_type_symbol
 _atom_site_label
 _atom_site_symmetry_multiplicity
 _atom_site_fract_x
 _atom_site_fract_y
 _atom_site_fract_z
 _atom_site_occupancy
  V  V0  1  0.49480895  0.37786712  0.87233826  1
  V  V1  1  0.87715712  0.74811322  0.62923836  1
  V  V2  1  0.36940526  0.37593692  -0.00530304  1
  V  V3  1  0.24553653  0.51511784  0.74832536  1
  V  V4  1  0.74992928  0.63143501  0.87152606  1
  V  V5  1  0.74686333  0.00412162  0.25423653  1
  V  V6  1  0.50331958  0.49964812  0.00511285  1
  V  V7  1  0.15280073  0.35714008  0.73164742  1
  V  V8  1  0.87393394  0.49892776  0.88503054  1
  V  V9  1  0.75626297  0.61769173  0.37785337  1
  V  V10  1  0.12578007  0.37243569  0.25130714  1
  V  V11  1  0.12452626  0.49798381  0.12193308  1
  V  V12  1  0.62155000  0.37624836  0.23848098  1
  V  V13  1  0.50109241  0.74908688  0.25159985  1
  V  V14  1  0.62427680  0.12689936  0.49965219  1
  V  V15  1  0.12867995  0.62120757  -0.00436433  1
  V  V16  1  0.37616128  0.12189524  0.74883313  1
  V  V17  1  0.25758084  0.12923672  0.37697346  1
  V  V18  1  0.87674513  0.25023291  0.62022487  1
  V  V19  1  0.74667810  0.87462825  0.12602264  1
  V  V20  1  0.00944169  0.88404524  0.38209593  1
  V  V21  1  0.87228158  0.74687639  0.12672951  1
  V  V22  1  0.37664306  0.62289800  0.25508205  1
  V  V23  1  0.00260127  0.87603863  0.87695406  1
  V  V24  1  0.13334872  0.74600651  0.87258438  1
  V  V25  1  0.75047466  -0.00877266  0.75579506  1
  V  V26  1  0.12758154  0.25314137  0.38951873  1
  V  V27  1  0.25226256  0.87063133  0.12960651  1
  V  V28  1  0.00356801  0.62733241  0.62166688  1
  V  V29  1  0.62672665  -0.00226093  0.63266931  1
  V  V30  1  0.38183276  0.86874480  -0.00584880  1
  V  V31  1  0.36725480  0.75676166  0.61005752  1
  V  V32  1  -0.00085371  0.37270739  0.87804236  1
  V  V33  1  0.76094562  0.50300987  0.74872645  1
  V  V34  1  0.62517252  0.62903529  0.00134395  1
  V  V35  1  0.49913157  0.37457546  0.37813888  1
  V  V36  1  0.22941530  0.74636417  0.49424544  1
  V  V37  1  0.62561841  0.25204626  0.87560589  1
  V  V38  1  0.75421139  0.75504313  0.49967374  1
  V  V39  1  0.25826736  -0.00107529  0.24908477  1
  V  V40  1  0.38022565  -0.00442611  0.86594103  1
  V  V41  1  0.36749776  0.50902781  0.87258324  1
  V  V42  1  0.00957666  0.74849512  0.26045756  1
  V  V43  1  0.36372687  0.35879716  0.51178643  1
  V  V44  1  0.75223982  0.12805810  0.37674214  1
  V  V45  1  0.12636394  0.10692709  0.50236605  1
  V  V46  1  0.37532280  0.74460069  0.12697868  1
  V  V47  1  0.37569787  0.63855417  0.74899660  1
  V  V48  1  0.62449348  0.62192366  0.50090202  1
  V  V49  1  -0.00405443  0.50591006  0.49477835  1
  V  V50  1  0.87680610  0.25046216  0.11774218  1
  V  V51  1  0.49624300  0.25107555  0.74594729  1
  V  V52  1  -0.00885406  0.37827261  0.37324075  1
  V  V53  1  0.62419638  0.87417939  0.25217156  1
  V  V54  1  0.20333216  0.06383353  0.81590025  1
  V  V55  1  0.52504813  0.66326747  0.64523988  1
  V  V56  1  0.51414345  0.86387153  0.85558789  1
  V  V57  1  0.62442825  0.37559322  0.74901860  1
  V  V58  1  0.25387803  0.37512750  0.11984598  1
  V  V59  1  -0.00357443  0.25343888  0.75045024  1
  V  V60  1  0.37665490  -0.00765236  0.38267851  1
  V  V61  1  0.12815027  0.50411621  0.61986361  1
  V  V62  1  0.24174150  0.88924649  0.62346029  1
  V  V63  1  0.87571958  0.87715926  0.00202329  1
  V  V64  1  0.25164437  0.74388072  0.00056877  1
  V  V65  1  0.75367735  0.12608202  0.87637264  1
  V  V66  1  0.00040974  0.24022451  0.24721167  1
  V  V67  1  0.62335997  0.12848056  0.00208654  1
  V  V68  1  0.75246062  0.37452418  0.62341063  1
  V  V69  1  -0.00054812  0.62308105  0.12270573  1
  V  V70  1  0.09329804  0.90239798  0.20883296  1
  V  V71  1  0.37222699  0.50349969  0.38509360  1
  V  V72  1  0.48685080  0.24647898  0.24288006  1
  V  V73  1  0.14027949  0.24995132  0.87481979  1
  V  V74  1  0.87529978  0.61707609  0.25342075  1
  V  V75  1  0.62028208  0.49543782  0.62640733  1
  V  V76  1  0.30888503  0.20074921  0.05814870  1
  V  V77  1  0.62043672  0.00388639  0.12539710  1
  V  V78  1  0.74412321  0.49843221  0.24566460  1
  V  V79  1  0.25152373  0.50008735  0.25213256  1
  V  V80  1  0.49714199  0.12684974  0.62333918  1
  V  V81  1  0.11830865  0.12250328  0.01732056  1
  V  V82  1  -0.00148954  0.74411256  0.75362777  1
  V  V83  1  0.62681756  0.74969402  0.37675517  1
  V  V84  1  0.00115807  0.11263713  0.62047437  1
  Zn  Zn85  1  0.87909068  0.00225032  0.38459313  1
  Zn  Zn86  1  0.49554880  0.86867431  0.38564678  1
  Zn  Zn87  1  0.87133874  0.38094356  0.49442134  1
  Zn  Zn88  1  0.50084675  -0.00137096  -0.00167312  1
  Zn  Zn89  1  0.74896168  0.25345381  0.49807377  1
  Zn  Zn90  1  0.74467651  0.75404235  -0.00644690  1
  Zn  Zn91  1  0.75363111  0.38040692  0.11394773  1
  Zn  Zn92  1  0.48734749  0.12887038  0.12401667  1
  Zn  Zn93  1  0.22350926  0.62967251  0.37908047  1
  Zn  Zn94  1  0.01163791  -0.00739659  0.02993662  1
  Zn  Zn95  1  0.50734812  0.61612540  0.12958395  1
  Zn  Zn96  1  0.87851103  0.12406199  0.24811686  1
  Zn  Zn97  1  0.88336776  0.88158222  0.50284056  1
  Zn  Zn98  1  0.87716125  0.00208664  0.88279843  1
  Zn  Zn99  1  0.12743255  0.88335524  0.74909806  1
  Zn  Zn100  1  0.49779643  -0.00737666  0.50559329  1
  Zn  Zn101  1  0.75605770  0.26010896  -0.00297209  1
  Zn  Zn102  1  0.87307646  0.12366391  0.74898900  1
  Zn  Zn103  1  0.49483798  0.50119716  0.50723330  1
  Zn  Zn104  1  -0.00153651  0.49291909  0.00096834  1
  Zn  Zn105  1  0.62313014  0.24999046  0.37172462  1
  Zn  Zn106  1  0.75393860  0.87674978  0.62937734  1
  Zn  Zn107  1  0.18601809  0.18490675  0.19889430  1
  Zn  Zn108  1  0.18607967  0.19120473  0.67579675  1
  Zn  Zn109  1  0.17644017  0.68567995  0.20686961  1
  Zn  Zn110  1  0.18628230  0.69049528  0.68606484  1
  Zn  Zn111  1  0.68766978  0.19365636  0.18705051  1
  Zn  Zn112  1  0.68795023  0.18559444  0.68863748  1
  Zn  Zn113  1  0.68687661  0.68302526  0.18471987  1
  Zn  Zn114  1  0.69502385  0.68609498  0.68768479  1
  Zn  Zn115  1  0.31247191  0.31530405  0.31888597  1
  Zn  Zn116  1  0.30962952  0.31274548  0.79067065  1
  Zn  Zn117  1  0.31008414  0.81188082  0.31594339  1
  Zn  Zn118  1  0.30997092  0.81584532  0.80685192  1
  Zn  Zn119  1  0.81193654  0.31028849  0.30615223  1
  Zn  Zn120  1  0.81381177  0.31480330  0.81258964  1
  Zn  Zn121  1  0.81842470  0.81262421  0.31608005  1
  Zn  Zn122  1  0.81649929  0.81226714  0.81388841  1
  Zn  Zn123  1  0.18716590  0.43904712  0.44037045  1
  Zn  Zn124  1  0.18832844  0.43624147  0.92961537  1
  Zn  Zn125  1  0.19012071  0.92915911  0.43466860  1
  Zn  Zn126  1  0.18538642  0.93031240  0.94775782  1
  Zn  Zn127  1  0.68615903  0.43716228  0.43482918  1
  Zn  Zn128  1  0.68542274  0.44037170  0.93713917  1
  Zn  Zn129  1  0.68292577  0.93960953  0.44100964  1
  Zn  Zn130  1  0.68580382  0.93821540  0.93821841  1
  Zn  Zn131  1  0.30385556  0.04056784  0.05170827  1
  Zn  Zn132  1  0.31252715  0.06825743  0.55908369  1
  Zn  Zn133  1  0.31454458  0.56198790  0.06400582  1
  Zn  Zn134  1  0.31019209  0.57443542  0.56390136  1
  Zn  Zn135  1  0.81280134  0.06772527  0.06603364  1
  Zn  Zn136  1  0.81267230  0.06302994  0.56280630  1
  Zn  Zn137  1  0.80886961  0.56078604  0.06080986  1
  Zn  Zn138  1  0.81703060  0.56429574  0.56505228  1
  Zn  Zn139  1  0.43440024  0.43362429  0.18785746  1
  Zn  Zn140  1  0.43128916  0.44178079  0.68689464  1
  Zn  Zn141  1  0.43632015  0.93620974  0.19128510  1
  Zn  Zn142  1  0.43478627  0.93352119  0.68274979  1
  Zn  Zn143  1  0.93639965  0.43420155  0.18688465  1
  Zn  Zn144  1  0.94136437  0.43672788  0.68805777  1
  Zn  Zn145  1  0.92424487  0.93527835  0.19576304  1
  Zn  Zn146  1  0.93462520  0.93407975  0.69272373  1
  Zn  Zn147  1  0.07058394  0.06124610  0.31639820  1
  Zn  Zn148  1  0.04130293  0.06632768  0.81573670  1
  Zn  Zn149  1  0.06245159  0.56215889  0.31093116  1
  Zn  Zn150  1  0.06045040  0.56163421  0.81040525  1
  Zn  Zn151  1  0.55872008  0.06753897  0.31205837  1
  Zn  Zn152  1  0.56231228  0.05919706  0.81479498  1
  Zn  Zn153  1  0.56201105  0.55873923  0.31661488  1
  Zn  Zn154  1  0.56388389  0.56416697  0.81606512  1
  Zn  Zn155  1  0.43741016  0.18812501  0.43642772  1
  Zn  Zn156  1  0.44222607  0.18192462  0.92891740  1
  Zn  Zn157  1  0.43911059  0.68677080  0.44364067  1
  Zn  Zn158  1  0.44418913  0.68840170  0.93347325  1
  Zn  Zn159  1  0.94025646  0.18655745  0.43755850  1
  Zn  Zn160  1  0.94410722  0.18416677  0.94199929  1
  Zn  Zn161  1  0.94014448  0.69010674  0.43889055  1
  Zn  Zn162  1  0.93586319  0.68559211  0.93727938  1
  Zn  Zn163  1  0.06485107  0.30525478  0.06106998  1
  Zn  Zn164  1  0.05755781  0.31685158  0.56228161  1
  Zn  Zn165  1  0.06060065  0.80495675  0.06091630  1
  Zn  Zn166  1  0.06602945  0.81727540  0.56521821  1
  Zn  Zn167  1  0.55966080  0.31299661  0.06173262  1
  Zn  Zn168  1  0.55769984  0.31112279  0.55970582  1
  Zn  Zn169  1  0.56158521  0.80905622  0.06293195  1
  Zn  Zn170  1  0.56893216  0.81590689  0.57148278  1
  O  O171  1  0.12473800  0.13179448  0.11575849  1
  O  O172  1  0.11987630  0.12866151  0.61042889  1
  O  O173  1  0.11801772  0.61863496  0.12078431  1
  O  O174  1  0.11216757  0.61863726  0.62963005  1
  O  O175  1  0.62591091  0.12070046  0.11547187  1
  O  O176  1  0.61857281  0.11997998  0.61985184  1
  O  O177  1  0.62503348  0.62185543  0.10900718  1
  O  O178  1  0.62883545  0.60977822  0.61740651  1
  O  O179  1  0.38254367  0.38419690  0.38328407  1
  O  O180  1  0.37781141  0.38461306  0.87469763  1
  O  O181  1  0.37633453  0.88841836  0.37397616  1
  O  O182  1  0.38127443  0.87727670  0.87770930  1
  O  O183  1  0.88808760  0.37176894  0.37178812  1
  O  O184  1  0.88667337  0.38423557  0.86810160  1
  O  O185  1  0.88847331  0.87711689  0.37741100  1
  O  O186  1  0.88302628  0.87454910  0.88727556  1
  O  O187  1  0.26034736  0.00244318  0.37150265  1
  O  O188  1  0.25666403  -0.00155323  0.87619163  1
  O  O189  1  0.25372490  0.50787587  0.36987462  1
  O  O190  1  0.26262295  0.51079163  0.87461845  1
  O  O191  1  0.74462156  0.01178643  0.36860498  1
  O  O192  1  0.75241471  0.00794362  0.87269407  1
  O  O193  1  0.74742682  0.51200625  0.36733795  1
  O  O194  1  0.75745855  0.50604420  0.86662250  1
  O  O195  1  0.24483921  0.49220443  0.13114450  1
  O  O196  1  0.23910940  0.51092273  0.63287161  1
  O  O197  1  0.25688885  0.98586620  0.13633363  1
  O  O198  1  0.25450027  0.98711722  0.61745943  1
  O  O199  1  0.75480099  0.49909074  0.14114225  1
  O  O200  1  0.74456202  0.49573635  0.63092600  1
  O  O201  1  0.73785340  0.99787328  0.13283630  1
  O  O202  1  0.74473374  1.00523984  0.63994589  1
  O  O203  1  0.00935778  0.37053415  0.25658097  1
  O  O204  1  0.00684336  0.36428362  0.75511634  1
  O  O205  1  -0.00452310  0.86704357  0.26092670  1
  O  O206  1  0.00557945  0.86582515  0.75962645  1
  O  O207  1  0.50426763  0.37074170  0.25639836  1
  O  O208  1  0.50127623  0.36825567  0.75105624  1
  O  O209  1  0.50580630  0.86469433  0.25558483  1
  O  O210  1  0.50231896  0.87711599  0.75642938  1
  O  O211  1  0.50036080  0.14169174  0.24513775  1
  O  O212  1  0.49479030  0.13058370  0.74526339  1
  O  O213  1  0.49393454  0.62830527  0.25008714  1
  O  O214  1  0.49519462  0.62235708  0.73902731  1
  O  O215  1  1.00588718  0.13729391  0.25653521  1
  O  O216  1  0.99546831  0.13803901  0.74184224  1
  O  O217  1  0.99023650  0.63115175  0.24219008  1
  O  O218  1  1.00197635  0.63783544  0.74386017  1
  O  O219  1  0.37153032  0.25279147  -0.00654245  1
  O  O220  1  0.37415510  0.25892276  0.50078222  1
  O  O221  1  0.37234127  0.75071732  0.00455289  1
  O  O222  1  0.36192476  0.74574483  0.50750395  1
  O  O223  1  0.87954218  0.24740590  0.01369315  1
  O  O224  1  0.87598761  0.25445943  0.51054051  1
  O  O225  1  0.87353239  0.75983165  0.00869736  1
  O  O226  1  0.86860560  0.75234807  0.50723647  1
  O  O227  1  0.12393065  0.25424235  0.49101096  1
  O  O228  1  0.11903366  0.23106968  0.98748660  1
  O  O229  1  0.13042726  0.74685505  0.50009293  1
  O  O230  1  0.13030719  0.74052379  0.99295661  1
  O  O231  1  0.62479176  0.23890914  0.49805920  1
  O  O232  1  0.62327322  0.24266396  0.99363475  1
  O  O233  1  0.63587357  0.73899063  0.49869254  1
  O  O234  1  0.62576069  0.73524205  1.00183607  1
  O  O235  1  0.49717158  0.25143990  0.13740995  1
  O  O236  1  0.50589284  0.23635833  0.63283047  1
  O  O237  1  0.49547230  0.74715802  0.13913766  1
  O  O238  1  0.47437177  0.75770356  0.61081619  1
  O  O239  1  0.99115649  0.25571509  0.13504550  1
  O  O240  1  0.99352108  0.24709558  0.63165551  1
  O  O241  1  0.98678371  0.74394738  0.12996040  1
  O  O242  1  0.99805533  0.74595877  0.63229575  1
  O  O243  1  0.00877382  0.25897978  0.36909153  1
  O  O244  1  0.00331134  0.25424972  0.86761063  1
  O  O245  1  -0.00115991  0.75624884  0.36375407  1
  O  O246  1  0.00598516  0.75630248  0.87122570  1
  O  O247  1  0.49941210  0.25806801  0.36536812  1
  O  O248  1  0.50644036  0.25651931  0.86627319  1
  O  O249  1  0.50669491  0.74655997  0.36729205  1
  O  O250  1  0.49948161  0.76503756  0.87170549  1
  O  O251  1  0.23597586  0.12539632  0.49384761  1
  O  O252  1  0.24692448  0.13594526  1.00680322  1
  O  O253  1  0.24366779  0.63859408  0.49454382  1
  O  O254  1  0.23741436  0.62932298  1.00744120  1
  O  O255  1  0.74215037  0.13035854  0.49315395  1
  O  O256  1  0.74293226  0.12845585  0.99047612  1
  O  O257  1  0.74610257  0.62949761  0.49472976  1
  O  O258  1  0.73967235  0.62483238  0.99291623  1
  O  O259  1  0.25464135  0.37792971  0.00647418  1
  O  O260  1  0.26540685  0.37670282  0.49444120  1
  O  O261  1  0.26474535  0.86590669  0.00563945  1
  O  O262  1  0.24179499  0.86188614  0.51242587  1
  O  O263  1  0.74496650  0.37347590  0.00027125  1
  O  O264  1  0.75193227  0.37431627  0.50628157  1
  O  O265  1  0.75656057  0.87366328  0.00690233  1
  O  O266  1  0.74702449  0.86081307  0.50013715  1
  O  O267  1  0.12856144  0.48579524  0.24216463  1
  O  O268  1  0.13121165  0.49872029  0.74033067  1
  O  O269  1  0.13755328  0.98706002  0.25307726  1
  O  O270  1  0.13496579  1.00819625  0.76578686  1
  O  O271  1  0.63170469  0.49131734  0.25441107  1
  O  O272  1  0.63281782  0.49451400  0.74345643  1
  O  O273  1  0.62989833  0.99722403  0.24547944  1
  O  O274  1  0.63677528  1.01034042  0.74393578  1
  O  O275  1  0.36534770  -0.00162832  0.26033314  1
  O  O276  1  0.37665640  0.00332675  0.75825300  1
  O  O277  1  0.37343596  0.50401328  0.26233329  1
  O  O278  1  0.36794903  0.51423151  0.75267618  1
  O  O279  1  0.85730074  0.00499617  0.25345928  1
  O  O280  1  0.86593091  0.00355598  0.75720583  1
  O  O281  1  0.87044397  0.51234628  0.24881296  1
  O  O282  1  0.86427136  0.49652902  0.75435449  1
  O  O283  1  0.12120332  0.37020774  0.36790438  1
  O  O284  1  0.12246199  0.36497838  0.86089888  1
  O  O285  1  0.11043219  0.87764489  0.36717298  1
  O  O286  1  0.11851280  0.86562321  0.87712832  1
  O  O287  1  0.61004951  0.37547246  0.37102876  1
  O  O288  1  0.61518528  0.37305622  0.86588130  1
  O  O289  1  0.62874907  0.86596777  0.36687897  1
  O  O290  1  0.61245755  0.87763708  0.87702035  1
  O  O291  1  0.36606932  0.13206711  0.10753946  1
  O  O292  1  0.38274364  0.11866501  0.63701634  1
  O  O293  1  0.38271629  0.62898402  0.13315100  1
  O  O294  1  0.38271803  0.63993411  0.63091552  1
  O  O295  1  0.87269242  0.14050579  0.13115799  1
  O  O296  1  0.88317393  0.13481987  0.62495552  1
  O  O297  1  0.87739500  0.63012608  0.12952484  1
  O  O298  1  0.88729991  0.63769579  0.62275304  1
  O  O299  1  0.25175769  0.25439855  0.12708353  1
  O  O300  1  0.23229272  0.29138130  0.69066864  1
  O  O301  1  0.25759678  0.75170120  0.12344765  1
  O  O302  1  0.25255121  0.75073718  0.61302924  1
  O  O303  1  0.76261197  0.25374076  0.12314496  1
  O  O304  1  0.75867854  0.25540149  0.62542806  1
  O  O305  1  0.75956839  0.75307720  0.12492001  1
  O  O306  1  0.76157656  0.74991012  0.61792278  1
  O  O307  1  0.23938098  0.24024406  0.36557790  1
  O  O308  1  0.23929284  0.25473655  0.86758823  1
  O  O309  1  0.25001029  0.75152984  0.39027792  1
  O  O310  1  0.23956452  0.75500724  0.88163658  1
  O  O311  1  0.74670694  0.24006386  0.37437315  1
  O  O312  1  0.74388122  0.24380012  0.87424270  1
  O  O313  1  0.74678901  0.73936780  0.38094406  1
  O  O314  1  0.75553065  0.73630688  0.87443294  1
  O  O315  1  0.01376028  0.11108188  0.00088929  1
  O  O316  1  0.01531983  0.12924807  0.50664210  1
  O  O317  1  0.01018239  0.62335020  0.00656851  1
  O  O318  1  0.00054241  0.61944904  0.50742024  1
  O  O319  1  0.50827715  0.12148938  0.00318283  1
  O  O320  1  0.50514032  0.12209204  0.50795041  1
  O  O321  1  0.51018989  0.61874901  -0.00020192  1
  O  O322  1  0.51441916  0.62962691  0.51791581  1
  O  O323  1  0.48993631  0.37686571  0.49267179  1
  O  O324  1  0.49186278  0.38150313  0.99279012  1
  O  O325  1  0.51733781  0.88163803  0.49533151  1
  O  O326  1  0.48917128  0.87373202  0.99947305  1
  O  O327  1  0.99772478  0.38443732  0.48921058  1
  O  O328  1  1.01281709  0.37404150  0.98227548  1
  O  O329  1  1.00233185  0.86897691  0.48557206  1
  O  O330  1  0.99437761  0.87501071  0.99518289  1
  O  O331  1  0.49029274  0.49364981  0.38178899  1
  O  O332  1  0.48954151  0.49610931  0.87998326  1
  O  O333  1  0.48328784  1.00389420  0.37156737  1
  O  O334  1  0.49341027  0.98825321  0.87651436  1
  O  O335  1  1.00888930  0.49285525  0.38261833  1
  O  O336  1  0.99146389  0.49198372  0.87303018  1
  O  O337  1  0.99831241  0.98773309  0.36782585  1
  O  O338  1  0.99713034  0.98430003  0.87874968  1
  O  O339  1  0.02245001  -0.04140611  0.14318079  1
  O  O340  1  -0.00320767  0.01435015  0.63612846  1
  O  O341  1  0.00593065  0.50294165  0.12263251  1
  O  O342  1  0.00455949  0.50971097  0.62061974  1
  O  O343  1  0.50953412  0.00410514  0.12764065  1
  O  O344  1  0.50743566  0.01084890  0.62833266  1
  O  O345  1  0.49171075  0.49772163  0.10953834  1
  O  O346  1  0.51458157  0.49707969  0.62646090  1
  O  O347  1  0.24490436  0.38017762  0.24456928  1
  O  O348  1  0.24660566  0.40746545  0.76897241  1
  O  O349  1  0.25185642  0.87860719  0.24070732  1
  O  O350  1  0.24469069  0.87198453  0.73149459  1
  O  O351  1  0.73834960  0.38324993  0.25397759  1
  O  O352  1  0.74390073  0.38253622  0.74356006  1
  O  O353  1  0.74466254  0.88212827  0.24612712  1
  O  O354  1  0.75268354  0.88723118  0.75351074  1
  O  O355  1  0.24147130  0.11092710  0.26375040  1
  O  O356  1  0.25537167  0.12114539  0.74599186  1
  O  O357  1  0.26933009  0.61722893  0.24330967  1
  O  O358  1  0.25848949  0.62316385  0.74991346  1
  O  O359  1  0.74489746  0.11874039  0.25851110  1
  O  O360  1  0.75078933  0.12111761  0.76468334  1
  O  O361  1  0.75478203  0.61954611  0.25765324  1
  O  O362  1  0.74552066  0.61530966  0.75824993  1
  O  O363  1  0.36171647  0.11792879  0.38070267  1
  O  O364  1  0.37871487  0.11276679  0.86087090  1
  O  O365  1  0.37810271  0.61754056  0.36936712  1
  O  O366  1  0.38464394  0.62087613  0.86144232  1
  O  O367  1  0.86659781  0.12431134  0.37195064  1
  O  O368  1  0.86770156  0.12360179  0.87738556  1
  O  O369  1  0.86713140  0.63097263  0.36624776  1
  O  O370  1  0.86505040  0.61392111  0.87950616  1
  O  O371  1  0.13526161  0.37433928  0.12957416  1
  O  O372  1  0.11598651  0.38647537  0.63542543  1
  O  O373  1  0.14462686  0.87262244  0.11037135  1
  O  O374  1  0.13508969  0.87910887  0.63031843  1
  O  O375  1  0.62523495  0.37467326  0.13591628  1
  O  O376  1  0.63148483  0.37808663  0.62792801  1
  O  O377  1  0.62781290  0.88231921  0.13003695  1
  O  O378  1  0.63502764  0.89500595  0.62423699  1
  O  O379  1  0.11913558  0.25992894  0.25690486  1
  O  O380  1  0.11151142  0.24900506  0.75906451  1
  O  O381  1  0.10564758  0.78136577  0.22439328  1
  O  O382  1  0.11876719  0.75035256  0.76018802  1
  O  O383  1  0.61533823  0.26111257  0.25173614  1
  O  O384  1  0.61565250  0.25430336  0.75484868  1
  O  O385  1  0.61865406  0.75082919  0.25416803  1
  O  O386  1  0.59540454  0.73787769  0.67785572  1
  O  O387  1  0.38830189  0.25838942  0.25234340  1
  O  O388  1  0.38958630  0.23941458  0.75445936  1
  O  O389  1  0.38242206  0.74172795  0.25044322  1
  O  O390  1  0.36747914  0.74230048  0.73716864  1
  O  O391  1  0.88577790  0.24591025  0.24516408  1
  O  O392  1  0.88020615  0.25009919  0.73943238  1
  O  O393  1  0.88115935  0.74042705  0.24309217  1
  O  O394  1  0.88567799  0.75395280  0.74259517  1
  O  O395  1  0.37428662  0.50516598  0.49291822  1
  O  O396  1  0.38009473  0.49808470  0.99010081  1
  O  O397  1  0.37690221  1.00288014  0.48652926  1
  O  O398  1  0.37810030  0.98743416  0.98498515  1
  O  O399  1  0.89043319  0.49945167  0.50367526  1
  O  O400  1  0.87751900  0.49962296  0.98943916  1
  O  O401  1  0.86720694  0.99363690  0.49756471  1
  O  O402  1  0.88006385  0.98702314  1.00980808  1
  O  O403  1  0.13252089  0.01754018  0.00080222  1
  O  O404  1  0.12594861  0.00920015  0.49441189  1
  O  O405  1  0.12468995  0.50588358  0.00263022  1
  O  O406  1  0.11527277  0.49506883  0.51283444  1
  O  O407  1  0.62352615  0.00834578  0.00974558  1
  O  O408  1  0.62730574  0.01473171  0.51049664  1
  O  O409  1  0.61221245  0.51110543  -0.00743135  1
  O  O410  1  0.62348221  0.50674660  0.50676508  1
  O  O411  1  0.36112071  0.37837033  0.11637466  1
  O  O412  1  0.37762831  0.37801413  0.61041340  1
  O  O413  1  0.37118984  0.86590036  0.11787240  1
  O  O414  1  0.36039186  0.86299794  0.62631569  1
  O  O415  1  0.87095096  0.35792344  0.13487527  1
  O  O416  1  0.86933480  0.36909601  0.62391280  1
  O  O417  1  0.86586112  0.86538067  0.12238723  1
  O  O418  1  0.87467347  0.86283526  0.62341756  1
  O  O419  1  0.13074258  0.13244700  0.38750718  1
  O  O420  1  0.13638006  0.12488253  0.87092326  1
  O  O421  1  0.13271063  0.64775954  0.31229958  1
  O  O422  1  0.11918308  0.63242993  0.88471998  1
  O  O423  1  0.62966608  0.12642705  0.38385021  1
  O  O424  1  0.62993538  0.12893557  0.88546831  1
  O  O425  1  0.63141680  0.62835541  0.38469500  1
  O  O426  1  0.63561227  0.62188995  0.88552601  1
