# generated using pymatgen
data_V85Zn86O256
_symmetry_space_group_name_H-M   'P 1'
_cell_length_a   16.93306495
_cell_length_b   16.92913915
_cell_length_c   16.93077847
_cell_angle_alpha   89.97190181
_cell_angle_beta   89.95440330
_cell_angle_gamma   89.96595562
_symmetry_Int_Tables_number   1
_chemical_formula_structural   V85Zn86O256
_chemical_formula_sum   'V85 Zn86 O256'
_cell_volume   4853.41144356
_cell_formula_units_Z   1
loop_
 _symmetry_equiv_pos_site_id
 _symmetry_equiv_pos_as_xyz
  1  'x, y, z'
loop_
 _atom_site_type_symbol
 _atom_site_label
 _atom_site_symmetry_multiplicity
 _atom_site_fract_x
 _atom_site_fract_y
 _atom_site_fract_z
 _atom_site_occupancy
  V  V0  1  0.37210934  0.37283740  0.00243034  1
  V  V1  1  0.49278631  0.13307951  0.62228923  1
  V  V2  1  0.12317309  0.00979030  0.12620714  1
  V  V3  1  0.61406012  0.38257649  0.25165480  1
  V  V4  1  -0.00111627  0.25970402  0.75953287  1
  V  V5  1  0.25572808  0.36306491  0.62748254  1
  V  V6  1  0.12375262  0.62505119  0.49851150  1
  V  V7  1  0.50165141  0.74822266  0.25012649  1
  V  V8  1  0.50807438  0.62207083  0.12481996  1
  V  V9  1  0.50154502  0.87234934  0.37525559  1
  V  V10  1  0.12448896  0.74914630  0.86721356  1
  V  V11  1  0.87989962  0.75294305  0.63013451  1
  V  V12  1  0.74938150  0.50087345  0.24037036  1
  V  V13  1  0.24013386  0.87178142  0.12644199  1
  V  V14  1  0.74971747  0.37613534  0.62597145  1
  V  V15  1  0.87753839  0.87711433  0.49753977  1
  V  V16  1  0.75208142  0.12714114  0.37352654  1
  V  V17  1  0.75111283  0.25103693  0.49890545  1
  V  V18  1  0.25614928  0.51181322  0.75227128  1
  V  V19  1  0.24626190  0.49089526  0.25050481  1
  V  V20  1  0.75184048  0.74738437  -0.01060677  1
  V  V21  1  0.37331224  0.51154395  0.87344316  1
  V  V22  1  0.25361759  -0.00116516  0.75339568  1
  V  V23  1  0.87289283  0.75046100  0.12259623  1
  V  V24  1  -0.00862973  0.49959291  0.49990782  1
  V  V25  1  0.12881280  0.49785171  0.62574070  1
  V  V26  1  0.12640085  0.75540108  0.36782006  1
  V  V27  1  0.00577770  0.00660674  0.49826494  1
  V  V28  1  0.00076580  0.49835086  -0.01285215  1
  V  V29  1  0.75366966  0.00362820  0.24261156  1
  V  V30  1  0.00090390  0.87550995  0.86935543  1
  V  V31  1  0.24390569  0.24636768  0.00339851  1
  V  V32  1  0.25114497  0.74746178  0.49865335  1
  V  V33  1  0.24596531  0.11960270  0.88367027  1
  V  V34  1  0.62602853  0.36334281  0.75514155  1
  V  V35  1  0.75058482  0.36530276  0.12708514  1
  V  V36  1  0.49855339  0.23701895  0.25171372  1
  V  V37  1  0.37565047  0.75022692  0.12331078  1
  V  V38  1  0.62359126  0.62340746  0.49999253  1
  V  V39  1  0.87720538  0.25124359  0.62334081  1
  V  V40  1  0.37284948  0.00024469  0.37405596  1
  V  V41  1  0.74417285  0.87737851  0.63057619  1
  V  V42  1  0.56281267  0.92541657  0.80952249  1
  V  V43  1  0.50106380  0.36444564  0.87737703  1
  V  V44  1  0.36924785  0.13496955  0.74955027  1
  V  V45  1  0.24983061  0.62229469  0.37179656  1
  V  V46  1  0.50527485  0.49832415  0.00216172  1
  V  V47  1  0.88387069  0.14073486  0.24230003  1
  V  V48  1  0.37620888  0.74013143  0.63049325  1
  V  V49  1  0.50010011  0.49148143  0.49728957  1
  V  V50  1  0.00408442  0.75761567  0.24657116  1
  V  V51  1  0.62987328  0.62378020  -0.00804076  1
  V  V52  1  0.00223729  0.62428933  0.12258354  1
  V  V53  1  0.24800912  0.87403296  0.62705381  1
  V  V54  1  0.74658467  0.50499598  0.76041447  1
  V  V55  1  0.00651234  0.12862520  0.62228016  1
  V  V56  1  0.50335702  0.73954644  0.75603149  1
  V  V57  1  0.60693873  0.13133183  0.00128836  1
  V  V58  1  0.00129754  0.62938684  0.63067452  1
  V  V59  1  0.75116261  0.74971961  0.49805343  1
  V  V60  1  0.37618169  0.87072161  0.49979824  1
  V  V61  1  0.87628003  0.88213151  -0.00467697  1
  V  V62  1  0.25275412  0.74788095  -0.00845741  1
  V  V63  1  0.62654582  0.12424582  0.50085970  1
  V  V64  1  0.74881196  0.24741218  -0.00779481  1
  V  V65  1  -0.00209055  0.38090606  0.36775230  1
  V  V66  1  0.24210273  0.12941421  0.38811027  1
  V  V67  1  0.60767557  0.00668015  0.12242696  1
  V  V68  1  0.12571205  0.49174209  0.12557673  1
  V  V69  1  0.37778026  0.49362676  0.37512346  1
  V  V70  1  0.50212471  -0.00100480  0.50094116  1
  V  V71  1  0.75575155  0.61810864  0.37610176  1
  V  V72  1  0.87675836  0.00201479  0.37156227  1
  V  V73  1  0.38513705  0.88442632  -0.01141469  1
  V  V74  1  0.12428071  0.25626376  0.38293944  1
  V  V75  1  0.24103933  -0.00593028  0.25330154  1
  V  V76  1  0.87730804  0.62157240  0.25304062  1
  V  V77  1  0.62452863  0.49854523  0.62676499  1
  V  V78  1  0.62660792  0.87631698  0.24840287  1
  V  V79  1  0.87299164  0.11891268  0.75745540  1
  V  V80  1  0.13162568  0.62344658  -0.00537591  1
  V  V81  1  0.87692388  0.37185382  -0.00224145  1
  V  V82  1  0.00571661  0.00869679  -0.00631976  1
  V  V83  1  0.87246273  0.62789761  0.75701153  1
  V  V84  1  0.37314939  0.36215709  0.50224549  1
  Zn  Zn85  1  0.37684917  0.62131203  0.24867228  1
  Zn  Zn86  1  0.62263896  -0.00128203  0.63099624  1
  Zn  Zn87  1  0.00186379  0.13865976  0.11934637  1
  Zn  Zn88  1  0.74965194  0.11662420  0.88243951  1
  Zn  Zn89  1  0.62156347  0.25849358  0.37676848  1
  Zn  Zn90  1  0.12821502  0.00503475  0.62213822  1
  Zn  Zn91  1  0.87363795  0.37833106  0.49609851  1
  Zn  Zn92  1  0.75073985  -0.00722167  0.76233858  1
  Zn  Zn93  1  0.00490698  0.87978863  0.36867130  1
  Zn  Zn94  1  0.62720656  0.75375529  0.87023449  1
  Zn  Zn95  1  0.24922251  0.36736610  0.13076037  1
  Zn  Zn96  1  0.12422479  0.25265487  0.87785044  1
  Zn  Zn97  1  0.62705510  0.74884428  0.37265802  1
  Zn  Zn98  1  0.37398880  0.12014858  0.24751217  1
  Zn  Zn99  1  0.87418597  0.49938551  0.87416370  1
  Zn  Zn100  1  0.38168100  0.23722725  0.12084560  1
  Zn  Zn101  1  0.74850193  0.87597396  0.12270230  1
  Zn  Zn102  1  0.49226156  0.25453215  0.74487393  1
  Zn  Zn103  1  0.03914375  0.28477705  0.22385091  1
  Zn  Zn104  1  0.12423678  0.37932443  0.75709169  1
  Zn  Zn105  1  0.12180853  0.87567597  0.74854850  1
  Zn  Zn106  1  0.49492744  0.61958002  0.62768569  1
  Zn  Zn107  1  0.19524469  0.18469348  0.19424762  1
  Zn  Zn108  1  0.18397255  0.18721260  0.69094333  1
  Zn  Zn109  1  0.18905794  0.68080731  0.18508250  1
  Zn  Zn110  1  0.18880960  0.68712191  0.68767195  1
  Zn  Zn111  1  0.68331285  0.18936700  0.18649234  1
  Zn  Zn112  1  0.68913230  0.18510699  0.68518869  1
  Zn  Zn113  1  0.68804699  0.68715507  0.18339122  1
  Zn  Zn114  1  0.68673721  0.68942487  0.68671520  1
  Zn  Zn115  1  0.31395819  0.30941105  0.31617020  1
  Zn  Zn116  1  0.30774602  0.31570981  0.81648284  1
  Zn  Zn117  1  0.31375030  0.81206745  0.30935442  1
  Zn  Zn118  1  0.31648678  0.80988981  0.81168020  1
  Zn  Zn119  1  0.81353274  0.31679251  0.31503776  1
  Zn  Zn120  1  0.81297279  0.31217239  0.81559379  1
  Zn  Zn121  1  0.81277795  0.81194251  0.31157890  1
  Zn  Zn122  1  0.81600299  0.81420267  0.81334081  1
  Zn  Zn123  1  0.18678030  0.43325330  0.44156301  1
  Zn  Zn124  1  0.18913816  0.43380822  0.93423191  1
  Zn  Zn125  1  0.18721752  0.93540123  0.43959142  1
  Zn  Zn126  1  0.18878890  0.93550592  0.94000323  1
  Zn  Zn127  1  0.69084430  0.43947047  0.43312879  1
  Zn  Zn128  1  0.68591046  0.43464437  0.93905517  1
  Zn  Zn129  1  0.68975372  0.93906804  0.43593505  1
  Zn  Zn130  1  0.69046588  0.94462935  0.94511254  1
  Zn  Zn131  1  0.31728166  0.05968841  0.06649234  1
  Zn  Zn132  1  0.31555227  0.06061147  0.56443322  1
  Zn  Zn133  1  0.31475603  0.56214781  0.06244853  1
  Zn  Zn134  1  0.31179538  0.55764906  0.56014647  1
  Zn  Zn135  1  0.81559365  0.06440127  0.06192242  1
  Zn  Zn136  1  0.81528251  0.06215441  0.56678469  1
  Zn  Zn137  1  0.81361733  0.56164148  0.06171460  1
  Zn  Zn138  1  0.81146252  0.56400641  0.56928456  1
  Zn  Zn139  1  0.43513408  0.43771663  0.18521608  1
  Zn  Zn140  1  0.43670942  0.43666149  0.68874690  1
  Zn  Zn141  1  0.43175937  0.93286082  0.18662296  1
  Zn  Zn142  1  0.43050658  0.94081360  0.68449722  1
  Zn  Zn143  1  0.93403139  0.44014443  0.18029980  1
  Zn  Zn144  1  0.93492362  0.44034491  0.68660105  1
  Zn  Zn145  1  0.93814069  0.94056469  0.18166099  1
  Zn  Zn146  1  0.93897310  0.94008018  0.68517673  1
  Zn  Zn147  1  0.06546003  0.06664876  0.31133291  1
  Zn  Zn148  1  0.06663517  0.06396123  0.80916377  1
  Zn  Zn149  1  0.06266206  0.56234589  0.31105080  1
  Zn  Zn150  1  0.06587809  0.56543330  0.80985133  1
  Zn  Zn151  1  0.56640578  0.06078827  0.31574901  1
  Zn  Zn152  1  0.56032614  0.08662577  0.81694288  1
  Zn  Zn153  1  0.56361223  0.56001835  0.31449867  1
  Zn  Zn154  1  0.56031657  0.55953885  0.81558060  1
  Zn  Zn155  1  0.44016889  0.18678588  0.42861083  1
  Zn  Zn156  1  0.42654129  0.18508839  0.93312603  1
  Zn  Zn157  1  0.43823907  0.68187453  0.43725129  1
  Zn  Zn158  1  0.44081855  0.69068620  0.93905256  1
  Zn  Zn159  1  0.94083382  0.19152307  0.43290647  1
  Zn  Zn160  1  0.93303854  0.19094314  0.94083075  1
  Zn  Zn161  1  0.93944386  0.68902677  0.43727423  1
  Zn  Zn162  1  0.94237955  0.68954998  0.93653048  1
  Zn  Zn163  1  0.06228759  0.31444279  0.05164853  1
  Zn  Zn164  1  0.06631223  0.31403489  0.56074351  1
  Zn  Zn165  1  0.06283275  0.81380338  0.05650118  1
  Zn  Zn166  1  0.06303743  0.81351682  0.55913113  1
  Zn  Zn167  1  0.56491077  0.31386289  0.07106101  1
  Zn  Zn168  1  0.56357443  0.31274584  0.56208399  1
  Zn  Zn169  1  0.56493028  0.81388638  0.06120709  1
  Zn  Zn170  1  0.56225987  0.80803122  0.56515405  1
  O  O171  1  0.12558992  0.11262152  0.13006212  1
  O  O172  1  0.11050961  0.12604718  0.62611180  1
  O  O173  1  0.12093736  0.61855788  0.11241004  1
  O  O174  1  0.11819527  0.62082072  0.62054010  1
  O  O175  1  0.62460161  0.11432364  0.11879775  1
  O  O176  1  0.61982907  0.12144207  0.61448557  1
  O  O177  1  0.61332117  0.62973806  0.11488216  1
  O  O178  1  0.62760005  0.61815596  0.61220655  1
  O  O179  1  0.36544752  0.38738776  0.38600111  1
  O  O180  1  0.38135206  0.38171973  0.88607941  1
  O  O181  1  0.38046018  0.87862795  0.38090343  1
  O  O182  1  0.37145827  0.87101120  0.88948439  1
  O  O183  1  0.89257947  0.37322046  0.37868672  1
  O  O184  1  0.86627267  0.38085482  0.89099254  1
  O  O185  1  0.87658018  0.88122211  0.38217908  1
  O  O186  1  0.88495430  0.86846995  0.88727401  1
  O  O187  1  0.25371590  0.00110322  0.37169284  1
  O  O188  1  0.24371665  0.00994450  0.86907593  1
  O  O189  1  0.25170557  0.50418699  0.36985962  1
  O  O190  1  0.26517931  0.49723848  0.86885986  1
  O  O191  1  0.75507713  0.00683593  0.36349456  1
  O  O192  1  0.75319104  0.00236631  0.87453403  1
  O  O193  1  0.75162515  0.51251419  0.36426824  1
  O  O194  1  0.74825832  0.50054261  0.86331060  1
  O  O195  1  0.24407694  0.50030118  0.13304167  1
  O  O196  1  0.24440059  0.49616877  0.63157032  1
  O  O197  1  0.24139713  0.99090014  0.13298103  1
  O  O198  1  0.24847144  0.98935880  0.62857320  1
  O  O199  1  0.75063845  0.49680901  0.13622939  1
  O  O200  1  0.74440408  0.49315893  0.63315458  1
  O  O201  1  0.74780291  0.99950368  0.13508391  1
  O  O202  1  0.74850021  0.98792862  0.62865672  1
  O  O203  1  -0.00176162  0.38647196  0.26213128  1
  O  O204  1  -0.00327105  0.36244438  0.74548165  1
  O  O205  1  -0.00689622  0.86094521  0.24890279  1
  O  O206  1  -0.00013099  0.88294061  0.76397106  1
  O  O207  1  0.51267568  0.38096027  0.25005617  1
  O  O208  1  0.50732010  0.37383971  0.75773669  1
  O  O209  1  0.50515072  0.86822439  0.25546266  1
  O  O210  1  0.50229171  0.86918729  0.74536563  1
  O  O211  1  0.50168001  0.13436963  0.25465556  1
  O  O212  1  0.48924205  0.13036226  0.74100256  1
  O  O213  1  0.50135077  0.62884073  0.24247598  1
  O  O214  1  0.50171729  0.63488706  0.74672538  1
  O  O215  1  0.98739652  0.12536458  0.24988019  1
  O  O216  1  0.99017251  0.13322140  0.74261026  1
  O  O217  1  0.99285459  0.63224837  0.24465374  1
  O  O218  1  0.99245050  0.61981238  0.73620739  1
  O  O219  1  0.36649706  0.25710601  0.00131828  1
  O  O220  1  0.38264104  0.26346151  0.49262464  1
  O  O221  1  0.36823605  0.75225730  0.00625097  1
  O  O222  1  0.37035236  0.75266504  0.50492130  1
  O  O223  1  0.86429273  0.25965658  0.00053576  1
  O  O224  1  0.86937563  0.25085886  0.50759810  1
  O  O225  1  0.87079682  0.75328467  0.00607030  1
  O  O226  1  0.87124078  0.75737480  0.50743436  1
  O  O227  1  0.12480539  0.25080957  0.48503644  1
  O  O228  1  0.13989799  0.24945356  0.99819906  1
  O  O229  1  0.13138005  0.74363665  0.49175775  1
  O  O230  1  0.13357453  0.74265207  0.99344472  1
  O  O231  1  0.63234076  0.24308649  0.49821066  1
  O  O232  1  0.63105506  0.23696173  1.01290949  1
  O  O233  1  0.63223267  0.73983892  0.49879827  1
  O  O234  1  0.63527213  0.74400603  0.99921421  1
  O  O235  1  0.49743931  0.25975943  0.14636113  1
  O  O236  1  0.50319734  0.23705617  0.62409118  1
  O  O237  1  0.49406648  0.74430567  0.12993567  1
  O  O238  1  0.49274909  0.74618567  0.63307640  1
  O  O239  1  1.00618298  0.25175306  0.12513417  1
  O  O240  1  0.99312429  0.24685218  0.62894056  1
  O  O241  1  0.99497935  0.74527784  0.12804882  1
  O  O242  1  0.99201406  0.74232167  0.61859172  1
  O  O243  1  0.00994540  0.26461002  0.37349045  1
  O  O244  1  -0.00121488  0.24643870  0.86169078  1
  O  O245  1  0.00860299  0.75043282  0.36516174  1
  O  O246  1  0.01249899  0.76177674  0.88161693  1
  O  O247  1  0.50476044  0.25269253  0.35934419  1
  O  O248  1  0.49390296  0.26173612  0.87259053  1
  O  O249  1  0.50193441  0.75257048  0.36840826  1
  O  O250  1  0.50070439  0.74892829  0.85964438  1
  O  O251  1  0.25149559  0.11436895  0.48599659  1
  O  O252  1  0.25536519  0.12721607  0.98865741  1
  O  O253  1  0.24412739  0.62842275  0.49220715  1
  O  O254  1  0.24263160  0.63420101  1.00526144  1
  O  O255  1  0.74444172  0.12851328  0.49786605  1
  O  O256  1  0.74861274  0.13534591  1.00406561  1
  O  O257  1  0.74642020  0.62631706  0.49328304  1
  O  O258  1  0.74158197  0.63323408  1.00675144  1
  O  O259  1  0.25814443  0.36578080  0.00239052  1
  O  O260  1  0.25884940  0.38185429  0.51698038  1
  O  O261  1  0.25578765  0.86453015  0.00871974  1
  O  O262  1  0.25529522  0.86659086  0.50656114  1
  O  O263  1  0.75012196  0.36869029  0.00860965  1
  O  O264  1  0.75220061  0.37128854  0.50558134  1
  O  O265  1  0.76028820  0.86733730  0.00316936  1
  O  O266  1  0.76146868  0.87330886  0.50585238  1
  O  O267  1  0.13399036  0.50868473  0.23779599  1
  O  O268  1  0.13207224  0.50080400  0.73966782  1
  O  O269  1  0.12993842  0.99640389  0.24315420  1
  O  O270  1  0.13689226  0.99735052  0.74313459  1
  O  O271  1  0.63333633  0.49139606  0.25244226  1
  O  O272  1  0.63009564  0.49565579  0.74532481  1
  O  O273  1  0.63313932  0.99942836  0.24082323  1
  O  O274  1  0.62157155  0.99545480  0.75242030  1
  O  O275  1  0.36787518  -0.00659390  0.26383516  1
  O  O276  1  0.35952834  0.00992339  0.74367417  1
  O  O277  1  0.36875512  0.50063868  0.25872318  1
  O  O278  1  0.37200611  0.49747857  0.76452453  1
  O  O279  1  0.86895661  0.00347811  0.25374176  1
  O  O280  1  0.87499736  0.01675619  0.74333101  1
  O  O281  1  0.86898494  0.51526137  0.24440120  1
  O  O282  1  0.86586250  0.50859871  0.75039843  1
  O  O283  1  0.11516272  0.36847531  0.37881773  1
  O  O284  1  0.12994921  0.36709239  0.86920701  1
  O  O285  1  0.12448795  0.85936993  0.37782711  1
  O  O286  1  0.11934261  0.86671392  0.87492705  1
  O  O287  1  0.63512674  0.37498364  0.35635444  1
  O  O288  1  0.61416422  0.38067811  0.86629711  1
  O  O289  1  0.61958335  0.87414031  0.36826710  1
  O  O290  1  0.62261918  0.87403599  0.87683179  1
  O  O291  1  0.37276882  0.12412962  0.13492740  1
  O  O292  1  0.38210367  0.12310983  0.63183658  1
  O  O293  1  0.38495131  0.63583521  0.12380793  1
  O  O294  1  0.37443711  0.63674911  0.61770077  1
  O  O295  1  0.87896000  0.12236638  0.14015510  1
  O  O296  1  0.88118158  0.13664766  0.63239527  1
  O  O297  1  0.88113152  0.63430763  0.12973999  1
  O  O298  1  0.88209909  0.63436752  0.63082397  1
  O  O299  1  0.25436538  0.24948584  0.11886803  1
  O  O300  1  0.24494037  0.26475320  0.63023577  1
  O  O301  1  0.25647150  0.75321533  0.11957416  1
  O  O302  1  0.25737708  0.75409031  0.62115405  1
  O  O303  1  0.74798379  0.26170318  0.12140350  1
  O  O304  1  0.75728574  0.25553862  0.61902481  1
  O  O305  1  0.76104814  0.75239243  0.11843709  1
  O  O306  1  0.75745525  0.76004377  0.61787133  1
  O  O307  1  0.24667163  0.23574750  0.37692493  1
  O  O308  1  0.25206413  0.23807744  0.88375972  1
  O  O309  1  0.24529530  0.74293631  0.37608769  1
  O  O310  1  0.24395873  0.75295781  0.88547602  1
  O  O311  1  0.74987306  0.24491465  0.38308162  1
  O  O312  1  0.74803295  0.24846486  0.88902498  1
  O  O313  1  0.74947411  0.73904641  0.38025141  1
  O  O314  1  0.74981256  0.75190283  0.88552072  1
  O  O315  1  -0.00560933  0.11211152  -0.00038240  1
  O  O316  1  -0.00937645  0.11737194  0.50806319  1
  O  O317  1  0.00779445  0.61872425  0.00466081  1
  O  O318  1  0.00435099  0.61953805  0.50797479  1
  O  O319  1  0.50805356  0.13351591  -0.00171042  1
  O  O320  1  0.50645298  0.12062470  0.50281149  1
  O  O321  1  0.50683130  0.61892028  0.00587521  1
  O  O322  1  0.50916601  0.61441103  0.50210021  1
  O  O323  1  0.49339405  0.38530625  0.50544647  1
  O  O324  1  0.49771359  0.38087647  0.99633272  1
  O  O325  1  0.49667478  0.87756155  0.49547621  1
  O  O326  1  0.48431863  0.86880853  1.00454805  1
  O  O327  1  0.99898942  0.38522961  0.49394508  1
  O  O328  1  0.98920542  0.38678064  1.00147162  1
  O  O329  1  0.98883260  0.88120830  0.49814861  1
  O  O330  1  0.99507175  0.88391507  0.99153209  1
  O  O331  1  0.48989511  0.50334773  0.38422821  1
  O  O332  1  0.48999265  0.49182806  0.88206417  1
  O  O333  1  0.49189121  0.99450863  0.37965539  1
  O  O334  1  0.50688076  0.98944152  0.86000569  1
  O  O335  1  1.00879903  0.49045602  0.38489747  1
  O  O336  1  1.00016983  0.50517289  0.88422338  1
  O  O337  1  0.99556810  0.99959188  0.38000425  1
  O  O338  1  1.00927924  0.99523296  0.88681759  1
  O  O339  1  0.00906401  0.00125553  0.11488824  1
  O  O340  1  -0.00017715  0.01034180  0.61628882  1
  O  O341  1  0.00849876  0.50669162  0.11665792  1
  O  O342  1  0.00816282  0.50610044  0.61949810  1
  O  O343  1  0.51003395  -0.00119975  0.13383855  1
  O  O344  1  0.50091623  0.00881843  0.61700122  1
  O  O345  1  0.49269685  0.51031288  0.11414389  1
  O  O346  1  0.50609892  0.50112727  0.61839679  1
  O  O347  1  0.25476085  0.38684827  0.25018165  1
  O  O348  1  0.25242845  0.38542200  0.73876809  1
  O  O349  1  0.25315418  0.88370039  0.24217650  1
  O  O350  1  0.25129877  0.88026592  0.74294342  1
  O  O351  1  0.75043397  0.38350074  0.24375676  1
  O  O352  1  0.74349174  0.38144555  0.74715232  1
  O  O353  1  0.74500051  0.88401049  0.24825749  1
  O  O354  1  0.75650813  0.87440952  0.73449036  1
  O  O355  1  0.25115645  0.10721530  0.26405618  1
  O  O356  1  0.25323347  0.11883608  0.75396407  1
  O  O357  1  0.25432277  0.61531123  0.25687142  1
  O  O358  1  0.25072170  0.61165192  0.74666839  1
  O  O359  1  0.75748992  0.12071064  0.25248998  1
  O  O360  1  0.76385562  0.12599967  0.74902035  1
  O  O361  1  0.75530925  0.62085290  0.25473081  1
  O  O362  1  0.75911270  0.61695726  0.74110951  1
  O  O363  1  0.36544127  0.11468295  0.37266267  1
  O  O364  1  0.35979252  0.12235662  0.86354771  1
  O  O365  1  0.36712523  0.61237199  0.37570435  1
  O  O366  1  0.38005584  0.60997767  0.88183724  1
  O  O367  1  0.87089224  0.12104490  0.36492228  1
  O  O368  1  0.87414946  0.13106384  0.85953956  1
  O  O369  1  0.86862162  0.63161094  0.36544553  1
  O  O370  1  0.88129447  0.62735464  0.85984787  1
  O  O371  1  0.12782894  0.38841872  0.12020195  1
  O  O372  1  0.13513785  0.38355608  0.62800126  1
  O  O373  1  0.13643050  0.87761414  0.12022162  1
  O  O374  1  0.13783733  0.87010078  0.62643510  1
  O  O375  1  0.63598182  0.37739126  0.14082607  1
  O  O376  1  0.62951887  0.38023704  0.63366001  1
  O  O377  1  0.62689452  0.88887657  0.12907611  1
  O  O378  1  0.64153293  0.87606568  0.61588999  1
  O  O379  1  0.13378958  0.24629665  0.27019756  1
  O  O380  1  0.10624080  0.25194857  0.74744025  1
  O  O381  1  0.11616748  0.74112731  0.25517972  1
  O  O382  1  0.13040767  0.75077459  0.76334339  1
  O  O383  1  0.61528936  0.26040758  0.25136656  1
  O  O384  1  0.62430136  0.26065960  0.74634521  1
  O  O385  1  0.61972850  0.75620380  0.24897254  1
  O  O386  1  0.61039616  0.74953547  0.74880241  1
  O  O387  1  0.38887925  0.24923449  0.25343184  1
  O  O388  1  0.37072163  0.23962159  0.75158921  1
  O  O389  1  0.38289439  0.74645858  0.24159644  1
  O  O390  1  0.38876417  0.75307034  0.74149539  1
  O  O391  1  0.87368044  0.23955385  0.25237084  1
  O  O392  1  0.88271485  0.24571726  0.74385570  1
  O  O393  1  0.88004676  0.74241656  0.24114432  1
  O  O394  1  0.87116414  0.74437841  0.73747707  1
  O  O395  1  0.38323950  0.49354266  0.49439298  1
  O  O396  1  0.38193703  0.49429993  0.99186243  1
  O  O397  1  0.38005738  0.99160265  0.49017291  1
  O  O398  1  0.37017168  0.98261880  1.00314274  1
  O  O399  1  0.88804883  0.50182205  0.50749108  1
  O  O400  1  0.88458013  0.49875801  0.99613428  1
  O  O401  1  0.88146437  0.99412631  0.49396575  1
  O  O402  1  0.88985925  0.99080353  1.00742936  1
  O  O403  1  0.11292811  -0.00457732  0.00867543  1
  O  O404  1  0.10956034  -0.00801332  0.50236483  1
  O  O405  1  0.12173770  0.50645425  0.00309282  1
  O  O406  1  0.11942896  0.50555407  0.51121129  1
  O  O407  1  0.62428580  0.01237425  0.01607043  1
  O  O408  1  0.61993913  0.00783373  0.50007750  1
  O  O409  1  0.61336289  0.50644178  -0.00347215  1
  O  O410  1  0.61897493  0.50287411  0.50291289  1
  O  O411  1  0.37304646  0.37603523  0.11092770  1
  O  O412  1  0.36401448  0.37733812  0.61942089  1
  O  O413  1  0.36530316  0.86252741  0.12087143  1
  O  O414  1  0.36497605  0.86533227  0.61903921  1
  O  O415  1  0.86200413  0.38454501  0.11120836  1
  O  O416  1  0.86995038  0.36474193  0.62361838  1
  O  O417  1  0.87690273  0.86505185  0.11436255  1
  O  O418  1  0.87049351  0.87014960  0.61807249  1
  O  O419  1  0.13593177  0.13011715  0.37810585  1
  O  O420  1  0.14197840  0.13157378  0.86743476  1
  O  O421  1  0.13005732  0.63297764  0.37911487  1
  O  O422  1  0.12092328  0.63231296  0.88633555  1
  O  O423  1  0.63277747  0.12602498  0.38685478  1
  O  O424  1  0.62867750  0.12530461  0.89712462  1
  O  O425  1  0.63337122  0.62420750  0.38599074  1
  O  O426  1  0.61984745  0.62899838  0.88830098  1
