# generated using pymatgen
data_V85Zn86O256
_symmetry_space_group_name_H-M   'P 1'
_cell_length_a   16.95932609
_cell_length_b   16.95680912
_cell_length_c   16.95963097
_cell_angle_alpha   89.98965676
_cell_angle_beta   89.99620099
_cell_angle_gamma   90.00449474
_symmetry_Int_Tables_number   1
_chemical_formula_structural   V85Zn86O256
_chemical_formula_sum   'V85 Zn86 O256'
_cell_volume   4877.18366851
_cell_formula_units_Z   1
loop_
 _symmetry_equiv_pos_site_id
 _symmetry_equiv_pos_as_xyz
  1  'x, y, z'
loop_
 _atom_site_type_symbol
 _atom_site_label
 _atom_site_symmetry_multiplicity
 _atom_site_fract_x
 _atom_site_fract_y
 _atom_site_fract_z
 _atom_site_occupancy
  V  V0  1  0.87719063  0.50405556  0.38301823  1
  V  V1  1  0.12033165  0.62413835  0.49890421  1
  V  V2  1  0.37961253  0.11892654  0.25014892  1
  V  V3  1  0.24750364  0.00278956  0.24263126  1
  V  V4  1  0.87267002  0.86835900  0.00108180  1
  V  V5  1  0.11607564  0.61584888  0.00132748  1
  V  V6  1  0.24858993  0.49815990  0.74863471  1
  V  V7  1  0.87910083  0.74677535  0.14459751  1
  V  V8  1  0.37573470  -0.01510543  0.88140915  1
  V  V9  1  0.37137291  0.37064706  0.49931625  1
  V  V10  1  0.24136947  0.49591255  0.24785055  1
  V  V11  1  0.37962153  0.62062272  0.73906966  1
  V  V12  1  0.49983721  0.74450875  0.75261504  1
  V  V13  1  0.87534812  0.25026371  0.12493175  1
  V  V14  1  0.12057087  0.25509204  0.87455281  1
  V  V15  1  -0.00604021  0.37896841  0.39313213  1
  V  V16  1  0.62808609  0.63155397  0.50657662  1
  V  V17  1  0.49981650  0.50642439  0.50851491  1
  V  V18  1  0.76310693  0.24809618  0.50851608  1
  V  V19  1  0.00103943  0.86898493  0.37198601  1
  V  V20  1  0.61166342  0.12653153  0.50875926  1
  V  V21  1  0.24486801  0.37481162  0.12825533  1
  V  V22  1  0.87332118  0.62370710  0.75064425  1
  V  V23  1  0.62510941  0.24644408  0.87697843  1
  V  V24  1  0.50699728  0.25149336  0.25118749  1
  V  V25  1  0.36435745  0.76099630  0.11871694  1
  V  V26  1  0.24707817  0.36954974  0.62152460  1
  V  V27  1  0.00360967  0.26205548  0.25109788  1
  V  V28  1  0.86755033  0.87166027  0.49892591  1
  V  V29  1  0.37488850  0.50589613  0.87588147  1
  V  V30  1  0.62753885  0.75449230  0.37362116  1
  V  V31  1  0.25058438  0.75725887  0.49702566  1
  V  V32  1  0.00474427  0.12249331  0.12724980  1
  V  V33  1  0.62342851  0.75016514  0.87759820  1
  V  V34  1  0.37673123  0.24880878  0.12497338  1
  V  V35  1  0.12759377  0.11952636  0.00354051  1
  V  V36  1  0.62731243  0.62013762  0.00129848  1
  V  V37  1  0.37863768  0.75374132  0.61968860  1
  V  V38  1  0.12323419  0.87211589  0.74528602  1
  V  V39  1  0.76087188  0.37620452  0.62064605  1
  V  V40  1  0.88593188  0.37862772  -0.00038869  1
  V  V41  1  0.12583780  0.13176713  0.49840175  1
  V  V42  1  0.74408188  0.87396275  0.62136226  1
  V  V43  1  0.37514866  0.50065462  0.37444792  1
  V  V44  1  0.74660326  0.24537597  0.00113776  1
  V  V45  1  0.37650546  0.24497346  0.62497344  1
  V  V46  1  0.87390605  0.12563541  0.74313418  1
  V  V47  1  0.37253888  0.62744912  0.24697328  1
  V  V48  1  0.11826620  0.49789311  0.62061577  1
  V  V49  1  0.74814558  0.49728804  0.75388431  1
  V  V50  1  0.12301424  0.00249255  0.62219853  1
  V  V51  1  0.50177935  0.49963366  0.00183888  1
  V  V52  1  0.24977394  0.62644703  0.37528961  1
  V  V53  1  0.87603182  0.12478870  0.25108290  1
  V  V54  1  0.62452883  0.49584789  0.13829917  1
  V  V55  1  0.25157405  0.12558209  0.87304820  1
  V  V56  1  0.88742881  0.49658607  0.87802774  1
  V  V57  1  0.25090813  0.12922031  0.37771873  1
  V  V58  1  0.12112831  0.87766588  0.24068629  1
  V  V59  1  0.50102607  0.23765685  0.74718677  1
  V  V60  1  0.50013690  0.76399780  0.24933282  1
  V  V61  1  0.60978689  0.00383524  0.62547632  1
  V  V62  1  0.13037689  0.26013054  0.37294142  1
  V  V63  1  0.87126876  0.00007197  0.37364186  1
  V  V64  1  0.24834355  -0.00000956  0.74703368  1
  V  V65  1  -0.00196596  0.87455055  0.87261348  1
  V  V66  1  0.51431512  0.11919607  0.11547052  1
  V  V67  1  -0.00111612  0.00059313  0.49881601  1
  V  V68  1  0.74636167  0.37299587  0.13254868  1
  V  V69  1  0.00185740  -0.00180218  0.00530003  1
  V  V70  1  0.75062462  0.62682847  0.36883279  1
  V  V71  1  -0.00238623  0.75011769  0.74671566  1
  V  V72  1  0.62046431  0.87510429  0.75308318  1
  V  V73  1  0.37621028  -0.00433209  0.38760477  1
  V  V74  1  0.87223827  0.00117835  0.87369810  1
  V  V75  1  0.50119344  0.37430843  0.87147910  1
  V  V76  1  0.62831742  0.25581833  0.38171260  1
  V  V77  1  0.37450478  0.37524440  -0.00031219  1
  V  V78  1  0.49980464  0.62474716  0.12772738  1
  V  V79  1  0.86928893  0.75047007  0.62237922  1
  V  V80  1  0.49763483  0.87945245  0.39296903  1
  V  V81  1  0.50332194  0.37776893  0.37314369  1
  V  V82  1  -0.00292381  0.62246300  0.62077650  1
  V  V83  1  0.74150517  0.88005661  0.13212210  1
  V  V84  1  -0.00611591  0.25549428  0.74764576  1
  Zn  Zn85  1  0.10553171  0.48953760  0.11775426  1
  Zn  Zn86  1  0.62575062  0.37430424  0.74540291  1
  Zn  Zn87  1  0.75264228  0.62178173  0.87896959  1
  Zn  Zn88  1  0.11468702  0.74175888  0.36516222  1
  Zn  Zn89  1  0.74668036  0.00228682  0.74923345  1
  Zn  Zn90  1  0.25407557  0.87783771  0.61700082  1
  Zn  Zn91  1  0.24819303  -0.11609874  0.11588275  1
  Zn  Zn92  1  0.73993434  0.00382070  0.24699378  1
  Zn  Zn93  1  0.12453093  0.74575475  0.87701841  1
  Zn  Zn94  1  0.74865740  0.12361798  0.87867214  1
  Zn  Zn95  1  0.62328360  0.50102575  0.62702134  1
  Zn  Zn96  1  0.25027868  0.24889907  -0.00089918  1
  Zn  Zn97  1  0.74821674  0.12573816  0.37820220  1
  Zn  Zn98  1  0.24718707  0.75107810  -0.00543394  1
  Zn  Zn99  1  0.51016076  -0.01832538  0.00594991  1
  Zn  Zn100  1  0.75109576  0.74657195  0.00295392  1
  Zn  Zn101  1  -0.00611239  0.12897341  0.62164922  1
  Zn  Zn102  1  0.11903017  0.37772438  0.75574301  1
  Zn  Zn103  1  0.75027237  0.49674817  0.25552314  1
  Zn  Zn104  1  0.24639348  0.62604259  0.87430138  1
  Zn  Zn105  1  0.37895441  0.11876961  0.74663309  1
  Zn  Zn106  1  -0.00780677  0.62196338  0.14229259  1
  Zn  Zn107  1  0.18758048  0.18799176  0.18947410  1
  Zn  Zn108  1  0.18477852  0.18895226  0.68841329  1
  Zn  Zn109  1  0.15735782  0.67466433  0.19924497  1
  Zn  Zn110  1  0.18980065  0.68639557  0.68462130  1
  Zn  Zn111  1  0.68850694  0.18820644  0.19312563  1
  Zn  Zn112  1  0.68791554  0.18834543  0.68996471  1
  Zn  Zn113  1  0.68845726  0.69127553  0.18871457  1
  Zn  Zn114  1  0.68930946  0.68715638  0.68767444  1
  Zn  Zn115  1  0.31605620  0.31091763  0.31074281  1
  Zn  Zn116  1  0.31216536  0.31283600  0.81030858  1
  Zn  Zn117  1  0.31074790  0.81560005  0.30814911  1
  Zn  Zn118  1  0.30476708  0.80768455  0.80488735  1
  Zn  Zn119  1  0.81587156  0.31408131  0.31635219  1
  Zn  Zn120  1  0.81346622  0.31427729  0.81432558  1
  Zn  Zn121  1  0.80719964  0.81392897  0.31415790  1
  Zn  Zn122  1  0.80603650  0.81089411  0.81262328  1
  Zn  Zn123  1  0.18703762  0.43896624  0.43794659  1
  Zn  Zn124  1  0.18875718  0.43765333  0.94014147  1
  Zn  Zn125  1  0.18632987  0.94079016  0.43146598  1
  Zn  Zn126  1  0.18764869  0.93293330  0.93529846  1
  Zn  Zn127  1  0.68950943  0.44028834  0.44347723  1
  Zn  Zn128  1  0.69123166  0.43204493  0.94078899  1
  Zn  Zn129  1  0.68222945  0.94194758  0.43739305  1
  Zn  Zn130  1  0.68536615  0.93432267  0.94293078  1
  Zn  Zn131  1  0.32026852  0.06172003  0.05969539  1
  Zn  Zn132  1  0.30878571  0.06551441  0.56158462  1
  Zn  Zn133  1  0.30436212  0.56820653  0.06177037  1
  Zn  Zn134  1  0.30823841  0.56220190  0.56108572  1
  Zn  Zn135  1  0.81414102  0.06088580  0.06220146  1
  Zn  Zn136  1  0.80506132  0.05925096  0.56341926  1
  Zn  Zn137  1  0.81509653  0.56023308  0.06792592  1
  Zn  Zn138  1  0.80906676  0.56085016  0.55849106  1
  Zn  Zn139  1  0.43418002  0.43720910  0.18989615  1
  Zn  Zn140  1  0.43659588  0.43178501  0.68671174  1
  Zn  Zn141  1  0.56688617  0.94380176  0.19153490  1
  Zn  Zn142  1  0.43684549  0.93210336  0.69157582  1
  Zn  Zn143  1  0.93028904  0.44143526  0.19465241  1
  Zn  Zn144  1  0.93634893  0.43716506  0.68837770  1
  Zn  Zn145  1  0.93466539  0.93516275  0.18621067  1
  Zn  Zn146  1  0.93551059  0.94052824  0.68431607  1
  Zn  Zn147  1  0.06235939  0.06141119  0.31315995  1
  Zn  Zn148  1  0.06039469  0.06542789  0.81397490  1
  Zn  Zn149  1  0.05928653  0.55732770  0.30816119  1
  Zn  Zn150  1  0.06245782  0.56295819  0.81110438  1
  Zn  Zn151  1  0.56098431  0.06789703  0.32239970  1
  Zn  Zn152  1  0.57667158  0.04340932  0.84535888  1
  Zn  Zn153  1  0.56100121  0.56863081  0.31640601  1
  Zn  Zn154  1  0.56219569  0.56382871  0.81354453  1
  Zn  Zn155  1  0.43591241  0.19015421  0.43850907  1
  Zn  Zn156  1  0.43544362  0.18551375  0.93580859  1
  Zn  Zn157  1  0.43910402  0.68955238  0.43697703  1
  Zn  Zn158  1  0.43344430  0.80831516  0.93856891  1
  Zn  Zn159  1  0.94058368  0.18824964  0.43480951  1
  Zn  Zn160  1  0.93716999  0.18793430  0.93548107  1
  Zn  Zn161  1  0.93373786  0.68770107  0.43725123  1
  Zn  Zn162  1  0.94221113  0.68514539  0.93743893  1
  Zn  Zn163  1  0.06419870  0.30660193  0.06228837  1
  Zn  Zn164  1  0.06230771  0.30848468  0.56585515  1
  Zn  Zn165  1  0.06357321  0.80650468  0.06195752  1
  Zn  Zn166  1  0.06109438  0.81084739  0.55871277  1
  Zn  Zn167  1  0.56378859  0.31198444  0.06199719  1
  Zn  Zn168  1  0.56416434  0.31719466  0.56540038  1
  Zn  Zn169  1  0.56291948  0.80452486  0.06477630  1
  Zn  Zn170  1  0.55991403  0.80818436  0.56709061  1
  O  O171  1  0.11949822  0.12965413  0.11464309  1
  O  O172  1  0.12594450  0.12081153  0.61393073  1
  O  O173  1  0.13619758  0.61093413  0.10635588  1
  O  O174  1  0.11952965  0.61731469  0.61870262  1
  O  O175  1  0.61196906  0.13525873  0.12655255  1
  O  O176  1  0.62737686  0.11938983  0.61732025  1
  O  O177  1  0.62195945  0.61738988  0.12133379  1
  O  O178  1  0.62978424  0.62355813  0.61035140  1
  O  O179  1  0.38090853  0.37822726  0.38329975  1
  O  O180  1  0.38111396  0.38259050  0.87863541  1
  O  O181  1  0.38784190  0.88235685  0.36961706  1
  O  O182  1  0.36805992  0.88050374  0.87083021  1
  O  O183  1  0.88951373  0.37628047  0.38036798  1
  O  O184  1  0.87074171  0.38025434  0.89181636  1
  O  O185  1  0.87778951  0.88118328  0.38069813  1
  O  O186  1  0.87837729  0.88035384  0.87980070  1
  O  O187  1  0.25654346  0.00866791  0.36606540  1
  O  O188  1  0.25766293  0.00429388  0.86655276  1
  O  O189  1  0.25640526  0.50498760  0.36865634  1
  O  O190  1  0.25871797  0.49546082  0.86455656  1
  O  O191  1  0.76204237  0.00264998  0.37612432  1
  O  O192  1  0.76412333  -0.00146775  0.87429392  1
  O  O193  1  0.75214398  0.50874060  0.37593284  1
  O  O194  1  0.75646533  0.49832599  0.86729553  1
  O  O195  1  0.25780025  0.48836730  0.13372157  1
  O  O196  1  0.24199741  0.49096600  0.62996668  1
  O  O197  1  0.25905264  1.00514853  0.13894172  1
  O  O198  1  0.24153426  0.99830656  0.62946938  1
  O  O199  1  0.74245115  0.49126781  0.13094335  1
  O  O200  1  0.74974504  0.48986647  0.63163098  1
  O  O201  1  0.75508747  0.98494451  0.12451879  1
  O  O202  1  0.73956470  0.98803588  0.62873589  1
  O  O203  1  -0.00282593  0.36321492  0.25688951  1
  O  O204  1  -0.00076513  0.35994212  0.74899132  1
  O  O205  1  0.01258642  0.88534611  0.25676780  1
  O  O206  1  0.00320480  0.87041297  0.75043536  1
  O  O207  1  0.49339170  0.36757322  0.26486456  1
  O  O208  1  0.49951721  0.37072049  0.76247210  1
  O  O209  1  0.50268023  0.86537706  0.25198208  1
  O  O210  1  0.51367700  0.86332528  0.74623630  1
  O  O211  1  0.49391833  0.13303210  0.24456341  1
  O  O212  1  0.49739532  0.13763415  0.75605169  1
  O  O213  1  0.48937138  0.63211538  0.24775512  1
  O  O214  1  0.49048380  0.62903513  0.75061124  1
  O  O215  1  0.99174433  0.13038139  0.24844820  1
  O  O216  1  0.99194180  0.13250154  0.74806698  1
  O  O217  1  1.04962841  0.64399112  0.24052646  1
  O  O218  1  0.99319062  0.63073679  0.74095995  1
  O  O219  1  0.37381256  0.25469343  0.00919194  1
  O  O220  1  0.37934538  0.26281786  0.50763450  1
  O  O221  1  0.37222627  0.74450081  0.01465358  1
  O  O222  1  0.36562176  0.74058499  0.50920504  1
  O  O223  1  0.87085748  0.25864379  0.00483277  1
  O  O224  1  0.86150472  0.24318336  0.49959111  1
  O  O225  1  0.87340545  0.76215086  -0.00495070  1
  O  O226  1  0.87690947  0.76482293  0.50563161  1
  O  O227  1  0.12031655  0.23832063  0.49132660  1
  O  O228  1  0.12632981  0.23694393  0.99185095  1
  O  O229  1  0.13229960  0.74097186  0.49712176  1
  O  O230  1  0.12392297  0.73529141  0.99787512  1
  O  O231  1  0.63041914  0.24299543  0.49946454  1
  O  O232  1  0.63462082  0.25575119  0.99127219  1
  O  O233  1  0.61567185  0.73731405  0.49280804  1
  O  O234  1  0.62716472  0.73752695  0.99342945  1
  O  O235  1  0.49384529  0.24809792  0.13367326  1
  O  O236  1  0.48895959  0.26082247  0.63569175  1
  O  O237  1  0.49140969  0.74138959  0.13452305  1
  O  O238  1  0.49107736  0.74819611  0.63734489  1
  O  O239  1  0.99610834  0.24368245  0.13429995  1
  O  O240  1  1.00360585  0.24553251  0.64216346  1
  O  O241  1  0.98026864  0.75305920  0.12374097  1
  O  O242  1  0.99077131  0.74521025  0.62884616  1
  O  O243  1  0.00601545  0.26126612  0.37097311  1
  O  O244  1  0.01005374  0.24223467  0.86330313  1
  O  O245  1  -0.00213649  0.76506569  0.37843268  1
  O  O246  1  0.00122182  0.75708223  0.86366434  1
  O  O247  1  0.50608948  0.25784971  0.37094913  1
  O  O248  1  0.50404804  0.25673390  0.87029110  1
  O  O249  1  0.50300176  0.76212393  0.36943091  1
  O  O250  1  0.50634301  0.74964039  0.86137388  1
  O  O251  1  0.24162982  0.12345277  0.48526283  1
  O  O252  1  0.24397354  0.12400393  0.99320131  1
  O  O253  1  0.24111857  0.63181806  0.49451988  1
  O  O254  1  0.24024946  0.62753096  0.99172280  1
  O  O255  1  0.74287836  0.13793106  0.50221996  1
  O  O256  1  0.75977761  0.14032322  0.99883757  1
  O  O257  1  0.73315166  0.62304564  0.49078824  1
  O  O258  1  0.73834149  0.62212938  1.00290328  1
  O  O259  1  0.25924146  0.37138778  0.00828405  1
  O  O260  1  0.26045123  0.38112779  0.50793796  1
  O  O261  1  0.24040685  0.86707915  0.00499687  1
  O  O262  1  0.24209813  0.86135726  0.49704095  1
  O  O263  1  0.75756623  0.36427271  0.01236766  1
  O  O264  1  0.74701354  0.36360688  0.51212135  1
  O  O265  1  0.75677065  0.87292847  0.01034153  1
  O  O266  1  0.75687702  0.88101589  0.50668573  1
  O  O267  1  0.14027086  0.49266974  0.24749325  1
  O  O268  1  0.13207776  0.49720802  0.74190554  1
  O  O269  1  0.13536100  0.99230890  0.25566311  1
  O  O270  1  0.13107527  0.99610301  0.74482543  1
  O  O271  1  0.62332386  0.50314631  0.24092868  1
  O  O272  1  0.63661284  0.50041453  0.74983175  1
  O  O273  1  0.62812790  1.00814388  0.25782216  1
  O  O274  1  0.62485650  0.99021067  0.74901366  1
  O  O275  1  0.36789493  0.01587400  0.26188728  1
  O  O276  1  0.35793778  -0.00148731  0.74762862  1
  O  O277  1  0.37065982  0.50903397  0.25702931  1
  O  O278  1  0.36907008  0.50219056  0.75120171  1
  O  O279  1  0.87409734  0.00760874  0.25776170  1
  O  O280  1  0.87452361  0.00631620  0.75811112  1
  O  O281  1  0.86512786  0.48971120  0.27437099  1
  O  O282  1  0.86555712  0.50249924  0.75724445  1
  O  O283  1  0.11693786  0.36542947  0.38148230  1
  O  O284  1  0.13236290  0.35866420  0.87586535  1
  O  O285  1  0.11305999  0.87732206  0.36829854  1
  O  O286  1  0.11534251  0.87776058  0.85783014  1
  O  O287  1  0.61738529  0.36484205  0.38523256  1
  O  O288  1  0.61643121  0.36794815  0.87293966  1
  O  O289  1  0.61127221  0.86780389  0.38356343  1
  O  O290  1  0.63376039  0.85745404  0.86565355  1
  O  O291  1  0.38274145  0.13301463  0.13274531  1
  O  O292  1  0.36615772  0.14115162  0.62535600  1
  O  O293  1  0.37860214  0.62540871  0.13661353  1
  O  O294  1  0.36854051  0.63018858  0.63417319  1
  O  O295  1  0.88217758  0.13051750  0.13221187  1
  O  O296  1  0.87367766  0.11657751  0.63901304  1
  O  O297  1  0.87175002  0.64245602  0.12502968  1
  O  O298  1  0.87708562  0.62914424  0.62710089  1
  O  O299  1  0.26252085  0.25491742  0.12813812  1
  O  O300  1  0.25490010  0.26396612  0.63187287  1
  O  O301  1  0.26253547  0.74666754  0.13036211  1
  O  O302  1  0.25662238  0.75089277  0.61445795  1
  O  O303  1  0.75474505  0.25360683  0.12059338  1
  O  O304  1  0.74818229  0.25993448  0.61593869  1
  O  O305  1  0.75911671  0.76090734  0.12493387  1
  O  O306  1  0.75416545  0.76413744  0.62805132  1
  O  O307  1  0.24141299  0.24365058  0.36802763  1
  O  O308  1  0.24421555  0.24072337  0.87392884  1
  O  O309  1  0.25166511  0.74190285  0.38096480  1
  O  O310  1  0.24190890  0.74375539  0.87081221  1
  O  O311  1  0.74372236  0.25279929  0.38890242  1
  O  O312  1  0.74210365  0.25432738  0.88419384  1
  O  O313  1  0.73560575  0.74687041  0.37300310  1
  O  O314  1  0.73960557  0.74186942  0.87812482  1
  O  O315  1  0.00614351  0.11756250  0.00426445  1
  O  O316  1  0.00698551  0.11936552  0.49983456  1
  O  O317  1  0.01236227  0.62678104  0.00632253  1
  O  O318  1  0.01156524  0.63136150  0.50551531  1
  O  O319  1  0.49647219  0.13005988  0.01596660  1
  O  O320  1  0.51287340  0.13251512  0.50229907  1
  O  O321  1  0.51437104  0.61420280  0.01172704  1
  O  O322  1  0.51166390  0.61624041  0.49172198  1
  O  O323  1  0.49262972  0.38268602  0.49059545  1
  O  O324  1  0.49496359  0.37884533  0.98971175  1
  O  O325  1  0.49561592  0.87041536  0.49100617  1
  O  O326  1  0.50339059  0.86964166  0.99916479  1
  O  O327  1  1.00191329  0.37231003  0.49125647  1
  O  O328  1  0.98459762  0.36894059  1.00678052  1
  O  O329  1  0.99237226  0.88223316  0.49254142  1
  O  O330  1  0.99456062  0.88113447  0.99497092  1
  O  O331  1  0.49511681  0.49342301  0.38084475  1
  O  O332  1  0.49430128  0.49232669  0.87934096  1
  O  O333  1  0.49244593  0.98701173  0.37582937  1
  O  O334  1  0.46990925  0.99961037  0.85228297  1
  O  O335  1  0.99596637  0.48632781  0.37221058  1
  O  O336  1  0.98609332  0.49553017  0.86452220  1
  O  O337  1  0.98835783  0.99314801  0.37978603  1
  O  O338  1  0.99037107  0.99542889  0.88268952  1
  O  O339  1  -0.00674389  0.00464286  0.11163412  1
  O  O340  1  0.00601520  0.00396212  0.61631288  1
  O  O341  1  -0.00384808  0.50739560  0.13762961  1
  O  O342  1  0.01071188  0.50446277  0.63049036  1
  O  O343  1  0.50409771  0.01415083  0.12157644  1
  O  O344  1  0.51051716  -0.00444485  0.63025893  1
  O  O345  1  0.50629158  0.50204632  0.12290484  1
  O  O346  1  0.49954857  0.49373753  0.61173686  1
  O  O347  1  0.26214532  0.38322573  0.23990344  1
  O  O348  1  0.24830303  0.38508608  0.74156336  1
  O  O349  1  0.24204630  0.88926567  0.24794801  1
  O  O350  1  0.23778716  0.88187285  0.74295604  1
  O  O351  1  0.75173950  0.36825042  0.23675350  1
  O  O352  1  0.75025074  0.38017304  0.74057597  1
  O  O353  1  0.75437042  0.87992887  0.23543695  1
  O  O354  1  0.73733133  0.87487800  0.74150187  1
  O  O355  1  0.25621772  0.12257324  0.25926303  1
  O  O356  1  0.24836154  0.11625873  0.75629368  1
  O  O357  1  0.25394488  0.61725198  0.25600714  1
  O  O358  1  0.25533986  0.61088549  0.74808873  1
  O  O359  1  0.76446366  0.12692549  0.25464243  1
  O  O360  1  0.75906936  0.12443966  0.75536354  1
  O  O361  1  0.74257567  0.62333289  0.26545606  1
  O  O362  1  0.75738506  0.61511759  0.75008365  1
  O  O363  1  0.36911953  0.12359742  0.37085522  1
  O  O364  1  0.36143653  0.11994209  0.87176090  1
  O  O365  1  0.37049600  0.62216076  0.36486538  1
  O  O366  1  0.37285951  0.60801674  0.85983506  1
  O  O367  1  0.87563202  0.11747483  0.36826941  1
  O  O368  1  0.87486461  0.11559823  0.86748782  1
  O  O369  1  0.86403256  0.61923190  0.38098133  1
  O  O370  1  0.87474037  0.61560043  0.87004532  1
  O  O371  1  0.14060971  0.37240152  0.11828690  1
  O  O372  1  0.13089012  0.38123127  0.62532907  1
  O  O373  1  0.12218484  0.87672144  0.13765014  1
  O  O374  1  0.12171259  0.88276798  0.63201060  1
  O  O375  1  0.63198537  0.38438453  0.12146979  1
  O  O376  1  0.63614570  0.38149906  0.62711847  1
  O  O377  1  0.63734719  0.87134384  0.12614263  1
  O  O378  1  0.62854255  0.87991422  0.62887061  1
  O  O379  1  0.11543318  0.24422520  0.26150979  1
  O  O380  1  0.11391541  0.25058645  0.75773977  1
  O  O381  1  0.14102546  0.77614629  0.25587657  1
  O  O382  1  0.11691585  0.75820227  0.74359607  1
  O  O383  1  0.61396421  0.24561860  0.26364144  1
  O  O384  1  0.61652847  0.25516999  0.75478804  1
  O  O385  1  0.61212794  0.74337289  0.26192986  1
  O  O386  1  0.61821240  0.74990227  0.75588482  1
  O  O387  1  0.38658733  0.24114496  0.24588636  1
  O  O388  1  0.38221251  0.24957013  0.74217476  1
  O  O389  1  0.38090058  0.74325243  0.24510901  1
  O  O390  1  0.38042370  0.73899549  0.74384896  1
  O  O391  1  0.88305985  0.24314658  0.24704127  1
  O  O392  1  0.88672325  0.24214167  0.75885273  1
  O  O393  1  0.87526784  0.75352364  0.24326032  1
  O  O394  1  0.87779609  0.74462943  0.74366988  1
  O  O395  1  0.38070988  0.49525187  0.49417068  1
  O  O396  1  0.38058213  0.49701499  0.99189809  1
  O  O397  1  0.36761153  1.00315137  0.48693567  1
  O  O398  1  0.38291263  1.00088826  0.98368890  1
  O  O399  1  0.86833415  0.49736060  0.48500639  1
  O  O400  1  0.86970026  0.48665140  0.99440862  1
  O  O401  1  0.87818398  0.99288715  0.49426866  1
  O  O402  1  0.88141204  0.98958008  0.99329697  1
  O  O403  1  0.11520500  0.01160895  -0.01041175  1
  O  O404  1  0.11964751  0.01037280  0.50059934  1
  O  O405  1  0.12440951  0.50819386  -0.00115933  1
  O  O406  1  0.13086641  0.51010835  0.51060213  1
  O  O407  1  0.60654428  0.01023827  -0.04761153  1
  O  O408  1  0.62768395  0.01818906  0.50871197  1
  O  O409  1  0.62146202  0.50268113  0.00763531  1
  O  O410  1  0.61606016  0.51213121  0.50029464  1
  O  O411  1  0.37258810  0.36560811  0.11998817  1
  O  O412  1  0.36661460  0.36866364  0.61765294  1
  O  O413  1  0.36921055  0.85867458  0.13053774  1
  O  O414  1  0.37115372  0.85818858  0.63082018  1
  O  O415  1  0.86749178  0.36878351  0.11777111  1
  O  O416  1  0.86033428  0.37706898  0.62666593  1
  O  O417  1  0.86770825  0.86611552  0.11825525  1
  O  O418  1  0.86549514  0.87373341  0.61711874  1
  O  O419  1  0.13120913  0.13358843  0.37946570  1
  O  O420  1  0.13498537  0.13062532  0.88002861  1
  O  O421  1  0.13101109  0.62337625  0.38511504  1
  O  O422  1  0.12355580  0.62263551  0.88442190  1
  O  O423  1  0.62631495  0.13847921  0.39080085  1
  O  O424  1  0.63007331  0.14406470  0.86605409  1
  O  O425  1  0.62930340  0.63459412  0.38334709  1
  O  O426  1  0.62504822  0.63067409  0.88486024  1
