# generated using pymatgen
data_V85Zn86O256
_symmetry_space_group_name_H-M   'P 1'
_cell_length_a   16.92935427
_cell_length_b   16.94975517
_cell_length_c   16.93871180
_cell_angle_alpha   89.97605876
_cell_angle_beta   89.94216535
_cell_angle_gamma   90.00034525
_symmetry_Int_Tables_number   1
_chemical_formula_structural   V85Zn86O256
_chemical_formula_sum   'V85 Zn86 O256'
_cell_volume   4860.53352001
_cell_formula_units_Z   1
loop_
 _symmetry_equiv_pos_site_id
 _symmetry_equiv_pos_as_xyz
  1  'x, y, z'
loop_
 _atom_site_type_symbol
 _atom_site_label
 _atom_site_symmetry_multiplicity
 _atom_site_fract_x
 _atom_site_fract_y
 _atom_site_fract_z
 _atom_site_occupancy
  V  V0  1  0.50089468  -0.00097932  -0.01022915  1
  V  V1  1  0.37515162  0.37621760  0.00223575  1
  V  V2  1  -0.00862651  0.88181741  0.89315278  1
  V  V3  1  0.26247775  0.00274714  0.75173509  1
  V  V4  1  0.24801911  0.62203439  0.87176896  1
  V  V5  1  0.37638705  0.24878942  0.12803256  1
  V  V6  1  0.62831088  0.50854538  0.62027532  1
  V  V7  1  0.01341838  0.47617061  0.52837352  1
  V  V8  1  0.62497190  0.12404885  0.49840703  1
  V  V9  1  0.49313902  0.24469058  0.75115347  1
  V  V10  1  0.37045802  0.62665589  0.25111065  1
  V  V11  1  0.88402401  0.25224852  0.13359330  1
  V  V12  1  0.75531753  0.11591684  0.37188897  1
  V  V13  1  0.75032325  0.24925052  0.00353626  1
  V  V14  1  0.87165294  0.74860978  0.63048823  1
  V  V15  1  0.38456888  0.75066555  0.62495274  1
  V  V16  1  0.62164691  0.74127763  0.37970918  1
  V  V17  1  0.00165176  0.25607068  0.75565524  1
  V  V18  1  0.62436241  0.87493770  0.25051766  1
  V  V19  1  0.24411375  0.62426060  0.38148762  1
  V  V20  1  0.62340893  0.00212406  0.12532834  1
  V  V21  1  0.88076260  0.50691029  0.37411901  1
  V  V22  1  0.88157956  0.49698104  0.87237896  1
  V  V23  1  0.48924933  0.12638932  0.62937726  1
  V  V24  1  0.87338684  0.24713365  0.62547447  1
  V  V25  1  -0.00469956  0.62366004  0.13845397  1
  V  V26  1  0.75039626  0.87318036  0.11896347  1
  V  V27  1  0.61447805  0.75288457  0.87076694  1
  V  V28  1  0.12165144  0.75080711  0.87629568  1
  V  V29  1  0.37521005  0.49432200  0.38122633  1
  V  V30  1  0.62556140  0.00125989  0.62561550  1
  V  V31  1  0.50340683  0.12390808  0.12351761  1
  V  V32  1  0.37924532  0.87775755  -0.01525967  1
  V  V33  1  0.74795147  0.12139319  0.87872155  1
  V  V34  1  0.87482523  0.37100373  0.49434092  1
  V  V35  1  0.24821697  0.49461747  0.25077577  1
  V  V36  1  0.24864138  0.27078841  0.50821275  1
  V  V37  1  0.24716394  0.87892989  0.12373492  1
  V  V38  1  0.88364256  0.37255645  -0.00419081  1
  V  V39  1  0.12103712  0.62361559  0.00192944  1
  V  V40  1  0.12706300  0.00136940  0.62635803  1
  V  V41  1  0.62709041  0.49996908  0.12565604  1
  V  V42  1  0.37352208  0.75245417  0.12625035  1
  V  V43  1  0.74888374  0.73956805  0.49933123  1
  V  V44  1  0.24816421  0.86473763  0.62643896  1
  V  V45  1  0.12370086  0.00041470  0.12469536  1
  V  V46  1  0.50338603  0.37448369  0.37854666  1
  V  V47  1  0.11925485  0.87480627  0.75326037  1
  V  V48  1  0.00037264  0.12223452  0.62618571  1
  V  V49  1  0.26164861  0.12158389  0.87291616  1
  V  V50  1  0.62783608  0.24710608  0.87955296  1
  V  V51  1  0.12039629  0.62605416  0.50159214  1
  V  V52  1  0.75553027  0.50556968  0.25062620  1
  V  V53  1  0.50173155  0.50090686  0.00021477  1
  V  V54  1  0.00090517  0.62776864  0.63437883  1
  V  V55  1  0.50213852  0.51219448  0.50008524  1
  V  V56  1  0.50300373  0.37421363  0.87744557  1
  V  V57  1  0.24080188  0.48616513  0.73687124  1
  V  V58  1  0.74559923  0.24638441  0.49739177  1
  V  V59  1  0.75181017  0.87741819  0.62268816  1
  V  V60  1  0.61300584  0.87207974  0.75160404  1
  V  V61  1  0.49480472  0.75174740  0.25067087  1
  V  V62  1  0.00555642  0.76601186  0.26236846  1
  V  V63  1  0.62813341  0.37650166  0.75001979  1
  V  V64  1  0.37378744  0.49991432  0.87348846  1
  V  V65  1  -0.00400330  -0.00434955  0.48834675  1
  V  V66  1  0.12235214  0.25856755  0.87360889  1
  V  V67  1  0.26097200  0.13047251  0.38031542  1
  V  V68  1  0.00049965  0.37098608  0.35676533  1
  V  V69  1  0.24528209  0.37292221  0.12651348  1
  V  V70  1  0.87372846  0.74719861  0.12713882  1
  V  V71  1  0.38046487  0.62833431  0.74884253  1
  V  V72  1  0.75832350  0.50179483  0.74811840  1
  V  V73  1  0.12193222  0.49652857  0.12993332  1
  V  V74  1  0.36937710  0.87382034  0.49527774  1
  V  V75  1  0.11834015  0.11856396  -0.00630947  1
  V  V76  1  0.49286269  0.00262793  0.49416426  1
  V  V77  1  0.87529552  0.11612282  0.75453516  1
  V  V78  1  0.88620909  0.12276321  0.25184384  1
  V  V79  1  0.12390770  0.25363832  0.36069107  1
  V  V80  1  0.62804393  0.62780025  -0.00213616  1
  V  V81  1  0.24985075  0.75043021  -0.00000939  1
  V  V82  1  0.25461462  0.00459274  0.25360762  1
  V  V83  1  0.75809096  0.62790330  0.87102792  1
  V  V84  1  0.49524494  0.87812815  0.37506730  1
  Zn  Zn85  1  0.87657838  0.87294069  0.48339248  1
  Zn  Zn86  1  0.87353128  -0.00487946  0.91221767  1
  Zn  Zn87  1  0.18886075  0.78910498  0.44450057  1
  Zn  Zn88  1  0.75147684  0.37477033  0.12719733  1
  Zn  Zn89  1  0.12589830  0.13012307  0.49945427  1
  Zn  Zn90  1  0.93734621  -0.06036406  0.31405584  1
  Zn  Zn91  1  0.49884703  0.62624743  0.12432439  1
  Zn  Zn92  1  0.50759284  0.63193969  0.62595300  1
  Zn  Zn93  1  0.00169968  0.49624247  -0.00402263  1
  Zn  Zn94  1  0.74786256  0.37345849  0.62128699  1
  Zn  Zn95  1  0.76485648  -0.01033689  0.25594577  1
  Zn  Zn96  1  0.75145213  -0.00469157  0.75743131  1
  Zn  Zn97  1  0.36016578  0.26198307  0.63070430  1
  Zn  Zn98  1  0.75658599  0.75420791  -0.00507751  1
  Zn  Zn99  1  0.74945760  0.62235313  0.37611826  1
  Zn  Zn100  1  0.00291392  0.12802927  0.12566754  1
  Zn  Zn101  1  0.38099415  0.12125841  0.25423456  1
  Zn  Zn102  1  -0.01022841  0.75015508  0.75896883  1
  Zn  Zn103  1  0.50361704  0.25048663  0.25190027  1
  Zn  Zn104  1  0.62620777  0.37436350  0.25033426  1
  Zn  Zn105  1  0.25019284  0.24736746  -0.00079263  1
  Zn  Zn106  1  0.62640866  0.25002703  0.36988585  1
  Zn  Zn107  1  0.19122181  0.18325516  0.18596435  1
  Zn  Zn108  1  0.18688342  0.18814960  0.69137152  1
  Zn  Zn109  1  0.18356730  0.68729504  0.19115827  1
  Zn  Zn110  1  0.18591223  0.68312734  0.68974132  1
  Zn  Zn111  1  0.69107167  0.18574507  0.19161392  1
  Zn  Zn112  1  0.68614829  0.18677847  0.68948009  1
  Zn  Zn113  1  0.68671596  0.68568025  0.18989228  1
  Zn  Zn114  1  0.69103089  0.68843427  0.69266883  1
  Zn  Zn115  1  0.31383381  0.31259664  0.31356028  1
  Zn  Zn116  1  0.31091004  0.31165399  0.81561599  1
  Zn  Zn117  1  0.29064287  0.82572544  0.31904231  1
  Zn  Zn118  1  0.30964763  0.80954663  0.80840698  1
  Zn  Zn119  1  0.80841076  0.31356422  0.31080043  1
  Zn  Zn120  1  0.81530125  0.31131965  0.81164092  1
  Zn  Zn121  1  0.81407708  0.80342090  0.30777760  1
  Zn  Zn122  1  0.80854430  0.81676863  0.81269268  1
  Zn  Zn123  1  0.18146826  0.43737936  0.43463897  1
  Zn  Zn124  1  0.18915588  0.43838477  0.93889136  1
  Zn  Zn125  1  0.18864673  0.95263676  0.43664407  1
  Zn  Zn126  1  0.18922971  0.93918435  0.93636613  1
  Zn  Zn127  1  0.68672648  0.43845670  0.43746541  1
  Zn  Zn128  1  0.69443592  0.43713419  0.93801681  1
  Zn  Zn129  1  0.68715739  0.93257063  0.43794837  1
  Zn  Zn130  1  0.68223900  0.93786796  0.93870495  1
  Zn  Zn131  1  0.31494090  0.06330205  0.05763448  1
  Zn  Zn132  1  0.31152030  0.06491406  0.56316793  1
  Zn  Zn133  1  0.31019758  0.56308006  0.06234329  1
  Zn  Zn134  1  0.31274062  0.56122653  0.56309899  1
  Zn  Zn135  1  0.80301789  0.07033513  0.06904070  1
  Zn  Zn136  1  0.81517512  0.06141990  0.56117934  1
  Zn  Zn137  1  0.81396649  0.56320933  0.06023393  1
  Zn  Zn138  1  0.82084581  0.55998128  0.56263737  1
  Zn  Zn139  1  0.43825716  0.43761151  0.19087081  1
  Zn  Zn140  1  0.43425835  0.44175311  0.68897983  1
  Zn  Zn141  1  0.43352161  0.93716708  0.18373539  1
  Zn  Zn142  1  0.43787315  0.93721143  0.68291209  1
  Zn  Zn143  1  0.93357618  0.43896741  0.18563281  1
  Zn  Zn144  1  0.94657204  0.42876579  0.68339342  1
  Zn  Zn145  1  0.91807798  0.95877396  0.12274777  1
  Zn  Zn146  1  0.93715934  0.93572752  0.68575287  1
  Zn  Zn147  1  0.07378703  0.06971473  0.30887922  1
  Zn  Zn148  1  0.06213922  0.05995380  0.81481436  1
  Zn  Zn149  1  0.06273805  0.56010357  0.31606460  1
  Zn  Zn150  1  0.06405637  0.56077665  0.80875998  1
  Zn  Zn151  1  0.56405761  0.06368611  0.31201518  1
  Zn  Zn152  1  0.56615856  0.06296499  0.81008045  1
  Zn  Zn153  1  0.55922644  0.56260367  0.30767816  1
  Zn  Zn154  1  0.56530174  0.56357850  0.81152065  1
  Zn  Zn155  1  0.43483467  0.19656649  0.44531557  1
  Zn  Zn156  1  0.44049752  0.18615956  0.94379936  1
  Zn  Zn157  1  0.43043101  0.68835732  0.43814654  1
  Zn  Zn158  1  0.43726378  0.68730555  0.93717491  1
  Zn  Zn159  1  0.93984040  0.18483263  0.43420677  1
  Zn  Zn160  1  0.93650904  0.18483637  0.93874023  1
  Zn  Zn161  1  0.94132966  0.68813928  0.44278908  1
  Zn  Zn162  1  0.93727113  0.68866041  0.94279411  1
  Zn  Zn163  1  0.06406941  0.30959706  0.05927147  1
  Zn  Zn164  1  0.06081698  0.30810907  0.55893677  1
  Zn  Zn165  1  0.06204471  0.81046624  0.07057698  1
  Zn  Zn166  1  0.05637625  0.81458688  0.56633995  1
  Zn  Zn167  1  0.56443343  0.31246638  0.06392528  1
  Zn  Zn168  1  0.52655577  0.33578572  0.58186670  1
  Zn  Zn169  1  0.56131979  0.81355567  0.05960970  1
  Zn  Zn170  1  0.56324361  0.81499215  0.55993373  1
  O  O171  1  0.12909737  0.12213740  0.11011597  1
  O  O172  1  0.11750328  0.11700124  0.62629372  1
  O  O173  1  0.12029690  0.61600567  0.11888333  1
  O  O174  1  0.10834251  0.62705615  0.62213889  1
  O  O175  1  0.61963233  0.11087053  0.13168234  1
  O  O176  1  0.62447490  0.11258668  0.61965091  1
  O  O177  1  0.62436667  0.61674110  0.11585319  1
  O  O178  1  0.62540459  0.61275842  0.63573284  1
  O  O179  1  0.38155810  0.38841536  0.36974858  1
  O  O180  1  0.38188973  0.37869211  0.88277328  1
  O  O181  1  0.37657985  0.87129197  0.38897621  1
  O  O182  1  0.37049896  0.86743605  0.88582589  1
  O  O183  1  0.87943329  0.37864295  0.37859448  1
  O  O184  1  0.86865125  0.38364197  0.88367009  1
  O  O185  1  0.86002070  0.88281114  0.37166117  1
  O  O186  1  0.88673038  0.87758220  0.87471887  1
  O  O187  1  0.24996772  0.01997393  0.36637037  1
  O  O188  1  0.24809653  0.01224344  0.86697194  1
  O  O189  1  0.25467995  0.50249352  0.36829929  1
  O  O190  1  0.25730329  0.50622005  0.87340950  1
  O  O191  1  0.74163977  0.01175383  0.37416756  1
  O  O192  1  0.75430236  0.00680339  0.87927807  1
  O  O193  1  0.75960531  0.50127952  0.37040688  1
  O  O194  1  0.75867128  0.50674866  0.86760043  1
  O  O195  1  0.24384042  0.49345748  0.13126983  1
  O  O196  1  0.25318414  0.49936071  0.63791322  1
  O  O197  1  0.24500868  0.99672710  0.12543872  1
  O  O198  1  0.24260125  0.99445662  0.63145894  1
  O  O199  1  0.74446613  0.50069784  0.13102091  1
  O  O200  1  0.74759425  0.49717073  0.63066648  1
  O  O201  1  0.73761040  0.99110237  0.13103849  1
  O  O202  1  0.74281889  0.99303430  0.62203760  1
  O  O203  1  -0.00560541  0.37291961  0.25722287  1
  O  O204  1  -0.00998678  0.35463811  0.75780191  1
  O  O205  1  -0.00034114  0.86607698  0.24962340  1
  O  O206  1  0.01031421  0.87303998  0.75221979  1
  O  O207  1  0.50302556  0.37716072  0.26333710  1
  O  O208  1  0.51408269  0.37000805  0.76080613  1
  O  O209  1  0.50145651  0.87035210  0.25511261  1
  O  O210  1  0.51366285  0.87991739  0.74481376  1
  O  O211  1  0.49830115  0.12552984  0.23831649  1
  O  O212  1  0.50480165  0.13203737  0.74284247  1
  O  O213  1  0.48847696  0.63345700  0.24680277  1
  O  O214  1  0.48489104  0.61798797  0.74882656  1
  O  O215  1  0.99032805  0.12594237  0.25126002  1
  O  O216  1  0.99344370  0.12659433  0.74489357  1
  O  O217  1  1.00288360  0.62308062  0.23966324  1
  O  O218  1  1.00212460  0.63170535  0.73886506  1
  O  O219  1  0.37450818  0.25689267  0.01163143  1
  O  O220  1  0.35195951  0.25216806  0.50294842  1
  O  O221  1  0.36946281  0.75384128  0.00608507  1
  O  O222  1  0.37383963  0.76047758  0.51066259  1
  O  O223  1  0.86972213  0.25479299  0.00515772  1
  O  O224  1  0.86719899  0.25158831  0.50274364  1
  O  O225  1  0.87280699  0.74619344  0.01855699  1
  O  O226  1  0.86748270  0.75511688  0.50825839  1
  O  O227  1  0.13517226  0.25047072  0.49484119  1
  O  O228  1  0.12807712  0.23807082  0.98999398  1
  O  O229  1  0.11858559  0.73622280  0.50923883  1
  O  O230  1  0.13010455  0.74239156  0.99798266  1
  O  O231  1  0.64008618  0.24363179  0.50064216  1
  O  O232  1  0.63282135  0.25649731  0.98765003  1
  O  O233  1  0.63310684  0.75501472  0.49073818  1
  O  O234  1  0.62766057  0.74168755  0.99386575  1
  O  O235  1  0.49501864  0.24164334  0.12326324  1
  O  O236  1  0.52089197  0.23450870  0.64025211  1
  O  O237  1  0.49003915  0.74915305  0.12955949  1
  O  O238  1  0.48961703  0.75064944  0.62221557  1
  O  O239  1  0.98847434  0.24815842  0.12096129  1
  O  O240  1  0.99692009  0.23615175  0.63212125  1
  O  O241  1  0.99090561  0.74222422  0.13054800  1
  O  O242  1  0.98751214  0.74379751  0.62780012  1
  O  O243  1  0.01581586  0.25357846  0.37708985  1
  O  O244  1  0.01352548  0.23990687  0.86966602  1
  O  O245  1  -0.00671272  0.74928764  0.36200622  1
  O  O246  1  0.00305898  0.76069519  0.87635647  1
  O  O247  1  0.50114255  0.26108176  0.37708606  1
  O  O248  1  0.50941229  0.25144055  0.87217245  1
  O  O249  1  0.50274301  0.75683296  0.37158812  1
  O  O250  1  0.51499593  0.74495883  0.87706558  1
  O  O251  1  0.24625459  0.12775432  0.49241229  1
  O  O252  1  0.24355159  0.12591015  0.98743288  1
  O  O253  1  0.23375183  0.61239419  0.49481687  1
  O  O254  1  0.23888956  0.62840692  0.99493250  1
  O  O255  1  0.74786912  0.12829629  0.49340385  1
  O  O256  1  0.75115193  0.13998714  0.99288805  1
  O  O257  1  0.75341289  0.63619686  0.50098504  1
  O  O258  1  0.73987857  0.62503130  0.99185492  1
  O  O259  1  0.25804015  0.37337638  0.00912580  1
  O  O260  1  0.24436223  0.36967780  0.50293480  1
  O  O261  1  0.25852027  0.87200330  0.00474903  1
  O  O262  1  0.25546228  0.87926223  0.51381747  1
  O  O263  1  0.75965748  0.36336037  0.00082676  1
  O  O264  1  0.75957323  0.36541906  0.49728235  1
  O  O265  1  0.73967864  0.87117995  0.01513801  1
  O  O266  1  0.74870070  0.86651200  0.51159560  1
  O  O267  1  0.13230405  0.50220095  0.23784397  1
  O  O268  1  0.14163246  0.50010986  0.75462566  1
  O  O269  1  0.14340753  1.01017302  0.23826188  1
  O  O270  1  0.12881742  0.99385079  0.74080652  1
  O  O271  1  0.62991306  0.50076708  0.23936331  1
  O  O272  1  0.63676501  0.49284462  0.74784529  1
  O  O273  1  0.62121596  0.98554896  0.24469145  1
  O  O274  1  0.63007423  0.99382634  0.74124914  1
  O  O275  1  0.36147573  0.00361096  0.24240793  1
  O  O276  1  0.36157584  -0.00438673  0.74375709  1
  O  O277  1  0.36652816  0.50780005  0.25439437  1
  O  O278  1  0.36816449  0.50650535  0.75686352  1
  O  O279  1  0.88004555  0.00740008  0.23553751  1
  O  O280  1  0.87241368  0.01071855  0.74607588  1
  O  O281  1  0.86813631  0.49789008  0.26039550  1
  O  O282  1  0.86392510  0.48713436  0.75519334  1
  O  O283  1  0.11597524  0.36370614  0.37380055  1
  O  O284  1  0.12866302  0.35709885  0.88418888  1
  O  O285  1  0.18905582  0.86637562  0.36664337  1
  O  O286  1  0.11622049  0.87241107  0.87062635  1
  O  O287  1  0.61796882  0.37325934  0.37252755  1
  O  O288  1  0.62383863  0.36961522  0.87026446  1
  O  O289  1  0.61740643  0.86669602  0.36772536  1
  O  O290  1  0.63254023  0.86536773  0.86388315  1
  O  O291  1  0.38246978  0.13422777  0.12427010  1
  O  O292  1  0.38708135  0.13481442  0.62186651  1
  O  O293  1  0.37118302  0.63797324  0.12845277  1
  O  O294  1  0.37551569  0.63498861  0.63089360  1
  O  O295  1  0.87620397  0.13650129  0.13532796  1
  O  O296  1  0.88168293  0.12784041  0.63234146  1
  O  O297  1  0.88380897  0.63151071  0.12228453  1
  O  O298  1  0.87931673  0.64391309  0.62002237  1
  O  O299  1  0.25719840  0.25794554  0.12360923  1
  O  O300  1  0.24402848  0.25152215  0.61473500  1
  O  O301  1  0.25335015  0.75730982  0.11985947  1
  O  O302  1  0.25447347  0.76158419  0.63254350  1
  O  O303  1  0.75737197  0.25079441  0.11709506  1
  O  O304  1  0.75550261  0.24911415  0.61748645  1
  O  O305  1  0.75806254  0.75263880  0.12710493  1
  O  O306  1  0.75592392  0.75512465  0.61955337  1
  O  O307  1  0.24146003  0.25174850  0.38392227  1
  O  O308  1  0.23961134  0.23868981  0.87362983  1
  O  O309  1  0.26409899  0.72534737  0.37618707  1
  O  O310  1  0.24214175  0.74232166  0.88090772  1
  O  O311  1  0.75055318  0.23779072  0.38194213  1
  O  O312  1  0.74570453  0.24336019  0.88069856  1
  O  O313  1  0.74071096  0.74523635  0.38181017  1
  O  O314  1  0.74584252  0.74191707  0.87578897  1
  O  O315  1  0.01530983  0.12561374  0.00062292  1
  O  O316  1  0.00286302  0.11577995  0.50836856  1
  O  O317  1  0.01168076  0.62354215  0.00824178  1
  O  O318  1  0.00680671  0.61641961  0.51128407  1
  O  O319  1  0.49792911  0.11294543  0.01293355  1
  O  O320  1  0.50403138  0.12054323  0.50652556  1
  O  O321  1  0.51178284  0.61900810  -0.00045061  1
  O  O322  1  0.49867464  0.61673312  0.50052574  1
  O  O323  1  0.50644447  0.39333431  0.48388912  1
  O  O324  1  0.49570558  0.38106898  0.99608609  1
  O  O325  1  0.49106799  0.88375840  0.49618787  1
  O  O326  1  0.49301291  0.88756001  1.00167376  1
  O  O327  1  0.98643660  0.37063217  0.48187315  1
  O  O328  1  0.98831865  0.37534378  1.00043121  1
  O  O329  1  1.00036777  0.89153977  0.50209799  1
  O  O330  1  1.00227356  0.87300554  0.99135468  1
  O  O331  1  0.49296196  0.49906775  0.37943769  1
  O  O332  1  0.49571546  0.49457357  0.88031312  1
  O  O333  1  0.50335740  0.99548793  0.38606910  1
  O  O334  1  0.50743277  1.00794365  0.89112590  1
  O  O335  1  0.99452914  0.48706078  0.37545800  1
  O  O336  1  0.98549410  0.50749370  0.87401193  1
  O  O337  1  1.01056488  1.00345404  0.38466920  1
  O  O338  1  0.99697355  0.98498202  0.87523638  1
  O  O339  1  0.02091600  0.00708642  0.13207932  1
  O  O340  1  0.00694328  0.00769420  0.62136402  1
  O  O341  1  0.00680838  0.50480737  0.12237321  1
  O  O342  1  -0.02989066  0.52709415  0.62500773  1
  O  O343  1  0.50518357  0.00549648  0.12041684  1
  O  O344  1  0.50685778  0.00889373  0.61909981  1
  O  O345  1  0.50708506  0.50330437  0.11858536  1
  O  O346  1  0.50997476  0.50606102  0.61667778  1
  O  O347  1  0.25503190  0.38705585  0.24225638  1
  O  O348  1  0.25605874  0.38682309  0.75139560  1
  O  O349  1  0.26027459  0.88669231  0.22756152  1
  O  O350  1  0.23815697  0.88261929  0.74712592  1
  O  O351  1  0.74674745  0.38913965  0.24737479  1
  O  O352  1  0.74062735  0.37837397  0.74828186  1
  O  O353  1  0.73813318  0.87208838  0.23994916  1
  O  O354  1  0.74335906  0.87722346  0.73584430  1
  O  O355  1  0.25745492  0.12257400  0.25826491  1
  O  O356  1  0.24633985  0.11702133  0.76261755  1
  O  O357  1  0.25118587  0.61363372  0.25567736  1
  O  O358  1  0.25862563  0.61779692  0.75585046  1
  O  O359  1  0.76122866  0.11831797  0.25771580  1
  O  O360  1  0.75785904  0.12309740  0.75991057  1
  O  O361  1  0.74526971  0.61125972  0.25498989  1
  O  O362  1  0.75096664  0.61409081  0.75867763  1
  O  O363  1  0.36501421  0.13725173  0.37386155  1
  O  O364  1  0.36024367  0.13212994  0.87997269  1
  O  O365  1  0.36870163  0.61217871  0.37037345  1
  O  O366  1  0.36876300  0.62125278  0.86885148  1
  O  O367  1  0.86857870  0.12525329  0.36588658  1
  O  O368  1  0.86718112  0.11864623  0.87142889  1
  O  O369  1  0.87698174  0.60893066  0.38571425  1
  O  O370  1  0.86438345  0.61817306  0.88232779  1
  O  O371  1  0.13672859  0.38055439  0.11804964  1
  O  O372  1  0.04820757  0.40893531  0.60821877  1
  O  O373  1  0.13609736  0.88633468  0.11418877  1
  O  O374  1  0.13013400  0.87991390  0.63257203  1
  O  O375  1  0.62788619  0.38973158  0.12201134  1
  O  O376  1  0.62405152  0.38703400  0.63528473  1
  O  O377  1  0.62630546  0.87896849  0.13328602  1
  O  O378  1  0.62994256  0.88449529  0.62835991  1
  O  O379  1  0.13270341  0.24967503  0.26192195  1
  O  O380  1  0.11720366  0.24501736  0.76440712  1
  O  O381  1  0.10470445  0.74733272  0.24398023  1
  O  O382  1  0.12428330  0.75852928  0.75897727  1
  O  O383  1  0.62261577  0.25469571  0.25024040  1
  O  O384  1  0.62395670  0.25753373  0.76228250  1
  O  O385  1  0.61632526  0.75854775  0.25436013  1
  O  O386  1  0.62797959  0.75904078  0.75747774  1
  O  O387  1  0.37912146  0.25140219  0.23727943  1
  O  O388  1  0.39013709  0.25302312  0.75237648  1
  O  O389  1  0.37398936  0.74860101  0.24249678  1
  O  O390  1  0.37029517  0.74112253  0.73971930  1
  O  O391  1  0.86817712  0.24255142  0.24073735  1
  O  O392  1  0.87990721  0.23613257  0.74746432  1
  O  O393  1  0.88638662  0.74535632  0.23684665  1
  O  O394  1  0.87197154  0.75643607  0.73484193  1
  O  O395  1  0.38435378  0.50469787  0.49082129  1
  O  O396  1  0.38047991  0.49756977  0.99442890  1
  O  O397  1  0.38551860  0.99119121  0.51088308  1
  O  O398  1  0.38941660  0.99106670  1.00359261  1
  O  O399  1  0.88645886  0.48617896  0.49606848  1
  O  O400  1  0.87500256  0.49011875  0.99142499  1
  O  O401  1  0.89342376  0.99959701  0.50264894  1
  O  O402  1  0.87756355  1.00084989  1.02450613  1
  O  O403  1  0.13171712  0.01290741  0.00515176  1
  O  O404  1  0.11686124  0.00305112  0.51166832  1
  O  O405  1  0.12414555  0.50623846  0.00967142  1
  O  O406  1  0.10957552  0.50445653  0.49614174  1
  O  O407  1  0.61137150  -0.00650452  0.01215049  1
  O  O408  1  0.61460421  0.00205588  0.50742307  1
  O  O409  1  0.62378528  0.50724406  0.00426880  1
  O  O410  1  0.62068950  0.50046418  0.51020105  1
  O  O411  1  0.36735997  0.37132739  0.12157549  1
  O  O412  1  0.41886171  0.35725017  0.62154701  1
  O  O413  1  0.37064313  0.86404567  0.11356041  1
  O  O414  1  0.36779621  0.86779519  0.61995628  1
  O  O415  1  0.87223072  0.36792946  0.11652090  1
  O  O416  1  0.87337568  0.36386153  0.61324686  1
  O  O417  1  0.86198878  0.85955184  0.13123431  1
  O  O418  1  0.86796866  0.86712261  0.62016420  1
  O  O419  1  0.13613170  0.14053284  0.37694265  1
  O  O420  1  0.13127040  0.12690396  0.88323348  1
  O  O421  1  0.13143232  0.62016827  0.38620143  1
  O  O422  1  0.12675001  0.62906903  0.88331361  1
  O  O423  1  0.63166821  0.12771663  0.38267301  1
  O  O424  1  0.63913441  0.13285867  0.87052076  1
  O  O425  1  0.62172025  0.63890064  0.36963633  1
  O  O426  1  0.63481246  0.63017692  0.87944103  1
