# generated using pymatgen
data_V85Zn86O256
_symmetry_space_group_name_H-M   'P 1'
_cell_length_a   16.95487891
_cell_length_b   16.94615350
_cell_length_c   16.96204415
_cell_angle_alpha   90.04777291
_cell_angle_beta   89.87335074
_cell_angle_gamma   90.05158793
_symmetry_Int_Tables_number   1
_chemical_formula_structural   V85Zn86O256
_chemical_formula_sum   'V85 Zn86 O256'
_cell_volume   4873.51862824
_cell_formula_units_Z   1
loop_
 _symmetry_equiv_pos_site_id
 _symmetry_equiv_pos_as_xyz
  1  'x, y, z'
loop_
 _atom_site_type_symbol
 _atom_site_label
 _atom_site_symmetry_multiplicity
 _atom_site_fract_x
 _atom_site_fract_y
 _atom_site_fract_z
 _atom_site_occupancy
  V  V0  1  -0.00809617  0.12694684  0.61796063  1
  V  V1  1  0.25063246  0.49453014  0.74142063  1
  V  V2  1  0.49740863  0.24449327  0.75105326  1
  V  V3  1  0.50028440  0.74993812  0.75207619  1
  V  V4  1  0.13355411  0.49235337  0.12556967  1
  V  V5  1  0.75033214  0.37686113  0.13576155  1
  V  V6  1  0.87218346  0.49657474  0.87523204  1
  V  V7  1  -0.00083496  0.62842731  0.12335944  1
  V  V8  1  0.87347289  -0.02204900  0.38045197  1
  V  V9  1  0.76453754  0.36944246  0.62122668  1
  V  V10  1  0.88032363  0.12284562  0.25356859  1
  V  V11  1  0.25138900  0.00422024  0.25172510  1
  V  V12  1  0.25263435  0.62641425  0.37517136  1
  V  V13  1  0.37654838  0.49978173  0.37555171  1
  V  V14  1  0.25595340  0.76051779  0.50299922  1
  V  V15  1  -0.00673294  0.24805677  0.74516629  1
  V  V16  1  0.37773037  0.76038798  0.62416430  1
  V  V17  1  0.24798916  0.87543490  0.12722330  1
  V  V18  1  0.50296594  0.62453125  0.62479993  1
  V  V19  1  0.12970975  0.62491343  0.50315078  1
  V  V20  1  0.74971353  0.75386877  -0.00125761  1
  V  V21  1  0.00126635  0.62387204  0.63021784  1
  V  V22  1  0.75029728  0.49744780  0.74937894  1
  V  V23  1  0.49873366  0.37214092  0.87725476  1
  V  V24  1  0.13228012  0.00083411  0.62865427  1
  V  V25  1  0.50527177  0.49960056  0.00025144  1
  V  V26  1  0.12847841  0.62465969  -0.00173148  1
  V  V27  1  0.49846271  0.75424961  0.24797167  1
  V  V28  1  0.75300155  0.87906125  0.61743069  1
  V  V29  1  0.89062119  0.87182339  -0.00991421  1
  V  V30  1  0.12644360  0.25424713  0.37346766  1
  V  V31  1  0.12750334  0.24798783  0.88576013  1
  V  V32  1  0.87667070  0.75101172  0.11872676  1
  V  V33  1  0.86317388  0.12407436  0.74356745  1
  V  V34  1  0.50219998  0.62793817  0.11759822  1
  V  V35  1  0.63132089  0.87618301  0.74990335  1
  V  V36  1  0.62812496  0.49774319  0.62416737  1
  V  V37  1  0.25134906  0.75200302  -0.00500456  1
  V  V38  1  0.24757103  0.25503959  0.50332762  1
  V  V39  1  0.88403337  -0.00766851  0.86371522  1
  V  V40  1  0.62222086  0.74594609  0.88037076  1
  V  V41  1  0.36216992  0.37286256  0.01277711  1
  V  V42  1  0.12905448  0.75613400  0.37240348  1
  V  V43  1  0.63589675  0.62429002  0.49556918  1
  V  V44  1  0.62419659  0.13239130  0.49848351  1
  V  V45  1  0.37766266  0.88459696  0.00005195  1
  V  V46  1  0.50153732  0.88781363  0.87780169  1
  V  V47  1  0.62729849  0.00178758  0.63318640  1
  V  V48  1  0.37481866  0.62388299  0.74944556  1
  V  V49  1  0.87879684  0.24580964  0.12850032  1
  V  V50  1  -0.01005929  0.37275758  0.37296119  1
  V  V51  1  0.11420971  0.01312756  0.12401761  1
  V  V52  1  0.12301911  0.12409589  0.49452079  1
  V  V53  1  0.11397684  0.87126276  0.25048523  1
  V  V54  1  0.62480324  0.37115485  0.74845936  1
  V  V55  1  -0.00596377  0.49589207  0.49844658  1
  V  V56  1  -0.00175816  -0.01722738  0.49541815  1
  V  V57  1  0.74754086  0.11425060  0.88239833  1
  V  V58  1  0.12812725  0.37139234  0.74156850  1
  V  V59  1  0.37639459  0.00487938  0.37292541  1
  V  V60  1  0.75396948  -0.01401716  0.23619624  1
  V  V61  1  0.37113488  0.37657840  0.50179270  1
  V  V62  1  0.50875246  0.37003655  0.37337548  1
  V  V63  1  -0.00062004  0.49672035  0.00237253  1
  V  V64  1  0.87518085  0.75559397  0.62524788  1
  V  V65  1  0.37421950  0.49685280  0.87543529  1
  V  V66  1  0.86902785  0.37223897  0.00336589  1
  V  V67  1  0.74430627  0.62106635  0.87922461  1
  V  V68  1  0.76447847  0.25165423  0.49994470  1
  V  V69  1  0.35745461  0.12228664  0.74750621  1
  V  V70  1  0.36409242  0.24345404  0.13400081  1
  V  V71  1  0.50242889  0.49910622  0.49921595  1
  V  V72  1  0.49670899  -0.00308201  0.50151265  1
  V  V73  1  -0.05041608  0.69678609  0.29809702  1
  V  V74  1  0.24369704  0.12250738  0.89324348  1
  V  V75  1  0.49762863  0.12665191  0.62563968  1
  V  V76  1  0.62682193  0.74855827  0.37504988  1
  V  V77  1  0.37073984  0.25465364  0.62498285  1
  V  V78  1  0.62881540  0.50168859  0.12815198  1
  V  V79  1  0.62528383  0.24306070  0.88374661  1
  V  V80  1  0.74792634  0.12415720  0.37417180  1
  V  V81  1  0.49397026  0.87427350  0.37889343  1
  V  V82  1  -0.00219035  0.37210466  0.87358302  1
  V  V83  1  0.37535515  0.62560467  0.24955988  1
  V  V84  1  0.50963091  0.23960677  0.24873918  1
  Zn  Zn85  1  0.75579225  0.75361703  0.49668930  1
  Zn  Zn86  1  0.13211691  0.36948932  0.24535592  1
  Zn  Zn87  1  0.62701409  0.87743006  0.24372043  1
  Zn  Zn88  1  0.11395032  0.75961442  0.87593836  1
  Zn  Zn89  1  0.26146925  0.88947112  0.62960356  1
  Zn  Zn90  1  0.13224318  0.87679522  0.76070423  1
  Zn  Zn91  1  0.61871721  -0.00190892  0.10825676  1
  Zn  Zn92  1  0.37487689  0.75152400  0.12247224  1
  Zn  Zn93  1  0.36924163  0.00090384  0.87124546  1
  Zn  Zn94  1  0.76096635  0.55440517  0.27043128  1
  Zn  Zn95  1  0.25726341  0.12900832  0.37218299  1
  Zn  Zn96  1  0.62800035  0.37704214  0.25513732  1
  Zn  Zn97  1  0.12928210  0.49339739  0.61932627  1
  Zn  Zn98  1  0.00305239  0.24573854  0.24699838  1
  Zn  Zn99  1  0.25634020  0.49457794  0.24404628  1
  Zn  Zn100  1  0.00932290  0.01221429  -0.00723509  1
  Zn  Zn101  1  0.50546630  0.12159141  0.10888852  1
  Zn  Zn102  1  0.74397890  0.24279779  0.00662455  1
  Zn  Zn103  1  0.86913084  0.50074518  0.37099732  1
  Zn  Zn104  1  -0.00069323  0.76763039  0.75859681  1
  Zn  Zn105  1  0.87674498  0.62667276  0.75227192  1
  Zn  Zn106  1  0.25022839  0.62458575  0.87158204  1
  Zn  Zn107  1  0.18908767  0.18548091  0.18997071  1
  Zn  Zn108  1  0.18061661  0.19035356  0.68254189  1
  Zn  Zn109  1  0.18825942  0.68649357  0.18545236  1
  Zn  Zn110  1  0.18980822  0.69229556  0.69046936  1
  Zn  Zn111  1  0.68846228  0.17905722  0.18346096  1
  Zn  Zn112  1  0.68571987  0.18919194  0.68570256  1
  Zn  Zn113  1  0.67754095  0.69400757  0.17339110  1
  Zn  Zn114  1  0.69052383  0.68802102  0.68927921  1
  Zn  Zn115  1  0.31485329  0.31436879  0.31023853  1
  Zn  Zn116  1  0.30919962  0.31213137  0.81605718  1
  Zn  Zn117  1  0.31342252  0.81802885  0.31219910  1
  Zn  Zn118  1  0.30652139  0.81779274  0.81166262  1
  Zn  Zn119  1  0.80981689  0.30808034  0.31488928  1
  Zn  Zn120  1  0.80945560  0.30747108  0.81234071  1
  Zn  Zn121  1  0.78368032  0.77107444  0.28181551  1
  Zn  Zn122  1  0.81232067  0.81089218  0.80774553  1
  Zn  Zn123  1  0.18817878  0.43738644  0.43135783  1
  Zn  Zn124  1  0.18679031  0.43720140  0.93167895  1
  Zn  Zn125  1  0.18906706  0.93689668  0.43959003  1
  Zn  Zn126  1  0.18575620  0.94057055  0.94055541  1
  Zn  Zn127  1  0.69515754  0.43819099  0.43459680  1
  Zn  Zn128  1  0.68496033  0.43195897  0.94103176  1
  Zn  Zn129  1  0.68130662  0.93860870  0.43534320  1
  Zn  Zn130  1  0.69941532  0.93319505  0.93279321  1
  Zn  Zn131  1  0.31382273  0.06311751  0.06720413  1
  Zn  Zn132  1  0.31414277  0.06928447  0.55481043  1
  Zn  Zn133  1  0.31600088  0.56307338  0.06060704  1
  Zn  Zn134  1  0.31391309  0.56608438  0.56430269  1
  Zn  Zn135  1  0.84970142  0.07065882  0.05003326  1
  Zn  Zn136  1  0.81157529  0.05817272  0.55838336  1
  Zn  Zn137  1  0.81161272  0.56575778  0.06334437  1
  Zn  Zn138  1  0.81553836  0.56286328  0.56186279  1
  Zn  Zn139  1  0.44067959  0.43579345  0.18878136  1
  Zn  Zn140  1  0.43882225  0.43544824  0.68628189  1
  Zn  Zn141  1  0.43745741  0.94313384  0.18586954  1
  Zn  Zn142  1  0.44146452  0.94181084  0.69460961  1
  Zn  Zn143  1  0.93468642  0.44433257  0.19560037  1
  Zn  Zn144  1  0.94011157  0.43962534  0.68756164  1
  Zn  Zn145  1  0.93259107  0.93073601  0.18775521  1
  Zn  Zn146  1  0.94201654  0.94016086  0.68535273  1
  Zn  Zn147  1  0.06031971  0.05652987  0.31365766  1
  Zn  Zn148  1  0.06183189  0.06791871  0.80768441  1
  Zn  Zn149  1  0.06939362  0.55633712  0.31613838  1
  Zn  Zn150  1  0.06420584  0.56315789  0.81506854  1
  Zn  Zn151  1  0.56906381  0.06026553  0.30785247  1
  Zn  Zn152  1  0.56329181  0.06375957  0.94576123  1
  Zn  Zn153  1  0.56384715  0.56330833  0.31057738  1
  Zn  Zn154  1  0.56300358  0.56113809  0.81299505  1
  Zn  Zn155  1  0.43948372  0.18885538  0.43445633  1
  Zn  Zn156  1  0.42342657  0.19378945  0.93745062  1
  Zn  Zn157  1  0.44096998  0.68727670  0.43997823  1
  Zn  Zn158  1  0.43465941  0.68984175  0.93705169  1
  Zn  Zn159  1  0.93689417  0.18395160  0.43265330  1
  Zn  Zn160  1  0.93679613  0.18457968  0.93486651  1
  Zn  Zn161  1  0.94601668  0.69647337  0.45924147  1
  Zn  Zn162  1  0.93617443  0.68100856  0.93627234  1
  Zn  Zn163  1  0.05819927  0.31227462  0.06316842  1
  Zn  Zn164  1  0.05572175  0.31196518  0.55994776  1
  Zn  Zn165  1  0.06502689  0.81459232  0.05949334  1
  Zn  Zn166  1  0.06614097  0.81295751  0.57558407  1
  Zn  Zn167  1  0.55853127  0.31167228  0.06680306  1
  Zn  Zn168  1  0.56395424  0.31323965  0.56214130  1
  Zn  Zn169  1  0.56622435  0.82592906  0.06182608  1
  Zn  Zn170  1  0.56366771  0.81328603  0.56181587  1
  O  O171  1  0.12192401  0.11174951  0.13362794  1
  O  O172  1  0.11763239  0.12027138  0.61058696  1
  O  O173  1  0.12048975  0.61767095  0.11503816  1
  O  O174  1  0.12219601  0.62388242  0.61429544  1
  O  O175  1  0.62161152  0.11395943  0.12549569  1
  O  O176  1  0.61841178  0.11832979  0.62109826  1
  O  O177  1  0.61030272  0.61821623  0.12096269  1
  O  O178  1  0.62142925  0.61907195  0.61963426  1
  O  O179  1  0.38533837  0.38035972  0.38621910  1
  O  O180  1  0.38072201  0.37696685  0.88477210  1
  O  O181  1  0.38656687  0.88329029  0.37617994  1
  O  O182  1  0.38305271  0.87640141  0.88115378  1
  O  O183  1  0.88773551  0.37174147  0.37463893  1
  O  O184  1  0.87539431  0.37699536  0.88315397  1
  O  O185  1  0.87017060  0.88270986  0.37539304  1
  O  O186  1  0.87693654  0.88431502  0.86963996  1
  O  O187  1  0.25920419  -0.00189772  0.37076373  1
  O  O188  1  0.24776481  0.01948083  0.87831928  1
  O  O189  1  0.26005033  0.51142542  0.37773268  1
  O  O190  1  0.25835540  0.49999412  0.86338277  1
  O  O191  1  0.76173221  0.00354997  0.37734350  1
  O  O192  1  0.75948787  0.01107395  0.86637124  1
  O  O193  1  0.75453347  0.50839429  0.37572721  1
  O  O194  1  0.74992602  0.50306542  0.87259953  1
  O  O195  1  0.23636055  0.50548782  0.12306655  1
  O  O196  1  0.24978806  0.50153931  0.63674922  1
  O  O197  1  0.24269460  0.99418386  0.13340327  1
  O  O198  1  0.23615029  1.00760960  0.61214179  1
  O  O199  1  0.73912871  0.49551700  0.11891934  1
  O  O200  1  0.74651469  0.49185721  0.62732293  1
  O  O201  1  0.76524894  1.00042074  0.13939512  1
  O  O202  1  0.73947263  0.99321688  0.62124551  1
  O  O203  1  0.00674969  0.37459366  0.26369868  1
  O  O204  1  0.00392068  0.36760021  0.75537767  1
  O  O205  1  0.01493439  0.87555940  0.24781680  1
  O  O206  1  0.01920186  0.87526473  0.72847692  1
  O  O207  1  0.50431517  0.37002009  0.25920292  1
  O  O208  1  0.50323537  0.36477616  0.75503914  1
  O  O209  1  0.49282586  0.86271925  0.25632898  1
  O  O210  1  0.50836096  0.86845366  0.75824037  1
  O  O211  1  0.50331364  0.13927939  0.25746110  1
  O  O212  1  0.48628811  0.13994529  0.74403353  1
  O  O213  1  0.49398138  0.63521965  0.24321069  1
  O  O214  1  0.49533654  0.62867627  0.74453118  1
  O  O215  1  0.98447018  0.12424307  0.25883024  1
  O  O216  1  0.99079641  0.13157237  0.73878824  1
  O  O217  1  1.00655596  0.62827742  0.24414877  1
  O  O218  1  1.00002989  0.61090999  0.73393121  1
  O  O219  1  0.37568496  0.26636908  0.01630370  1
  O  O220  1  0.36737327  0.25692455  0.50238384  1
  O  O221  1  0.36643342  0.75825016  0.00217797  1
  O  O222  1  0.36877165  0.74236162  0.51182426  1
  O  O223  1  0.87162074  0.26208743  0.00698085  1
  O  O224  1  0.86280519  0.24476227  0.50075133  1
  O  O225  1  0.87198192  0.75312473  0.00067421  1
  O  O226  1  0.87058018  0.75256444  0.51759958  1
  O  O227  1  0.13018538  0.24531565  0.49505328  1
  O  O228  1  0.11644706  0.25409066  0.98429508  1
  O  O229  1  0.13424136  0.74461208  0.49570732  1
  O  O230  1  0.13325130  0.74012987  0.99941317  1
  O  O231  1  0.62672934  0.23529002  0.50427232  1
  O  O232  1  0.62490109  0.25851753  0.98620743  1
  O  O233  1  0.62011948  0.73962509  0.49272257  1
  O  O234  1  0.63297716  0.75543306  0.98692702  1
  O  O235  1  0.49352970  0.25010663  0.13869391  1
  O  O236  1  0.49366542  0.24643254  0.63098801  1
  O  O237  1  0.49865702  0.74397677  0.13091054  1
  O  O238  1  0.49604855  0.74472962  0.63094899  1
  O  O239  1  0.98353145  0.25758811  0.12967269  1
  O  O240  1  1.00257902  0.23718376  0.63012472  1
  O  O241  1  0.99779537  0.73599599  0.11623479  1
  O  O242  1  0.99324769  0.73916242  0.62363010  1
  O  O243  1  0.00600485  0.25965133  0.37599426  1
  O  O244  1  0.00607699  0.25139233  0.86701431  1
  O  O245  1  0.00940126  0.74600285  0.36819769  1
  O  O246  1  0.00477904  0.72525600  0.86408403  1
  O  O247  1  0.49336696  0.25934750  0.36164827  1
  O  O248  1  0.50400870  0.25410507  0.86683013  1
  O  O249  1  0.50259019  0.75652633  0.36899531  1
  O  O250  1  0.50748365  0.75290809  0.86970502  1
  O  O251  1  0.24012595  0.13506873  0.49294588  1
  O  O252  1  0.25165083  0.12870540  0.99119560  1
  O  O253  1  0.24504351  0.63229455  0.49572935  1
  O  O254  1  0.24563201  0.63303357  1.00083785  1
  O  O255  1  0.74395678  0.13327959  0.49721147  1
  O  O256  1  0.76056706  0.12506276  0.98394180  1
  O  O257  1  0.73811874  0.63007688  0.50643820  1
  O  O258  1  0.75372938  0.63429194  0.98566298  1
  O  O259  1  0.26454524  0.38227081  -0.00285346  1
  O  O260  1  0.25948520  0.36862328  0.49405705  1
  O  O261  1  0.25554123  0.86914880  0.00817882  1
  O  O262  1  0.25206643  0.86316080  0.50532670  1
  O  O263  1  0.75570512  0.37224496  0.01105134  1
  O  O264  1  0.74463343  0.35874622  0.50570434  1
  O  O265  1  0.76718114  0.85600483  -0.01694555  1
  O  O266  1  0.73742851  0.87355808  0.51473160  1
  O  O267  1  0.12744496  0.50325920  0.23317942  1
  O  O268  1  0.13381706  0.48962898  0.74968890  1
  O  O269  1  0.13096598  0.99100391  0.24600096  1
  O  O270  1  0.12412437  1.01114137  0.72923616  1
  O  O271  1  0.62965914  0.50275924  0.23798850  1
  O  O272  1  0.63078573  0.49207432  0.74483357  1
  O  O273  1  0.64768156  0.99635251  0.25552696  1
  O  O274  1  0.61716567  0.98935212  0.73465063  1
  O  O275  1  0.36333319  -0.00883405  0.26136227  1
  O  O276  1  0.37807247  0.01757818  0.75246686  1
  O  O277  1  0.37903880  0.51153626  0.25488821  1
  O  O278  1  0.37030377  0.50181627  0.75317522  1
  O  O279  1  0.86921991  0.00131636  0.26137708  1
  O  O280  1  0.87785073  0.00933383  0.75515978  1
  O  O281  1  0.86482618  0.50502120  0.25593357  1
  O  O282  1  0.86681515  0.49761669  0.75832070  1
  O  O283  1  0.11646557  0.36289333  0.37786211  1
  O  O284  1  0.11938283  0.36400613  0.86612547  1
  O  O285  1  0.13216714  0.86275936  0.36914115  1
  O  O286  1  0.12854689  0.87291667  0.87687889  1
  O  O287  1  0.61196214  0.37901933  0.37754159  1
  O  O288  1  0.61921862  0.36614199  0.86739071  1
  O  O289  1  0.60987476  0.86992678  0.37006471  1
  O  O290  1  0.61960890  0.86608295  0.86580247  1
  O  O291  1  0.37733215  0.14128779  0.12237978  1
  O  O292  1  0.37731225  0.13402502  0.63009203  1
  O  O293  1  0.38495787  0.62546867  0.13285688  1
  O  O294  1  0.38429546  0.63041210  0.63294524  1
  O  O295  1  0.86116793  0.13677971  0.14234012  1
  O  O296  1  0.88183106  0.11742806  0.62962289  1
  O  O297  1  0.88562148  0.63723267  0.11690493  1
  O  O298  1  0.88419384  0.63125595  0.62713707  1
  O  O299  1  0.26444904  0.25110485  0.13554923  1
  O  O300  1  0.25247241  0.24854263  0.61052828  1
  O  O301  1  0.25057141  0.75779205  0.11543140  1
  O  O302  1  0.26309376  0.74692470  0.61702846  1
  O  O303  1  0.75832567  0.25860800  0.12463287  1
  O  O304  1  0.74588583  0.25634553  0.61164050  1
  O  O305  1  0.76095699  0.74633601  0.10794135  1
  O  O306  1  0.75686757  0.75903075  0.62577795  1
  O  O307  1  0.24318472  0.24878317  0.38392552  1
  O  O308  1  0.23360094  0.24371711  0.87289757  1
  O  O309  1  0.24779623  0.74654045  0.38303682  1
  O  O310  1  0.25241347  0.74535506  0.88785962  1
  O  O311  1  0.75039006  0.24040957  0.38918136  1
  O  O312  1  0.74063552  0.23892521  0.87632772  1
  O  O313  1  0.72938040  0.76291798  0.38281473  1
  O  O314  1  0.74214941  0.73941054  0.87420634  1
  O  O315  1  -0.04400580  0.11013067  0.01326187  1
  O  O316  1  0.00513113  0.12182951  0.50323015  1
  O  O317  1  0.00824157  0.61479371  0.00702675  1
  O  O318  1  0.01204004  0.61807888  0.50970947  1
  O  O319  1  0.49764079  0.13673358  -0.00588315  1
  O  O320  1  0.50630314  0.12151893  0.50491048  1
  O  O321  1  0.48998487  0.61496766  0.00821859  1
  O  O322  1  0.50688057  0.61676351  0.50747956  1
  O  O323  1  0.49500351  0.37935211  0.49345480  1
  O  O324  1  0.49201538  0.38193914  0.99605640  1
  O  O325  1  0.50529587  0.88522665  0.49231977  1
  O  O326  1  0.48767648  0.86402650  0.98845955  1
  O  O327  1  1.00432049  0.38420062  0.48771652  1
  O  O328  1  0.98989313  0.37904599  0.99381791  1
  O  O329  1  1.00585303  0.88430670  0.50425976  1
  O  O330  1  0.99281932  0.88019360  0.99671234  1
  O  O331  1  0.49488211  0.49424688  0.37986808  1
  O  O332  1  0.49539450  0.49354636  0.88219901  1
  O  O333  1  0.49622960  0.99399152  0.37915523  1
  O  O334  1  0.49643472  0.98896597  0.87244394  1
  O  O335  1  1.00105218  0.48851159  0.37990773  1
  O  O336  1  0.99374715  0.49184044  0.88125440  1
  O  O337  1  0.98495535  0.99989540  0.38283532  1
  O  O338  1  0.98700624  1.00981847  0.87354637  1
  O  O339  1  0.01362333  -0.00587512  0.13001746  1
  O  O340  1  0.00924654  0.01172862  0.61203795  1
  O  O341  1  0.00672543  0.50963621  0.12115010  1
  O  O342  1  0.00420673  0.50351079  0.61457648  1
  O  O343  1  0.50115059  0.00768705  0.12734819  1
  O  O344  1  0.50385208  0.00730767  0.61847717  1
  O  O345  1  0.50720043  0.50636102  0.11919565  1
  O  O346  1  0.50850352  0.50323043  0.61986339  1
  O  O347  1  0.24322121  0.38481672  0.26455240  1
  O  O348  1  0.24026391  0.38051127  0.75303426  1
  O  O349  1  0.24356397  0.88165345  0.24287451  1
  O  O350  1  0.24702034  0.87622982  0.74060378  1
  O  O351  1  0.74720970  0.37002085  0.23981198  1
  O  O352  1  0.74466007  0.37633395  0.74183648  1
  O  O353  1  0.75473511  0.88304264  0.25076608  1
  O  O354  1  0.73544989  0.87054471  0.74213930  1
  O  O355  1  0.24571252  0.10893825  0.25615459  1
  O  O356  1  0.25582816  0.13522126  0.74964867  1
  O  O357  1  0.26043730  0.62272174  0.25465760  1
  O  O358  1  0.25977276  0.61594004  0.74986646  1
  O  O359  1  0.75758884  0.11519291  0.26132187  1
  O  O360  1  0.76020268  0.13306693  0.75369415  1
  O  O361  1  0.75047566  0.66308796  0.24997852  1
  O  O362  1  0.74997226  0.61511387  0.76013018  1
  O  O363  1  0.37567887  0.11004760  0.37982513  1
  O  O364  1  0.35458217  0.13287842  0.86619861  1
  O  O365  1  0.37418849  0.62124755  0.36789001  1
  O  O366  1  0.37644833  0.61582192  0.86554355  1
  O  O367  1  0.86340782  0.11958736  0.37023687  1
  O  O368  1  0.86347608  0.11868738  0.86209161  1
  O  O369  1  0.89215134  0.64669666  0.36350236  1
  O  O370  1  0.86360680  0.61153043  0.87322957  1
  O  O371  1  0.11902018  0.38936513  0.12441366  1
  O  O372  1  0.11836321  0.37338425  0.63779889  1
  O  O373  1  0.13485853  0.87740151  0.13165422  1
  O  O374  1  0.13356509  0.89643184  0.61498211  1
  O  O375  1  0.63210061  0.38490782  0.12618530  1
  O  O376  1  0.63091995  0.37968478  0.63102032  1
  O  O377  1  0.62767702  0.88331859  0.13068524  1
  O  O378  1  0.62857605  0.88039966  0.63163475  1
  O  O379  1  0.12169259  0.24890372  0.25922503  1
  O  O380  1  0.11265878  0.25421564  0.75507905  1
  O  O381  1  0.13377913  0.75633198  0.26021465  1
  O  O382  1  0.12149765  0.74936789  0.75492512  1
  O  O383  1  0.61278441  0.25389050  0.24634717  1
  O  O384  1  0.61552150  0.25129969  0.75811261  1
  O  O385  1  0.61195733  0.75429585  0.25716527  1
  O  O386  1  0.61881596  0.75518152  0.75706495  1
  O  O387  1  0.38603983  0.25696849  0.23888584  1
  O  O388  1  0.37838295  0.24965854  0.74358028  1
  O  O389  1  0.37903037  0.74054896  0.24895266  1
  O  O390  1  0.38133271  0.74264324  0.74442163  1
  O  O391  1  0.87592239  0.24088053  0.24636086  1
  O  O392  1  0.88661075  0.24246729  0.75372342  1
  O  O393  1  0.89112756  0.75988925  0.23853450  1
  O  O394  1  0.87856475  0.74548659  0.73930379  1
  O  O395  1  0.38088046  0.49449760  0.49740268  1
  O  O396  1  0.38391977  0.49050996  0.99814540  1
  O  O397  1  0.38962975  1.00381391  0.49553315  1
  O  O398  1  0.36703777  0.98788400  0.99583880  1
  O  O399  1  0.89106547  0.51108620  0.49135957  1
  O  O400  1  0.87745732  0.48948612  0.99641855  1
  O  O401  1  0.88292007  0.99871326  0.48851339  1
  O  O402  1  0.86684673  0.98158720  0.97940350  1
  O  O403  1  0.12379717  0.00126263  0.01912259  1
  O  O404  1  0.11683821  0.00893600  0.49811302  1
  O  O405  1  0.12169032  0.50236797  0.00877228  1
  O  O406  1  0.12012113  0.50887878  0.49835371  1
  O  O407  1  0.62605809  -0.01316655  -0.00760753  1
  O  O408  1  0.61413657  0.00925558  0.50832317  1
  O  O409  1  0.61108636  0.49507804  0.00645540  1
  O  O410  1  0.62142114  0.50651915  0.50508034  1
  O  O411  1  0.37648566  0.37226774  0.11703573  1
  O  O412  1  0.38096191  0.37039779  0.60972042  1
  O  O413  1  0.36294786  0.87430813  0.11934839  1
  O  O414  1  0.38168866  0.86378236  0.62971728  1
  O  O415  1  0.86774530  0.37318202  0.12056810  1
  O  O416  1  0.86361500  0.37768514  0.62691173  1
  O  O417  1  0.88312647  0.85988386  0.10963784  1
  O  O418  1  0.86233189  0.87066118  0.63276995  1
  O  O419  1  0.12070085  0.13497028  0.38333478  1
  O  O420  1  0.13265363  0.13646919  0.87181950  1
  O  O421  1  0.13085785  0.63400431  0.38408375  1
  O  O422  1  0.13142505  0.61587164  0.89133163  1
  O  O423  1  0.63876029  0.11522377  0.38562196  1
  O  O424  1  0.64023364  0.12881479  0.87220894  1
  O  O425  1  0.61430953  0.63513210  0.38549961  1
  O  O426  1  0.63110066  0.63333739  0.87154594  1
