# generated using pymatgen
data_V85Zn86O256
_symmetry_space_group_name_H-M   'P 1'
_cell_length_a   16.93169200
_cell_length_b   16.93875120
_cell_length_c   16.93998158
_cell_angle_alpha   90.01780718
_cell_angle_beta   89.95725875
_cell_angle_gamma   90.02634039
_symmetry_Int_Tables_number   1
_chemical_formula_structural   V85Zn86O256
_chemical_formula_sum   'V85 Zn86 O256'
_cell_volume   4858.41372322
_cell_formula_units_Z   1
loop_
 _symmetry_equiv_pos_site_id
 _symmetry_equiv_pos_as_xyz
  1  'x, y, z'
loop_
 _atom_site_type_symbol
 _atom_site_label
 _atom_site_symmetry_multiplicity
 _atom_site_fract_x
 _atom_site_fract_y
 _atom_site_fract_z
 _atom_site_occupancy
  V  V0  1  0.50542251  0.25038685  0.26232521  1
  V  V1  1  0.74925230  0.62902704  0.37603270  1
  V  V2  1  0.12364183  0.12558537  0.00987526  1
  V  V3  1  0.75264373  0.50160761  0.74947267  1
  V  V4  1  0.22443717  0.85965262  0.58721437  1
  V  V5  1  0.76024592  0.37928188  0.62176159  1
  V  V6  1  0.62165656  0.00101392  0.11489806  1
  V  V7  1  0.37806649  -0.00359816  0.87991847  1
  V  V8  1  0.50577971  -0.00035374  0.48919655  1
  V  V9  1  0.24474546  0.74167603  -0.00249475  1
  V  V10  1  0.00534693  0.49914567  0.50006344  1
  V  V11  1  0.87611888  0.00037770  0.38968085  1
  V  V12  1  0.87348136  0.87738623  -0.00041734  1
  V  V13  1  0.61811678  0.75301628  0.37671377  1
  V  V14  1  0.37357290  0.87340702  0.00289814  1
  V  V15  1  0.87253103  0.74712474  0.11875482  1
  V  V16  1  0.49705951  0.12296986  0.62223027  1
  V  V17  1  0.62590425  0.63003878  -0.00473324  1
  V  V18  1  0.12135401  0.87085098  0.25132060  1
  V  V19  1  0.24913367  0.37756864  0.62760196  1
  V  V20  1  0.63262387  0.87075047  0.75432368  1
  V  V21  1  0.36607280  0.50704866  0.86511676  1
  V  V22  1  0.38789516  0.87301184  0.49937555  1
  V  V23  1  0.24873802  -0.01138307  0.74747968  1
  V  V24  1  0.00640020  0.38766804  0.88029599  1
  V  V25  1  0.87494900  0.49919891  0.88101403  1
  V  V26  1  0.12682179  0.37863215  0.74900758  1
  V  V27  1  0.25020358  0.38934723  0.13378210  1
  V  V28  1  0.37209089  0.24596717  0.62337183  1
  V  V29  1  0.75141883  0.00296762  0.24954722  1
  V  V30  1  0.62639905  0.50271652  0.62618296  1
  V  V31  1  0.50523550  0.87218367  0.88007626  1
  V  V32  1  0.11883773  0.86800752  0.75680851  1
  V  V33  1  0.62416946  0.62833141  0.50037843  1
  V  V34  1  0.50427322  0.74783650  0.75480826  1
  V  V35  1  0.24807639  -0.00264142  0.24879492  1
  V  V36  1  0.88165205  0.37628218  0.00455718  1
  V  V37  1  0.89164029  0.12735447  0.24854837  1
  V  V38  1  0.37457564  -0.00837887  0.37308071  1
  V  V39  1  0.49523878  0.75255320  0.25120476  1
  V  V40  1  0.12511293  0.24756411  0.87606235  1
  V  V41  1  0.75586471  0.25712753  0.49606004  1
  V  V42  1  -0.00394465  0.86156189  0.87735252  1
  V  V43  1  0.74450157  0.50143764  0.25167618  1
  V  V44  1  0.49836746  0.24635383  0.74752280  1
  V  V45  1  0.11835659  0.24719321  0.36496118  1
  V  V46  1  0.62481902  0.49472304  0.12308984  1
  V  V47  1  0.24394806  0.24495242  0.50031222  1
  V  V48  1  0.23192255  0.63742816  0.38707678  1
  V  V49  1  0.75257707  0.01912295  0.75546990  1
  V  V50  1  0.74893283  0.36747306  0.12602405  1
  V  V51  1  0.37249623  0.11923851  0.74727008  1
  V  V52  1  0.74824725  0.87437972  0.12513291  1
  V  V53  1  0.25410292  0.24789134  0.00691753  1
  V  V54  1  0.49793599  0.62608370  0.12683904  1
  V  V55  1  -0.00047954  0.00297416  0.00468578  1
  V  V56  1  0.12930164  0.50886398  0.62428796  1
  V  V57  1  0.87398556  0.49353879  0.38296861  1
  V  V58  1  0.87838225  0.24586135  0.62982638  1
  V  V59  1  0.00445480  0.61445557  0.11399685  1
  V  V60  1  0.75557645  0.76068380  0.50143526  1
  V  V61  1  0.37646294  0.37228922  0.49191430  1
  V  V62  1  0.49793811  0.62523148  0.62729239  1
  V  V63  1  0.11521854  0.00015297  0.62516435  1
  V  V64  1  0.49945060  0.49418272  0.49768958  1
  V  V65  1  0.11239734  0.12037337  0.50187290  1
  V  V66  1  0.62634685  0.00005461  0.62550268  1
  V  V67  1  0.87471744  0.02027069  0.87534306  1
  V  V68  1  0.49636637  0.12415227  0.11774623  1
  V  V69  1  0.62293042  0.37383370  0.74200156  1
  V  V70  1  0.62557440  0.13449338  0.49470110  1
  V  V71  1  0.62131245  0.87823253  0.25471590  1
  V  V72  1  0.88655498  0.62664469  0.74743742  1
  V  V73  1  0.25050318  0.12257835  0.87534230  1
  V  V74  1  0.89490708  0.24690545  0.12984671  1
  V  V75  1  0.50154535  0.49826446  -0.00363835  1
  V  V76  1  0.00082927  0.74824238  0.25095370  1
  V  V77  1  0.12050695  0.39199393  0.25126218  1
  V  V78  1  0.75001574  0.63197486  0.87436494  1
  V  V79  1  0.49762103  0.37464276  0.87207164  1
  V  V80  1  -0.00935352  0.87319382  0.38262848  1
  V  V81  1  0.87483890  0.62441714  0.25047100  1
  V  V82  1  0.88219055  0.75752972  0.62610816  1
  V  V83  1  0.37520095  0.75352881  0.62347119  1
  V  V84  1  0.74854856  0.13136639  0.37037726  1
  Zn  Zn85  1  -0.00607629  0.24363643  0.75983803  1
  Zn  Zn86  1  -0.00613254  0.36968475  0.37602734  1
  Zn  Zn87  1  0.75581572  0.88030636  0.62482692  1
  Zn  Zn88  1  -0.00844608  0.11702118  0.63400481  1
  Zn  Zn89  1  0.37424609  0.24965900  0.13302550  1
  Zn  Zn90  1  0.13063999  0.74009627  0.87063320  1
  Zn  Zn91  1  0.75186685  0.23850324  -0.00663937  1
  Zn  Zn92  1  0.62319371  0.36978519  0.26453753  1
  Zn  Zn93  1  0.00375406  0.62826977  0.62222523  1
  Zn  Zn94  1  0.13416344  0.60461479  -0.00134304  1
  Zn  Zn95  1  0.35788805  0.62424571  0.74763160  1
  Zn  Zn96  1  0.35277018  0.60635623  0.25045116  1
  Zn  Zn97  1  0.63227705  0.24150001  0.87320824  1
  Zn  Zn98  1  0.37433586  0.12404088  0.25281395  1
  Zn  Zn99  1  0.37477207  0.37414234  0.00174301  1
  Zn  Zn100  1  0.74427640  0.75410242  -0.00438656  1
  Zn  Zn101  1  0.24672342  0.11955307  0.37545270  1
  Zn  Zn102  1  0.36214573  0.50203433  0.37258662  1
  Zn  Zn103  1  0.37028728  0.74749313  0.12681167  1
  Zn  Zn104  1  0.24370763  0.87116761  0.12477579  1
  Zn  Zn105  1  0.11801194  0.00088510  0.12880457  1
  Zn  Zn106  1  0.62813652  0.12517742  -0.00919709  1
  Zn  Zn107  1  0.18902344  0.18576248  0.18904417  1
  Zn  Zn108  1  0.18283497  0.18499523  0.69043278  1
  Zn  Zn109  1  0.18638461  0.68393272  0.18899358  1
  Zn  Zn110  1  0.18863508  0.69182853  0.68372174  1
  Zn  Zn111  1  0.68446660  0.18622073  0.18442440  1
  Zn  Zn112  1  0.68436698  0.19240970  0.68104213  1
  Zn  Zn113  1  0.68294341  0.68648786  0.18759534  1
  Zn  Zn114  1  0.69203224  0.68980802  0.68809034  1
  Zn  Zn115  1  0.30894355  0.30755148  0.31186722  1
  Zn  Zn116  1  0.31313097  0.31244802  0.81216712  1
  Zn  Zn117  1  0.30985223  0.80980485  0.31771575  1
  Zn  Zn118  1  0.31312247  0.80700841  0.81360752  1
  Zn  Zn119  1  0.81090787  0.31228609  0.30707957  1
  Zn  Zn120  1  0.81494563  0.31238342  0.81071056  1
  Zn  Zn121  1  0.81256306  0.81290506  0.31027328  1
  Zn  Zn122  1  0.81790795  0.81359428  0.81086224  1
  Zn  Zn123  1  0.18909568  0.44031783  0.43468655  1
  Zn  Zn124  1  0.19416114  0.42999144  0.94156460  1
  Zn  Zn125  1  0.17989699  0.92514859  0.43581841  1
  Zn  Zn126  1  0.18755103  0.93496995  0.93873843  1
  Zn  Zn127  1  0.68911337  0.44198940  0.43972846  1
  Zn  Zn128  1  0.70203054  0.40529131  0.92270539  1
  Zn  Zn129  1  0.68949293  0.94016099  0.43498332  1
  Zn  Zn130  1  0.69043587  0.94233529  0.93478609  1
  Zn  Zn131  1  0.31264152  0.05860947  0.06488829  1
  Zn  Zn132  1  0.30594528  0.05271274  0.56067755  1
  Zn  Zn133  1  0.31859691  0.56255467  0.05951908  1
  Zn  Zn134  1  0.30993911  0.56468393  0.55515935  1
  Zn  Zn135  1  0.81246361  0.06729051  0.06413221  1
  Zn  Zn136  1  0.80844099  0.06691793  0.56470623  1
  Zn  Zn137  1  0.81201688  0.56124289  0.06170238  1
  Zn  Zn138  1  0.81604593  0.56855844  0.55980971  1
  Zn  Zn139  1  0.43546712  0.43063584  0.18789402  1
  Zn  Zn140  1  0.43490931  0.43600706  0.68231399  1
  Zn  Zn141  1  0.43897157  0.93756277  0.18667200  1
  Zn  Zn142  1  0.44123788  0.93445750  0.68745087  1
  Zn  Zn143  1  0.93416658  0.43559659  0.19835083  1
  Zn  Zn144  1  0.94310057  0.43730251  0.69058045  1
  Zn  Zn145  1  0.93522418  0.93852445  0.18945998  1
  Zn  Zn146  1  0.93575692  0.93849439  0.69520776  1
  Zn  Zn147  1  0.06313274  0.05566577  0.31830014  1
  Zn  Zn148  1  0.05872255  0.06105001  0.81512796  1
  Zn  Zn149  1  0.06479371  0.57016486  0.31883741  1
  Zn  Zn150  1  0.17779805  0.56537900  0.81673636  1
  Zn  Zn151  1  0.56300634  0.06652635  0.30831054  1
  Zn  Zn152  1  0.56154636  0.05718298  0.81224482  1
  Zn  Zn153  1  0.52882965  0.54124445  0.29381009  1
  Zn  Zn154  1  0.56273396  0.56322368  0.81310808  1
  Zn  Zn155  1  0.42969596  0.17986277  0.43576427  1
  Zn  Zn156  1  0.44104302  0.18617417  0.93521623  1
  Zn  Zn157  1  0.43112438  0.68262481  0.43642669  1
  Zn  Zn158  1  0.43469271  0.68813317  0.93781965  1
  Zn  Zn159  1  0.93536822  0.18778081  0.44046097  1
  Zn  Zn160  1  0.94323211  0.19432166  0.94651215  1
  Zn  Zn161  1  0.94001720  0.68456295  0.43994248  1
  Zn  Zn162  1  0.99095321  0.63912100  0.89494233  1
  Zn  Zn163  1  0.06267689  0.43504297  0.07066396  1
  Zn  Zn164  1  0.05946316  0.31794939  0.55700764  1
  Zn  Zn165  1  0.06033876  0.80951545  0.06447771  1
  Zn  Zn166  1  0.05578379  0.81788511  0.56147684  1
  Zn  Zn167  1  0.56177310  0.30675434  0.06173976  1
  Zn  Zn168  1  0.56133922  0.31338648  0.44046780  1
  Zn  Zn169  1  0.56175949  0.81254060  0.06322276  1
  Zn  Zn170  1  0.56498932  0.81406534  0.56715446  1
  O  O171  1  0.12915476  0.12212769  0.11293707  1
  O  O172  1  0.12699890  0.11481289  0.61840083  1
  O  O173  1  0.10734012  0.62843021  0.11914377  1
  O  O174  1  0.12326405  0.61226338  0.62959061  1
  O  O175  1  0.61379548  0.11605460  0.12472619  1
  O  O176  1  0.61897236  0.12025383  0.61510361  1
  O  O177  1  0.62187804  0.61275985  0.11557140  1
  O  O178  1  0.61991885  0.62248189  0.62136428  1
  O  O179  1  0.36352828  0.37686624  0.38919385  1
  O  O180  1  0.38335981  0.38563837  0.87326512  1
  O  O181  1  0.37958368  0.88331313  0.38222894  1
  O  O182  1  0.38085608  0.87790493  0.88332554  1
  O  O183  1  0.87419758  0.38951623  0.36524745  1
  O  O184  1  0.88452212  0.37922604  0.88488219  1
  O  O185  1  0.88121006  0.88669894  0.36610463  1
  O  O186  1  0.87980154  0.88044638  0.88227915  1
  O  O187  1  0.25541054  -0.00674833  0.36520947  1
  O  O188  1  0.25839895  0.00210242  0.86769175  1
  O  O189  1  0.24875947  0.51757206  0.38253541  1
  O  O190  1  0.26272767  0.49563009  0.87453850  1
  O  O191  1  0.75733078  0.00955580  0.36871443  1
  O  O192  1  0.75845375  0.00118722  0.86271672  1
  O  O193  1  0.75618465  0.51018983  0.37325152  1
  O  O194  1  0.75931855  0.50115889  0.86844610  1
  O  O195  1  0.25705187  0.48801999  0.12481991  1
  O  O196  1  0.24218669  0.48825890  0.61584994  1
  O  O197  1  0.24907709  0.99295888  0.13794738  1
  O  O198  1  0.23880352  0.98171431  0.63064072  1
  O  O199  1  0.74197922  0.49454698  0.13085171  1
  O  O200  1  0.74779380  0.49652580  0.62760080  1
  O  O201  1  0.74219070  0.99423756  0.13183843  1
  O  O202  1  0.74690098  1.00025665  0.63769580  1
  O  O203  1  0.01562327  0.37632131  0.25502396  1
  O  O204  1  0.01020075  0.36928307  0.76054498  1
  O  O205  1  0.00018753  0.86621726  0.25295636  1
  O  O206  1  0.00707264  0.88129643  0.76520698  1
  O  O207  1  0.50382342  0.35379740  0.24391544  1
  O  O208  1  0.50451158  0.36950909  0.75013902  1
  O  O209  1  0.51390917  0.86800222  0.24451824  1
  O  O210  1  0.50992855  0.86781507  0.75768568  1
  O  O211  1  0.49754650  0.13437595  0.24312246  1
  O  O212  1  0.49033346  0.12335560  0.74061559  1
  O  O213  1  0.51645730  0.63925245  0.23357650  1
  O  O214  1  0.50076152  0.63309543  0.74320535  1
  O  O215  1  0.99049753  0.11939831  0.25451084  1
  O  O216  1  1.01110213  0.13297545  0.74478810  1
  O  O217  1  0.99350821  0.63098868  0.24317570  1
  O  O218  1  0.98623377  0.62382517  0.74974743  1
  O  O219  1  0.36359130  0.24962019  -0.00154100  1
  O  O220  1  0.36607282  0.25257713  0.50355318  1
  O  O221  1  0.36487802  0.75544633  0.00134929  1
  O  O222  1  0.38906213  0.76032257  0.51303617  1
  O  O223  1  0.87285888  0.25827385  0.01405157  1
  O  O224  1  0.86259559  0.24911736  0.50967798  1
  O  O225  1  0.86863098  0.75754904  0.01473847  1
  O  O226  1  0.86671272  0.74400036  0.51374613  1
  O  O227  1  0.12945454  0.24266850  0.49661712  1
  O  O228  1  0.13975653  0.24077846  0.98783373  1
  O  O229  1  0.15678604  0.82581294  0.51024145  1
  O  O230  1  0.13881866  0.75269743  1.00022818  1
  O  O231  1  0.63454214  0.23915839  0.50048991  1
  O  O232  1  0.63012498  0.24962251  0.99482585  1
  O  O233  1  0.62961267  0.74929168  0.49371799  1
  O  O234  1  0.62582881  0.73458065  1.00430766  1
  O  O235  1  0.49679339  0.23704329  0.13213358  1
  O  O236  1  0.48771978  0.23654374  0.63164268  1
  O  O237  1  0.49845563  0.74209730  0.13085862  1
  O  O238  1  0.49569470  0.74588289  0.63522576  1
  O  O239  1  0.98951231  0.25216224  0.12377719  1
  O  O240  1  0.98247279  0.25706985  0.62156714  1
  O  O241  1  0.98911766  0.74131156  0.13101563  1
  O  O242  1  0.98761601  0.74767883  0.61877379  1
  O  O243  1  0.01385939  0.25229961  0.38502847  1
  O  O244  1  0.01083362  0.26293907  0.87992470  1
  O  O245  1  -0.01515132  0.76122067  0.36407936  1
  O  O246  1  -0.00162398  0.75994383  0.88169961  1
  O  O247  1  0.49928329  0.24319724  0.36821051  1
  O  O248  1  0.49376234  0.26181431  0.86465798  1
  O  O249  1  0.51205526  0.74517767  0.36809092  1
  O  O250  1  0.49458808  0.75541475  0.86250551  1
  O  O251  1  0.24253870  0.13359026  0.50104918  1
  O  O252  1  0.24588142  0.12739856  0.99500673  1
  O  O253  1  0.25185061  0.63222100  0.48930652  1
  O  O254  1  0.25020850  0.63696873  1.00430462  1
  O  O255  1  0.74352273  0.13365818  0.49256552  1
  O  O256  1  0.74401855  0.12501284  1.00068891  1
  O  O257  1  0.74330159  0.63715285  0.49609311  1
  O  O258  1  0.74207830  0.62350869  0.99154846  1
  O  O259  1  0.25225955  0.36414642  0.01629403  1
  O  O260  1  0.25144713  0.36148507  0.50895310  1
  O  O261  1  0.25795021  0.86759587  0.00305444  1
  O  O262  1  0.27979212  0.89886725  0.50131711  1
  O  O263  1  0.76668689  0.38315535  0.01539325  1
  O  O264  1  0.74655522  0.36779755  0.51003595  1
  O  O265  1  0.75479078  0.87454144  0.00534576  1
  O  O266  1  0.74579678  0.86450373  0.50225014  1
  O  O267  1  0.12229628  0.48997793  0.25660768  1
  O  O268  1  0.12889484  0.48524326  0.74252442  1
  O  O269  1  0.13099573  0.99271864  0.24885170  1
  O  O270  1  0.13234252  0.99304267  0.74573744  1
  O  O271  1  0.62441578  0.49635715  0.23893738  1
  O  O272  1  0.63069889  0.49684216  0.74283848  1
  O  O273  1  0.63054722  0.99351840  0.24465674  1
  O  O274  1  0.63613702  0.99338014  0.74645830  1
  O  O275  1  0.36819865  -0.00515164  0.25800482  1
  O  O276  1  0.36632295  -0.00153975  0.75368782  1
  O  O277  1  0.41522548  0.50771552  0.26554225  1
  O  O278  1  0.38004280  0.50137501  0.76200163  1
  O  O279  1  0.86731326  0.01110268  0.25172370  1
  O  O280  1  0.86075367  0.00134672  0.75821330  1
  O  O281  1  0.86456103  0.50788414  0.25759735  1
  O  O282  1  0.87057539  0.50502204  0.75631239  1
  O  O283  1  0.12803403  0.36450314  0.36398010  1
  O  O284  1  0.12309417  0.36860354  0.86907376  1
  O  O285  1  0.10341342  0.88023461  0.36025414  1
  O  O286  1  0.11422291  0.87443954  0.87176121  1
  O  O287  1  0.62857404  0.37471197  0.37719781  1
  O  O288  1  0.60791157  0.38437111  0.85793349  1
  O  O289  1  0.63081307  0.86707146  0.36586773  1
  O  O290  1  0.61617955  0.88050419  0.86855236  1
  O  O291  1  0.38617329  0.12242336  0.12886508  1
  O  O292  1  0.37546915  0.12329330  0.62723479  1
  O  O293  1  0.38475110  0.62524138  0.13299011  1
  O  O294  1  0.38073681  0.63352777  0.62680061  1
  O  O295  1  0.87477614  0.13843026  0.13425022  1
  O  O296  1  0.87382406  0.14142510  0.62342784  1
  O  O297  1  0.87771489  0.63051824  0.13084051  1
  O  O298  1  0.87599121  0.63457634  0.63306351  1
  O  O299  1  0.25303254  0.25206550  0.11936132  1
  O  O300  1  0.25234382  0.25275629  0.61892342  1
  O  O301  1  0.25193152  0.75262398  0.11534273  1
  O  O302  1  0.25943796  0.76517742  0.62658602  1
  O  O303  1  0.75095464  0.26223612  0.12638665  1
  O  O304  1  0.75789858  0.25894520  0.61832879  1
  O  O305  1  0.75387404  0.75662224  0.12595942  1
  O  O306  1  0.75929224  0.75374658  0.61722893  1
  O  O307  1  0.23735864  0.24533508  0.38406544  1
  O  O308  1  0.24640761  0.24363971  0.88047160  1
  O  O309  1  0.25038408  0.73928255  0.37825099  1
  O  O310  1  0.24871921  0.75346894  0.89201369  1
  O  O311  1  0.75833268  0.24050243  0.38163963  1
  O  O312  1  0.73774156  0.29171452  0.88692256  1
  O  O313  1  0.74549058  0.74760715  0.38168632  1
  O  O314  1  0.75821367  0.73471681  0.87565531  1
  O  O315  1  0.01271539  0.11689192  -0.00537235  1
  O  O316  1  0.00971438  0.12709267  0.50872808  1
  O  O317  1  -0.00826030  0.62531788  0.01509964  1
  O  O318  1  -0.00458582  0.60736622  0.50424370  1
  O  O319  1  0.49946349  0.12696811  0.01508431  1
  O  O320  1  0.50776157  0.11933587  0.50243511  1
  O  O321  1  0.50488148  0.62058713  0.00778504  1
  O  O322  1  0.50508162  0.62026061  0.51102712  1
  O  O323  1  0.48846783  0.37911941  0.50529650  1
  O  O324  1  0.49808294  0.38146435  0.99002391  1
  O  O325  1  0.49741590  0.88570902  0.50337853  1
  O  O326  1  0.49360573  0.86576001  0.98680645  1
  O  O327  1  0.99656233  0.39128305  0.49453114  1
  O  O328  1  0.98919830  0.37732449  0.99724542  1
  O  O329  1  0.99162466  0.86899915  0.48131278  1
  O  O330  1  0.99294530  0.88076815  0.99573799  1
  O  O331  1  0.50811461  0.50343184  0.39789979  1
  O  O332  1  0.49284754  0.49472462  0.87953796  1
  O  O333  1  0.49641380  1.00375387  0.38380246  1
  O  O334  1  0.48536552  0.98562893  0.86572143  1
  O  O335  1  0.99245506  0.50077520  0.38451407  1
  O  O336  1  0.99003548  0.48926804  0.87158475  1
  O  O337  1  0.98739313  0.98676977  0.37170428  1
  O  O338  1  0.99040189  0.99270811  0.88531107  1
  O  O339  1  -0.00348699  -0.00344885  0.10929301  1
  O  O340  1  0.01029534  -0.00205896  0.62896949  1
  O  O341  1  -0.00741596  0.51048870  0.12988578  1
  O  O342  1  0.00851077  0.49892629  0.61716562  1
  O  O343  1  0.50852107  0.01344411  0.13317708  1
  O  O344  1  0.50651889  0.00523701  0.61611838  1
  O  O345  1  0.50566093  0.50440228  0.11599066  1
  O  O346  1  0.50606410  0.50595886  0.62016545  1
  O  O347  1  0.24154092  0.37080148  0.24016191  1
  O  O348  1  0.24488217  0.36759653  0.73545124  1
  O  O349  1  0.23809552  0.87671409  0.25070279  1
  O  O350  1  0.24125565  0.88269287  0.75877149  1
  O  O351  1  0.74495722  0.38274731  0.24121006  1
  O  O352  1  0.74247296  0.38293998  0.74208317  1
  O  O353  1  0.74053748  0.88031506  0.24425347  1
  O  O354  1  0.74031629  0.87822733  0.75182773  1
  O  O355  1  0.25180108  0.11226733  0.25366186  1
  O  O356  1  0.25338420  0.11086313  0.75375479  1
  O  O357  1  0.24379998  0.62898728  0.26606829  1
  O  O358  1  0.24593241  0.63078218  0.75630855  1
  O  O359  1  0.75397225  0.12332443  0.25690717  1
  O  O360  1  0.74267596  0.11716285  0.74857115  1
  O  O361  1  0.75223061  0.62049052  0.25570269  1
  O  O362  1  0.75652404  0.61882141  0.75745260  1
  O  O363  1  0.36800755  0.10602947  0.37553161  1
  O  O364  1  0.37214789  0.11397175  0.86905035  1
  O  O365  1  0.37069541  0.62154584  0.36822509  1
  O  O366  1  0.38122420  0.60962239  0.87129680  1
  O  O367  1  0.86976733  0.11950569  0.36874894  1
  O  O368  1  0.88215301  0.11938504  0.87985300  1
  O  O369  1  0.86807414  0.61941022  0.36900668  1
  O  O370  1  0.87547286  0.61458883  0.86880666  1
  O  O371  1  0.13542093  0.37611461  0.14189739  1
  O  O372  1  0.13028025  0.37816300  0.63194772  1
  O  O373  1  0.12044182  0.87818548  0.13820204  1
  O  O374  1  0.12190060  0.88214239  0.64017446  1
  O  O375  1  0.63128926  0.38488001  0.12084229  1
  O  O376  1  0.63578869  0.38418268  0.63561663  1
  O  O377  1  0.62886363  0.88131556  0.13101774  1
  O  O378  1  0.62822881  0.88377254  0.63548238  1
  O  O379  1  0.12688459  0.24801312  0.26377127  1
  O  O380  1  0.12925068  0.25873628  0.76317889  1
  O  O381  1  0.10755202  0.75575593  0.24373574  1
  O  O382  1  0.12594069  0.76450487  0.75188529  1
  O  O383  1  0.61027413  0.24746138  0.24928299  1
  O  O384  1  0.61733667  0.25946512  0.74800895  1
  O  O385  1  0.62003451  0.75875438  0.25746285  1
  O  O386  1  0.61819128  0.75919312  0.74608397  1
  O  O387  1  0.38563756  0.24466269  0.25334471  1
  O  O388  1  0.37714228  0.24022612  0.74391917  1
  O  O389  1  0.39089474  0.75878380  0.24904910  1
  O  O390  1  0.38406795  0.75142328  0.73926615  1
  O  O391  1  0.87518785  0.24339576  0.23885456  1
  O  O392  1  0.87481440  0.25400518  0.73532267  1
  O  O393  1  0.87897465  0.74450571  0.23959182  1
  O  O394  1  0.86936152  0.74164630  0.73542972  1
  O  O395  1  0.38446951  0.48852772  0.50482292  1
  O  O396  1  0.38635802  0.49857804  0.98895133  1
  O  O397  1  0.39013274  0.99814033  0.49446423  1
  O  O398  1  0.36935103  0.99011887  0.98903191  1
  O  O399  1  0.88078226  0.50257056  0.49118257  1
  O  O400  1  0.87290718  0.49425550  0.98899482  1
  O  O401  1  0.86754382  1.00451900  0.48904622  1
  O  O402  1  0.87990487  0.99709209  0.99354122  1
  O  O403  1  0.11796901  0.00750928  0.00031079  1
  O  O404  1  0.13090034  0.00826447  0.51055436  1
  O  O405  1  0.12410906  0.49285178  -0.00110335  1
  O  O406  1  0.11397794  0.49259627  0.51009186  1
  O  O407  1  0.62378865  -0.00354415  0.01268261  1
  O  O408  1  0.62177746  0.00832834  0.50367964  1
  O  O409  1  0.61255648  0.50634956  0.00305726  1
  O  O410  1  0.62207315  0.50764220  0.51187426  1
  O  O411  1  0.36301377  0.37058223  0.12442765  1
  O  O412  1  0.36597883  0.36712170  0.61690504  1
  O  O413  1  0.37917435  0.87429716  0.11042728  1
  O  O414  1  0.37757293  0.86776177  0.61724025  1
  O  O415  1  0.87112500  0.36694358  0.12473520  1
  O  O416  1  0.86428184  0.37057044  0.63033811  1
  O  O417  1  0.86695868  0.86902094  0.12158843  1
  O  O418  1  0.87466247  0.86200990  0.63166268  1
  O  O419  1  0.12427843  0.13088635  0.38392399  1
  O  O420  1  0.13271360  0.13089433  0.88067213  1
  O  O421  1  0.12926895  0.63380537  0.38380874  1
  O  O422  1  0.10672788  0.62662994  0.88459953  1
  O  O423  1  0.63717678  0.11825969  0.38261902  1
  O  O424  1  0.60660150  0.13132448  0.87741457  1
  O  O425  1  0.63348942  0.63725973  0.38277270  1
  O  O426  1  0.63742363  0.61765834  0.88292755  1
