# generated using pymatgen
data_V85Zn86O256
_symmetry_space_group_name_H-M   'P 1'
_cell_length_a   16.94674473
_cell_length_b   16.95036098
_cell_length_c   16.94790042
_cell_angle_alpha   89.94849646
_cell_angle_beta   90.03466542
_cell_angle_gamma   89.92741270
_symmetry_Int_Tables_number   1
_chemical_formula_structural   V85Zn86O256
_chemical_formula_sum   'V85 Zn86 O256'
_cell_volume   4868.33593818
_cell_formula_units_Z   1
loop_
 _symmetry_equiv_pos_site_id
 _symmetry_equiv_pos_as_xyz
  1  'x, y, z'
loop_
 _atom_site_type_symbol
 _atom_site_label
 _atom_site_symmetry_multiplicity
 _atom_site_fract_x
 _atom_site_fract_y
 _atom_site_fract_z
 _atom_site_occupancy
  V  V0  1  0.37509134  0.38049999  0.00054413  1
  V  V1  1  0.00167686  0.62987124  0.12032493  1
  V  V2  1  0.74877053  0.86924880  0.11999099  1
  V  V3  1  0.75699276  0.87784800  0.62550495  1
  V  V4  1  -0.00308777  0.25602728  0.75080737  1
  V  V5  1  0.11971772  0.26045225  0.37397349  1
  V  V6  1  0.53217436  0.39737019  0.35922177  1
  V  V7  1  0.87891048  0.49719582  0.87240523  1
  V  V8  1  0.87223320  0.12132309  0.75797422  1
  V  V9  1  0.23973237  0.87851450  0.62161445  1
  V  V10  1  0.12367374  0.49904018  0.12823819  1
  V  V11  1  0.37776484  -0.00669802  0.87031602  1
  V  V12  1  0.37327504  0.86977776  0.50235707  1
  V  V13  1  0.75284012  0.12210045  0.37458558  1
  V  V14  1  0.62788658  0.12046029  0.50103643  1
  V  V15  1  0.12672950  0.62765932  -0.01202156  1
  V  V16  1  0.62760143  -0.00266865  0.62741607  1
  V  V17  1  0.87520504  0.62503281  0.24560028  1
  V  V18  1  -0.00013901  0.49759185  0.49617658  1
  V  V19  1  0.25121658  0.37325481  0.62537113  1
  V  V20  1  0.01373505  0.74925038  0.75734198  1
  V  V21  1  0.11956929  0.37698797  0.74835828  1
  V  V22  1  0.00223289  0.49839425  -0.00745464  1
  V  V23  1  0.62460378  0.24475922  0.37211686  1
  V  V24  1  0.37274522  0.00241955  0.37493223  1
  V  V25  1  0.61046881  0.75335488  0.88337342  1
  V  V26  1  0.88012239  0.12318550  0.24672903  1
  V  V27  1  0.05960480  0.31580378  0.91951746  1
  V  V28  1  0.00057764  -0.00904988  0.50427321  1
  V  V29  1  0.49824690  0.87220905  0.37239647  1
  V  V30  1  0.87159269  0.25012453  0.62538174  1
  V  V31  1  0.50993760  0.49995923  0.00424674  1
  V  V32  1  0.49419045  0.38003392  0.87315616  1
  V  V33  1  0.49646523  0.75080100  0.24275639  1
  V  V34  1  0.61122943  0.24576096  0.87348514  1
  V  V35  1  0.24777770  0.12578666  0.37587800  1
  V  V36  1  0.73588113  0.38627440  0.13554420  1
  V  V37  1  0.38391352  0.87193930  0.00210108  1
  V  V38  1  0.49386616  0.01591036  0.00143738  1
  V  V39  1  0.50081707  0.24924324  0.24792413  1
  V  V40  1  0.75235792  -0.00311032  0.76334314  1
  V  V41  1  0.87992727  0.75267273  0.62177221  1
  V  V42  1  0.25271360  0.74296811  0.50183178  1
  V  V43  1  0.62514248  0.61927100  0.49700306  1
  V  V44  1  -0.00065790  0.26327078  0.25513073  1
  V  V45  1  0.25079783  0.87191457  0.12598918  1
  V  V46  1  0.87676371  0.49689192  0.36890376  1
  V  V47  1  -0.00229838  0.87308370  0.37202413  1
  V  V48  1  0.50013452  -0.00298384  0.50105589  1
  V  V49  1  0.87677852  0.37510010  0.49607247  1
  V  V50  1  0.24459952  0.50159383  0.25329306  1
  V  V51  1  0.87657921  -0.00572216  0.37821949  1
  V  V52  1  0.87717037  0.62639710  0.74829873  1
  V  V53  1  0.75558720  0.75511104  0.49757128  1
  V  V54  1  0.26802262  0.62678473  0.87261250  1
  V  V55  1  0.75078613  0.50317726  0.74806072  1
  V  V56  1  0.12742250  0.50498758  0.62397117  1
  V  V57  1  0.57366848  0.55687712  0.67160697  1
  V  V58  1  0.50487743  0.61915087  0.12799622  1
  V  V59  1  0.61937044  0.00731601  0.12906000  1
  V  V60  1  0.75493315  0.63854461  0.88278355  1
  V  V61  1  0.61440716  0.86846850  0.75392633  1
  V  V62  1  0.37910604  0.24856611  0.62943256  1
  V  V63  1  0.74363394  0.24834213  0.00167962  1
  V  V64  1  0.25157204  0.75066787  0.00164498  1
  V  V65  1  0.24215265  -0.00072024  0.74658916  1
  V  V66  1  0.00141250  0.12078825  0.62607568  1
  V  V67  1  0.26233227  0.50178672  0.75564381  1
  V  V68  1  0.12463780  0.00723479  0.11422967  1
  V  V69  1  0.36546100  0.50768081  0.37773659  1
  V  V70  1  0.74352211  0.38000011  0.62154753  1
  V  V71  1  0.00468762  0.88793210  0.87800153  1
  V  V72  1  0.12262214  0.12118584  0.50251738  1
  V  V73  1  0.61967680  0.36802974  0.74757625  1
  V  V74  1  0.12826921  0.74793731  0.37116208  1
  V  V75  1  0.25069082  0.37488140  0.13000559  1
  V  V76  1  0.37533742  0.12576946  0.24317450  1
  V  V77  1  0.24946235  0.24832867  0.50272782  1
  V  V78  1  0.50350439  0.12730006  0.62501733  1
  V  V79  1  0.12961874  0.62180595  0.49147449  1
  V  V80  1  0.37850893  0.11513284  0.74658963  1
  V  V81  1  0.75409031  0.62736757  0.36933199  1
  V  V82  1  0.36909411  0.62952652  0.24828923  1
  V  V83  1  0.38063466  0.37307552  0.49124932  1
  V  V84  1  0.87068435  0.37179439  -0.00367472  1
  Zn  Zn85  1  0.61589692  0.12915764  0.00354090  1
  Zn  Zn86  1  0.74915369  0.25217286  0.49788153  1
  Zn  Zn87  1  0.49852289  0.50699520  0.50190253  1
  Zn  Zn88  1  0.86715283  0.87576429  -0.01181514  1
  Zn  Zn89  1  0.74402993  0.12277510  0.87955962  1
  Zn  Zn90  1  0.62470777  0.87451577  0.24948715  1
  Zn  Zn91  1  0.00083205  0.75099451  0.24576832  1
  Zn  Zn92  1  0.12802522  0.87171355  0.74958044  1
  Zn  Zn93  1  -0.01096969  0.01041099  -0.00285196  1
  Zn  Zn94  1  0.00172329  0.62733263  0.62300856  1
  Zn  Zn95  1  0.87056234  0.25159939  0.12732221  1
  Zn  Zn96  1  0.22798401  0.12676948  0.89331615  1
  Zn  Zn97  1  0.37631037  0.24842948  0.12579274  1
  Zn  Zn98  1  0.75003183  -0.00345787  0.24886882  1
  Zn  Zn99  1  0.44775114  0.70291463  0.68095734  1
  Zn  Zn100  1  0.86629165  0.74838332  0.11514864  1
  Zn  Zn101  1  0.12387013  0.87639208  0.24623315  1
  Zn  Zn102  1  0.63677013  0.62873847  0.01277779  1
  Zn  Zn103  1  0.00564346  0.12883142  0.12073182  1
  Zn  Zn104  1  0.62475834  0.75215976  0.37512541  1
  Zn  Zn105  1  0.24047652  0.25198656  -0.00270691  1
  Zn  Zn106  1  0.24625581  -0.00114445  0.24962029  1
  Zn  Zn107  1  0.18648317  0.18837072  0.18998328  1
  Zn  Zn108  1  0.17515243  0.17488448  0.71565406  1
  Zn  Zn109  1  0.18716189  0.68714335  0.18405658  1
  Zn  Zn110  1  0.28931516  0.68912656  0.68769865  1
  Zn  Zn111  1  0.68962683  0.18852736  0.18818153  1
  Zn  Zn112  1  0.68807699  0.18786146  0.68956528  1
  Zn  Zn113  1  0.68346660  0.69007695  0.19225029  1
  Zn  Zn114  1  0.69306539  0.69727133  0.69390555  1
  Zn  Zn115  1  0.30968060  0.31274196  0.31188882  1
  Zn  Zn116  1  0.31032877  0.31160423  0.81043365  1
  Zn  Zn117  1  0.31072630  0.81099011  0.31380919  1
  Zn  Zn118  1  0.31319117  0.81326766  0.81717533  1
  Zn  Zn119  1  0.81145362  0.31125621  0.31210546  1
  Zn  Zn120  1  0.80501793  0.31075004  0.81515454  1
  Zn  Zn121  1  0.81456069  0.81291490  0.30424479  1
  Zn  Zn122  1  0.81926071  0.81419414  0.81072300  1
  Zn  Zn123  1  0.19100168  0.43537893  0.43761727  1
  Zn  Zn124  1  0.19576051  0.44484263  0.94031378  1
  Zn  Zn125  1  0.18411348  0.93724011  0.43620424  1
  Zn  Zn126  1  0.18774202  0.93474994  0.93284624  1
  Zn  Zn127  1  0.68897705  0.44470113  0.42302468  1
  Zn  Zn128  1  0.68778162  0.43704756  0.93554354  1
  Zn  Zn129  1  0.68843023  0.93463439  0.43665278  1
  Zn  Zn130  1  0.67833284  0.93669508  0.94286935  1
  Zn  Zn131  1  0.30626365  0.06132790  0.06030577  1
  Zn  Zn132  1  0.31225965  0.05938489  0.56385965  1
  Zn  Zn133  1  0.31782643  0.56174803  0.06457729  1
  Zn  Zn134  1  0.31703305  0.56321849  0.56609105  1
  Zn  Zn135  1  0.81043788  0.05611926  0.06030387  1
  Zn  Zn136  1  0.81670569  0.06027696  0.56263746  1
  Zn  Zn137  1  0.81389186  0.55751952  0.06203975  1
  Zn  Zn138  1  0.81171062  0.56480078  0.56104756  1
  Zn  Zn139  1  0.43618013  0.44103982  0.18931146  1
  Zn  Zn140  1  0.43567297  0.43161548  0.68672906  1
  Zn  Zn141  1  0.43412065  0.93934045  0.18510378  1
  Zn  Zn142  1  0.44757344  0.89380289  0.67893461  1
  Zn  Zn143  1  0.93110199  0.43968085  0.18163441  1
  Zn  Zn144  1  0.93694091  0.43818538  0.68261178  1
  Zn  Zn145  1  0.93760010  0.93768356  0.18496866  1
  Zn  Zn146  1  0.93855378  0.93639833  0.69227709  1
  Zn  Zn147  1  0.06489050  0.06180148  0.30862679  1
  Zn  Zn148  1  0.06514827  0.06678835  0.81367423  1
  Zn  Zn149  1  0.05892129  0.56188318  0.31156953  1
  Zn  Zn150  1  0.06447190  0.56351896  0.80977403  1
  Zn  Zn151  1  0.55916129  0.06268984  0.31065009  1
  Zn  Zn152  1  0.55913210  0.05511037  0.81369835  1
  Zn  Zn153  1  0.56001472  0.56706886  0.31764708  1
  Zn  Zn154  1  0.55909787  0.56988089  0.83755181  1
  Zn  Zn155  1  0.44052834  0.18900374  0.43456872  1
  Zn  Zn156  1  0.40210507  0.20136687  0.92416809  1
  Zn  Zn157  1  0.43748801  0.68548621  0.43666715  1
  Zn  Zn158  1  0.43769183  0.68877374  0.94490688  1
  Zn  Zn159  1  0.93763016  0.18640320  0.43667312  1
  Zn  Zn160  1  0.93032758  0.17980391  0.94349922  1
  Zn  Zn161  1  0.94049360  0.68674282  0.43771037  1
  Zn  Zn162  1  0.93546914  0.69462097  0.93833631  1
  Zn  Zn163  1  0.06010038  0.31490792  0.08328374  1
  Zn  Zn164  1  0.06093353  0.31193148  0.56339756  1
  Zn  Zn165  1  0.06688390  0.81312025  0.05677438  1
  Zn  Zn166  1  0.06491562  0.80867213  0.56183039  1
  Zn  Zn167  1  0.56175627  0.31464273  0.06402852  1
  Zn  Zn168  1  0.56204946  0.31271646  0.55315998  1
  Zn  Zn169  1  0.56373752  0.81371938  0.06557124  1
  Zn  Zn170  1  0.56960933  0.80716789  0.56057828  1
  O  O171  1  0.12684697  0.11054799  0.13037675  1
  O  O172  1  0.10784750  0.13277366  0.62057725  1
  O  O173  1  0.11959512  0.61563198  0.11588925  1
  O  O174  1  0.12436976  0.60957828  0.61145528  1
  O  O175  1  0.62715588  0.11131233  0.12527018  1
  O  O176  1  0.62113605  0.11944636  0.62104921  1
  O  O177  1  0.61201424  0.62749156  0.12836232  1
  O  O178  1  0.63276153  0.62489206  0.61976990  1
  O  O179  1  0.36750538  0.38153853  0.38621113  1
  O  O180  1  0.38816155  0.37262795  0.88021344  1
  O  O181  1  0.38124883  0.88182145  0.38049810  1
  O  O182  1  0.36788457  0.88674207  0.88675002  1
  O  O183  1  0.86808181  0.38415591  0.38400766  1
  O  O184  1  0.86488772  0.38195562  0.88575441  1
  O  O185  1  0.88719086  0.87996611  0.37172542  1
  O  O186  1  0.89859956  0.87043549  0.86869234  1
  O  O187  1  0.25541490  0.00688361  0.37509259  1
  O  O188  1  0.25731461  0.00540669  0.86528316  1
  O  O189  1  0.25485141  0.49873231  0.36729553  1
  O  O190  1  0.25109573  0.51258261  0.86808013  1
  O  O191  1  0.75929315  0.00292700  0.37487911  1
  O  O192  1  0.74214200  0.00019691  0.86598522  1
  O  O193  1  0.76926106  0.51438286  0.38044779  1
  O  O194  1  0.75468604  0.50566247  0.86236791  1
  O  O195  1  0.24288599  0.49439097  0.13051013  1
  O  O196  1  0.24327737  0.49259914  0.63077584  1
  O  O197  1  0.23955613  0.99135680  0.12663198  1
  O  O198  1  0.25358244  0.98910424  0.63086213  1
  O  O199  1  0.75117348  0.48575647  0.12228168  1
  O  O200  1  0.75505035  0.49292175  0.63651548  1
  O  O201  1  0.73427559  0.99338057  0.12807139  1
  O  O202  1  0.74795357  0.99245244  0.62847643  1
  O  O203  1  -0.00884596  0.36218370  0.24778160  1
  O  O204  1  0.00589113  0.37182081  0.74666166  1
  O  O205  1  0.00168876  0.87059058  0.25826399  1
  O  O206  1  0.00449334  0.86447535  0.75406298  1
  O  O207  1  0.49148242  0.36973946  0.26584202  1
  O  O208  1  0.51196939  0.38148835  0.75596647  1
  O  O209  1  0.49438115  0.86771214  0.25602366  1
  O  O210  1  0.51962984  0.89791599  0.76554669  1
  O  O211  1  0.48697987  0.13617634  0.26051329  1
  O  O212  1  0.49391637  0.11399232  0.73222704  1
  O  O213  1  0.49419127  0.63051243  0.24794976  1
  O  O214  1  0.51748815  0.61361827  0.73480539  1
  O  O215  1  0.99187676  0.13085594  0.24799329  1
  O  O216  1  0.98890925  0.13085174  0.74158363  1
  O  O217  1  0.99381982  0.62577924  0.23786863  1
  O  O218  1  0.99667287  0.63404343  0.74550109  1
  O  O219  1  0.38671916  0.27148885  0.01286626  1
  O  O220  1  0.37206274  0.25619853  0.50378760  1
  O  O221  1  0.36689764  0.76079389  -0.00210636  1
  O  O222  1  0.36405247  0.75864707  0.48720292  1
  O  O223  1  0.86211438  0.25707501  -0.00066650  1
  O  O224  1  0.87329036  0.25742545  0.50591569  1
  O  O225  1  0.87718505  0.76134761  0.00343751  1
  O  O226  1  0.87067206  0.74459825  0.51253834  1
  O  O227  1  0.12536486  0.23944715  0.49614875  1
  O  O228  1  0.11912326  0.26963464  0.99165471  1
  O  O229  1  0.12929870  0.73855782  0.49340527  1
  O  O230  1  0.13583288  0.73716472  1.00225754  1
  O  O231  1  0.62832584  0.23306329  0.49715499  1
  O  O232  1  0.62593419  0.24827557  0.99316608  1
  O  O233  1  0.63739146  0.74112302  0.49735149  1
  O  O234  1  0.62113604  0.74824873  0.98864471  1
  O  O235  1  0.50050488  0.25906234  0.14463652  1
  O  O236  1  0.49372680  0.23851147  0.61503702  1
  O  O237  1  0.49982463  0.74438389  0.13764861  1
  O  O238  1  0.50285250  0.79321207  0.64579922  1
  O  O239  1  0.99308755  0.24702048  0.14131829  1
  O  O240  1  0.98672460  0.24573671  0.62967128  1
  O  O241  1  1.00464812  0.73708811  0.12240850  1
  O  O242  1  0.99368931  0.74986255  0.63060451  1
  O  O243  1  0.00517101  0.24669672  0.36500252  1
  O  O244  1  -0.00566673  0.25179520  0.86729824  1
  O  O245  1  0.00896780  0.75738653  0.37635391  1
  O  O246  1  0.00267206  0.74937715  0.85960431  1
  O  O247  1  0.50986287  0.25710617  0.36857044  1
  O  O248  1  0.50673568  0.25981487  0.87852341  1
  O  O249  1  0.49821881  0.75904299  0.36649492  1
  O  O250  1  0.51201811  0.74367952  0.87473612  1
  O  O251  1  0.24110641  0.12911439  0.49854610  1
  O  O252  1  0.25156723  0.13748760  1.00255552  1
  O  O253  1  0.24046214  0.63037463  0.50013486  1
  O  O254  1  0.24794217  0.62673657  0.99308790  1
  O  O255  1  0.74764063  0.12262927  0.48943068  1
  O  O256  1  0.74588506  0.13783085  1.00011063  1
  O  O257  1  0.74882260  0.63564400  0.49106841  1
  O  O258  1  0.75146016  0.61811843  0.98762796  1
  O  O259  1  0.25861478  0.37539116  0.00830603  1
  O  O260  1  0.25832865  0.36825448  0.50719429  1
  O  O261  1  0.25467341  0.86597546  0.00321177  1
  O  O262  1  0.25412676  0.87011813  0.50231238  1
  O  O263  1  0.75333074  0.36714734  0.00440187  1
  O  O264  1  0.75948658  0.37842407  0.50706075  1
  O  O265  1  0.74574688  0.87935040  0.01643256  1
  O  O266  1  0.74739060  0.86275006  0.50758627  1
  O  O267  1  0.13236226  0.50756905  0.24219037  1
  O  O268  1  0.12961920  0.49341508  0.74037378  1
  O  O269  1  0.12822051  0.99560947  0.24057087  1
  O  O270  1  0.13966535  0.99735576  0.74772239  1
  O  O271  1  0.61040536  0.46579167  0.32514989  1
  O  O272  1  0.62850031  0.50009978  0.74418004  1
  O  O273  1  0.62172796  0.99807300  0.23996937  1
  O  O274  1  0.63639372  0.99565960  0.74379272  1
  O  O275  1  0.37325175  0.00822405  0.25908622  1
  O  O276  1  0.37139054  -0.00079351  0.75568090  1
  O  O277  1  0.36622038  0.50787765  0.25924922  1
  O  O278  1  0.36112791  0.49426566  0.74457226  1
  O  O279  1  0.87671720  0.00650612  0.26225919  1
  O  O280  1  0.86494648  0.00985147  0.74442702  1
  O  O281  1  0.88259124  0.51198647  0.25735239  1
  O  O282  1  0.86919213  0.50445732  0.75279682  1
  O  O283  1  0.12546523  0.35955933  0.38381982  1
  O  O284  1  0.12561959  0.38103313  0.86631885  1
  O  O285  1  0.11401991  0.86742254  0.37393997  1
  O  O286  1  0.11233479  0.87422104  0.86760743  1
  O  O287  1  0.62839189  0.34783764  0.40060735  1
  O  O288  1  0.61598765  0.37054718  0.86539306  1
  O  O289  1  0.60928405  0.87589464  0.37493738  1
  O  O290  1  0.63254401  0.85933235  0.87050413  1
  O  O291  1  0.36907718  0.12564599  0.14055805  1
  O  O292  1  0.38680687  0.12980589  0.62154575  1
  O  O293  1  0.38714171  0.61924869  0.13944215  1
  O  O294  1  0.37153910  0.63663888  0.62578272  1
  O  O295  1  0.86765477  0.12554335  0.14079750  1
  O  O296  1  0.88065473  0.13396110  0.62909930  1
  O  O297  1  0.88305604  0.62368826  0.12879559  1
  O  O298  1  0.87666952  0.63257351  0.63103907  1
  O  O299  1  0.24691005  0.26636135  0.12877764  1
  O  O300  1  0.25988651  0.25514000  0.61878947  1
  O  O301  1  0.24729477  0.75583827  0.11210303  1
  O  O302  1  0.24437484  0.76032020  0.60703986  1
  O  O303  1  0.74927303  0.25823404  0.11676766  1
  O  O304  1  0.75890447  0.25634576  0.62259843  1
  O  O305  1  0.74453995  0.76464247  0.12910154  1
  O  O306  1  0.75908755  0.75766494  0.61916872  1
  O  O307  1  0.24171344  0.24459171  0.38212020  1
  O  O308  1  0.28689103  0.23576230  0.88758614  1
  O  O309  1  0.23496299  0.75676306  0.38548557  1
  O  O310  1  0.25101258  0.73458766  0.88650232  1
  O  O311  1  0.74511691  0.23828718  0.37671141  1
  O  O312  1  0.73281355  0.25113170  0.88410062  1
  O  O313  1  0.75453141  0.74651382  0.38251915  1
  O  O314  1  0.75175488  0.74022855  0.86924730  1
  O  O315  1  -0.00084763  0.12400269  0.00679127  1
  O  O316  1  0.00423238  0.11718904  0.50621214  1
  O  O317  1  0.00867719  0.62052041  0.00269064  1
  O  O318  1  0.00858715  0.61546844  0.50170209  1
  O  O319  1  0.49103717  0.11669778  0.00050012  1
  O  O320  1  0.50688223  0.11697904  0.50605317  1
  O  O321  1  0.49937104  0.61724100  0.01188087  1
  O  O322  1  0.51461733  0.62565656  0.49615672  1
  O  O323  1  0.49614223  0.38185127  0.48331719  1
  O  O324  1  0.49851922  0.38353946  0.99347855  1
  O  O325  1  0.49151419  0.87642518  0.49130003  1
  O  O326  1  0.48610477  0.88107599  1.00934515  1
  O  O327  1  0.98531766  0.38135233  0.50643372  1
  O  O328  1  0.99558921  0.37349792  0.99247966  1
  O  O329  1  1.00674312  0.88668890  0.49531015  1
  O  O330  1  1.00583648  0.87763935  0.98337587  1
  O  O331  1  0.47913867  0.49812979  0.37912004  1
  O  O332  1  0.49849726  0.49142512  0.88624374  1
  O  O333  1  0.49284789  0.99305573  0.38040708  1
  O  O334  1  0.49114127  0.99927862  0.88938768  1
  O  O335  1  0.99111957  0.50222326  0.38641957  1
  O  O336  1  0.99090408  0.50409375  0.87850112  1
  O  O337  1  0.99597301  0.99248360  0.38127859  1
  O  O338  1  1.00399860  0.99206355  0.87180902  1
  O  O339  1  0.01525779  -0.00251746  0.12383820  1
  O  O340  1  -0.00873966  0.00873714  0.61658710  1
  O  O341  1  0.00615061  0.50802714  0.11663225  1
  O  O342  1  0.00687358  0.50074715  0.61247543  1
  O  O343  1  0.51123290  -0.00357858  0.11941216  1
  O  O344  1  0.50876883  0.00068152  0.61609255  1
  O  O345  1  0.50153400  0.50646068  0.12031662  1
  O  O346  1  0.50865759  0.49532486  0.62059959  1
  O  O347  1  0.25434569  0.38991246  0.24342135  1
  O  O348  1  0.24314756  0.38070651  0.74555590  1
  O  O349  1  0.24957534  0.87418525  0.23986859  1
  O  O350  1  0.24946863  0.88175932  0.73948572  1
  O  O351  1  0.75629632  0.37141319  0.23400958  1
  O  O352  1  0.73768687  0.38331966  0.74464611  1
  O  O353  1  0.74371250  0.87844451  0.24268478  1
  O  O354  1  0.74770638  0.88191042  0.74425925  1
  O  O355  1  0.25726021  0.12639316  0.26066154  1
  O  O356  1  0.27129459  0.11085091  0.72793172  1
  O  O357  1  0.25756565  0.61424586  0.24183871  1
  O  O358  1  0.24420091  0.61639466  0.76648015  1
  O  O359  1  0.75638284  0.12134515  0.26238971  1
  O  O360  1  0.75576568  0.11455804  0.74888510  1
  O  O361  1  0.75732838  0.63053617  0.26124802  1
  O  O362  1  0.75687440  0.61875962  0.75507633  1
  O  O363  1  0.36732372  0.12002558  0.37339113  1
  O  O364  1  0.38572055  0.11046516  0.85592028  1
  O  O365  1  0.37415303  0.61657632  0.36562574  1
  O  O366  1  0.36627405  0.62286842  0.87952304  1
  O  O367  1  0.86927445  0.11772882  0.36910406  1
  O  O368  1  0.86526989  0.13234025  0.86030143  1
  O  O369  1  0.87342825  0.62124779  0.36632481  1
  O  O370  1  0.87017801  0.61926359  0.86783273  1
  O  O371  1  0.13249818  0.39150729  0.12480741  1
  O  O372  1  0.12914944  0.38603282  0.62673642  1
  O  O373  1  0.13576338  0.88071209  0.12378640  1
  O  O374  1  0.13619196  0.87524171  0.62282485  1
  O  O375  1  0.63635721  0.37594735  0.12554334  1
  O  O376  1  0.63606853  0.36668991  0.62853631  1
  O  O377  1  0.63155591  0.88496111  0.12716819  1
  O  O378  1  0.64097486  0.87821733  0.63447863  1
  O  O379  1  0.10940635  0.24744418  0.25894211  1
  O  O380  1  0.11581517  0.27202486  0.73593556  1
  O  O381  1  0.12331678  0.74954335  0.25835991  1
  O  O382  1  0.11083217  0.74822106  0.74242350  1
  O  O383  1  0.61736403  0.24113291  0.26231092  1
  O  O384  1  0.62746661  0.25870483  0.75793433  1
  O  O385  1  0.61127710  0.75399307  0.25672599  1
  O  O386  1  0.62865965  0.75893267  0.76375978  1
  O  O387  1  0.38082699  0.24287488  0.25191947  1
  O  O388  1  0.37514253  0.23951040  0.73325678  1
  O  O389  1  0.37976816  0.73789863  0.25738634  1
  O  O390  1  0.36622922  0.74632144  0.74957316  1
  O  O391  1  0.88483319  0.24124889  0.25448209  1
  O  O392  1  0.87413994  0.24658059  0.74212098  1
  O  O393  1  0.87941063  0.73657188  0.24241991  1
  O  O394  1  0.88204616  0.74430390  0.73777058  1
  O  O395  1  0.37269001  0.49170531  0.49393978  1
  O  O396  1  0.38754392  0.48789747  1.00689218  1
  O  O397  1  0.37945542  0.99317130  0.49150340  1
  O  O398  1  0.37862908  0.99452666  0.99404541  1
  O  O399  1  0.88269225  0.49504951  0.49542352  1
  O  O400  1  0.88359559  0.49140072  0.99266235  1
  O  O401  1  0.88551284  1.00471373  0.48629570  1
  O  O402  1  0.87633720  0.98948109  1.00188271  1
  O  O403  1  0.12674095  -0.00317708  0.01213532  1
  O  O404  1  0.11634388  0.01363770  0.49627526  1
  O  O405  1  0.12028931  0.50607939  0.00702037  1
  O  O406  1  0.11948147  0.50237141  0.50107077  1
  O  O407  1  0.61238405  0.00512488  0.00923102  1
  O  O408  1  0.62220981  0.00314014  0.50593849  1
  O  O409  1  0.61396296  0.50639634  -0.00751784  1
  O  O410  1  0.62949731  0.51534874  0.49833475  1
  O  O411  1  0.36516563  0.37771199  0.12198670  1
  O  O412  1  0.37564039  0.36555188  0.61292352  1
  O  O413  1  0.35967992  0.88312575  0.11566287  1
  O  O414  1  0.36177811  0.87947814  0.60624609  1
  O  O415  1  0.87095451  0.37382190  0.10836882  1
  O  O416  1  0.86350791  0.36884632  0.62024454  1
  O  O417  1  0.85649375  0.87490474  0.13213811  1
  O  O418  1  0.86522582  0.86829683  0.62927186  1
  O  O419  1  0.12931248  0.13160899  0.38412043  1
  O  O420  1  0.14189322  0.14420303  0.82450579  1
  O  O421  1  0.11913035  0.63200230  0.38331126  1
  O  O422  1  0.13232571  0.61738383  0.88628781  1
  O  O423  1  0.63246854  0.12593157  0.38077289  1
  O  O424  1  0.62202278  0.13312192  0.87577031  1
  O  O425  1  0.63760233  0.63050782  0.38043255  1
  O  O426  1  0.63654980  0.64046843  0.87812942  1
