# generated using pymatgen
data_V85Zn86O256
_symmetry_space_group_name_H-M   'P 1'
_cell_length_a   16.96770434
_cell_length_b   16.95570050
_cell_length_c   16.93651507
_cell_angle_alpha   89.94630497
_cell_angle_beta   90.01836808
_cell_angle_gamma   90.03792789
_symmetry_Int_Tables_number   1
_chemical_formula_structural   V85Zn86O256
_chemical_formula_sum   'V85 Zn86 O256'
_cell_volume   4872.62029099
_cell_formula_units_Z   1
loop_
 _symmetry_equiv_pos_site_id
 _symmetry_equiv_pos_as_xyz
  1  'x, y, z'
loop_
 _atom_site_type_symbol
 _atom_site_label
 _atom_site_symmetry_multiplicity
 _atom_site_fract_x
 _atom_site_fract_y
 _atom_site_fract_z
 _atom_site_occupancy
  V  V0  1  0.25162905  -0.01312543  0.74973184  1
  V  V1  1  0.37357612  0.25067127  0.62430849  1
  V  V2  1  -0.00015743  0.62183163  0.61767271  1
  V  V3  1  0.24843697  0.37528389  0.62881991  1
  V  V4  1  0.87830579  0.12820749  0.25319282  1
  V  V5  1  0.62417149  0.49893167  0.12911692  1
  V  V6  1  0.50012219  0.75047815  0.25263511  1
  V  V7  1  0.37539963  0.11831619  0.75383957  1
  V  V8  1  0.74521646  0.00139349  0.25093597  1
  V  V9  1  0.50082050  0.00484129  0.49745035  1
  V  V10  1  0.87385831  0.87598548  0.49991346  1
  V  V11  1  0.75619296  0.51168504  0.25317823  1
  V  V12  1  0.37082738  0.88009868  0.49812163  1
  V  V13  1  0.12382807  0.50419991  0.12665867  1
  V  V14  1  0.12530751  0.87806598  0.24661649  1
  V  V15  1  0.24964689  0.37882220  0.12334873  1
  V  V16  1  0.24953166  0.75166576  0.49985658  1
  V  V17  1  0.74993775  0.24981603  -0.00018662  1
  V  V18  1  0.49999871  0.49580275  -0.00629600  1
  V  V19  1  0.62497574  0.00686715  0.62031112  1
  V  V20  1  0.49368315  0.62364347  0.13032781  1
  V  V21  1  0.26656835  0.62244608  0.37344266  1
  V  V22  1  0.00294363  0.75095899  0.74773144  1
  V  V23  1  0.12301976  0.62072040  0.49385903  1
  V  V24  1  0.49858153  0.61838680  0.62570022  1
  V  V25  1  0.12330226  0.24286027  0.36993235  1
  V  V26  1  0.25045644  0.51514602  0.75312585  1
  V  V27  1  0.37294447  0.75180670  0.62646561  1
  V  V28  1  0.12568233  0.24408952  0.87657401  1
  V  V29  1  0.00551158  0.87366369  0.87181861  1
  V  V30  1  0.48882335  0.37966843  0.37564026  1
  V  V31  1  0.74717225  0.86754298  0.13085701  1
  V  V32  1  0.62606791  0.12191881  -0.00158895  1
  V  V33  1  0.12615591  0.62416881  -0.00436374  1
  V  V34  1  0.00348089  0.00185543  0.50264154  1
  V  V35  1  0.25476738  0.74250830  -0.00414735  1
  V  V36  1  0.87521672  0.25295198  0.60908184  1
  V  V37  1  0.00373952  0.12453896  0.12366533  1
  V  V38  1  0.87538783  0.74847755  0.62071103  1
  V  V39  1  0.62544748  0.87622952  0.75006974  1
  V  V40  1  0.25935742  0.50199034  0.25391872  1
  V  V41  1  0.13041515  0.74741052  0.86798718  1
  V  V42  1  0.62860377  0.62058161  0.50200130  1
  V  V43  1  0.24584455  0.87677892  0.12363969  1
  V  V44  1  0.87418913  0.37387286  -0.00098745  1
  V  V45  1  0.00198851  0.37429012  0.87326759  1
  V  V46  1  0.24916638  0.11373345  0.87703824  1
  V  V47  1  -0.01234611  0.62968367  0.12803116  1
  V  V48  1  0.62127181  0.25747065  0.87320686  1
  V  V49  1  0.01188897  0.00088528  0.00478972  1
  V  V50  1  0.37502313  0.37618723  -0.01232622  1
  V  V51  1  0.61965762  0.37599109  0.74414282  1
  V  V52  1  0.74903768  0.37091843  0.61338348  1
  V  V53  1  0.37946236  0.25169997  0.12415740  1
  V  V54  1  0.86789732  0.49930171  0.38428979  1
  V  V55  1  0.75177066  -0.00082710  0.75093580  1
  V  V56  1  0.13868627  0.12332224  0.50245845  1
  V  V57  1  0.62605304  0.36902841  0.25349254  1
  V  V58  1  0.74999173  0.62491863  0.87286823  1
  V  V59  1  0.87766365  -0.00179650  0.87658071  1
  V  V60  1  0.87579031  0.12999137  0.75054882  1
  V  V61  1  0.37341647  0.51830419  0.87135494  1
  V  V62  1  0.37157172  0.74815967  0.13519825  1
  V  V63  1  0.49732166  0.74603330  0.74912502  1
  V  V64  1  0.49636379  0.25442615  0.75641069  1
  V  V65  1  -0.00289598  0.48572456  0.50048610  1
  V  V66  1  0.87446538  0.49852610  0.87260849  1
  V  V67  1  0.49008005  0.00207786  -0.00236690  1
  V  V68  1  0.62736885  0.75092266  0.87545509  1
  V  V69  1  0.87683860  0.86847559  0.00752766  1
  V  V70  1  0.74282159  0.13353251  0.38513313  1
  V  V71  1  0.62559785  0.62417301  -0.00019908  1
  V  V72  1  0.11843705  0.37736478  0.25353275  1
  V  V73  1  0.24878028  0.24126600  -0.00243754  1
  V  V74  1  0.87489464  0.62378524  0.74757412  1
  V  V75  1  0.12984617  -0.01499223  0.63117880  1
  V  V76  1  0.74432112  0.49798505  0.74170077  1
  V  V77  1  0.50314869  0.12686263  0.13136663  1
  V  V78  1  0.75088833  0.12431818  0.87428404  1
  V  V79  1  0.00161682  0.87220562  0.37381830  1
  V  V80  1  0.63124560  0.75034644  0.37327290  1
  V  V81  1  0.49896090  0.87816377  0.37250726  1
  V  V82  1  0.49522770  0.88053867  0.87545651  1
  V  V83  1  0.74958790  0.87449738  0.62467389  1
  V  V84  1  0.88020456  0.25157608  0.13021129  1
  Zn  Zn85  1  0.00062411  0.50100361  -0.00142348  1
  Zn  Zn86  1  -0.00831527  0.36870200  0.37137422  1
  Zn  Zn87  1  0.00058525  0.24929451  0.74986883  1
  Zn  Zn88  1  0.37354127  0.87567758  -0.00047006  1
  Zn  Zn89  1  -0.01003220  0.75268818  0.23765005  1
  Zn  Zn90  1  0.49877055  0.24560943  0.25659021  1
  Zn  Zn91  1  0.62482876  0.25443797  0.39762548  1
  Zn  Zn92  1  0.00450984  0.12622768  0.62837308  1
  Zn  Zn93  1  0.62696053  -0.00283086  0.12551782  1
  Zn  Zn94  1  0.12706266  0.74840259  0.36988338  1
  Zn  Zn95  1  0.75189845  0.37528030  0.12831018  1
  Zn  Zn96  1  0.49213782  0.50668036  0.49203382  1
  Zn  Zn97  1  0.74971688  0.74703231  0.49720252  1
  Zn  Zn98  1  0.36931810  0.38626892  0.49834871  1
  Zn  Zn99  1  0.87280677  0.00386404  0.37753617  1
  Zn  Zn100  1  0.12669939  0.37492749  0.75185334  1
  Zn  Zn101  1  0.50582872  0.13031140  0.62230107  1
  Zn  Zn102  1  0.25105668  0.25045838  0.49940552  1
  Zn  Zn103  1  0.12458958  0.49673337  0.62656342  1
  Zn  Zn104  1  0.30317586  0.08435616  0.32035892  1
  Zn  Zn105  1  0.16429431  0.03761700  0.15842139  1
  Zn  Zn106  1  0.75578013  0.74514847  0.00661323  1
  Zn  Zn107  1  0.19094049  0.20084762  0.18930644  1
  Zn  Zn108  1  0.18813278  0.18373266  0.69075198  1
  Zn  Zn109  1  0.18260105  0.69066946  0.19137187  1
  Zn  Zn110  1  0.18586152  0.68886277  0.68082803  1
  Zn  Zn111  1  0.69226159  0.18731171  0.18751111  1
  Zn  Zn112  1  0.69020507  0.18801125  0.56622851  1
  Zn  Zn113  1  0.68371614  0.68828324  0.18947300  1
  Zn  Zn114  1  0.68543203  0.68795845  0.68418889  1
  Zn  Zn115  1  0.32924615  0.27059069  0.33075860  1
  Zn  Zn116  1  0.31067134  0.31409483  0.81087879  1
  Zn  Zn117  1  0.31627848  0.92006307  0.30632895  1
  Zn  Zn118  1  0.31607657  0.80670491  0.81469451  1
  Zn  Zn119  1  0.81076664  0.31545723  0.31409656  1
  Zn  Zn120  1  0.80851186  0.31164406  0.80852819  1
  Zn  Zn121  1  0.81458198  0.81504879  0.30776627  1
  Zn  Zn122  1  0.81676696  0.81131362  0.81362767  1
  Zn  Zn123  1  0.18740424  0.43598712  0.43702260  1
  Zn  Zn124  1  0.18953501  0.43801248  0.93486664  1
  Zn  Zn125  1  0.18862593  0.94057157  0.43461999  1
  Zn  Zn126  1  0.18809896  0.93249270  0.94016278  1
  Zn  Zn127  1  0.68123118  0.44136786  0.43432519  1
  Zn  Zn128  1  0.68863624  0.43768995  0.93558057  1
  Zn  Zn129  1  0.68516931  0.93803313  0.43475671  1
  Zn  Zn130  1  0.68878167  0.93533242  0.94125999  1
  Zn  Zn131  1  0.32734831  0.05484050  0.15152513  1
  Zn  Zn132  1  0.31449758  0.05955001  0.56810335  1
  Zn  Zn133  1  0.31231325  0.56251312  0.06221741  1
  Zn  Zn134  1  0.31427217  0.56356260  0.56524650  1
  Zn  Zn135  1  0.81728924  0.05818517  0.06419551  1
  Zn  Zn136  1  0.81730956  0.06102111  0.56589790  1
  Zn  Zn137  1  0.80984620  0.55825553  0.06179497  1
  Zn  Zn138  1  0.81161013  0.55952082  0.55909677  1
  Zn  Zn139  1  0.43757464  0.43228506  0.18695872  1
  Zn  Zn140  1  0.43240166  0.43832413  0.69075658  1
  Zn  Zn141  1  0.44580342  0.93152778  0.18243758  1
  Zn  Zn142  1  0.43697668  0.93544855  0.68420735  1
  Zn  Zn143  1  0.93681221  0.44285327  0.18713289  1
  Zn  Zn144  1  0.93450712  0.43412265  0.68645028  1
  Zn  Zn145  1  0.93410999  0.94147918  0.18907139  1
  Zn  Zn146  1  0.94157393  0.93770793  0.68805539  1
  Zn  Zn147  1  0.06108756  0.06169699  0.31463920  1
  Zn  Zn148  1  0.06520947  0.06137356  0.81273311  1
  Zn  Zn149  1  0.05559647  0.55916603  0.31278083  1
  Zn  Zn150  1  0.06364605  0.56225984  0.81049358  1
  Zn  Zn151  1  0.56489117  0.06095882  0.31355511  1
  Zn  Zn152  1  0.56267588  0.06491240  0.81067978  1
  Zn  Zn153  1  0.56332676  0.56404073  0.31354744  1
  Zn  Zn154  1  0.56106013  0.56196785  0.81152816  1
  Zn  Zn155  1  0.44179661  0.19098644  0.43835633  1
  Zn  Zn156  1  0.43489477  0.18406128  0.93775819  1
  Zn  Zn157  1  0.43891386  0.69040698  0.44064726  1
  Zn  Zn158  1  0.44137117  0.68932055  0.94123348  1
  Zn  Zn159  1  0.94452390  0.18404903  0.43437705  1
  Zn  Zn160  1  0.93995144  0.18677226  0.93978874  1
  Zn  Zn161  1  0.91420948  0.70349054  0.40058661  1
  Zn  Zn162  1  0.94038398  0.68667583  0.93875545  1
  Zn  Zn163  1  0.06302150  0.31259418  0.06049036  1
  Zn  Zn164  1  0.06568062  0.30714838  0.56550385  1
  Zn  Zn165  1  0.06401892  0.80866045  0.05945475  1
  Zn  Zn166  1  0.06240363  0.80974723  0.55708105  1
  Zn  Zn167  1  0.56297514  0.31493676  0.06070449  1
  Zn  Zn168  1  0.55519398  0.31918904  0.56552386  1
  Zn  Zn169  1  0.56513002  0.81189677  0.06242626  1
  Zn  Zn170  1  0.56144087  0.81383045  0.56003470  1
  O  O171  1  0.10669136  0.13528902  0.12996456  1
  O  O172  1  0.12379070  0.11770081  0.61773860  1
  O  O173  1  0.12063984  0.62023368  0.11446058  1
  O  O174  1  0.11629114  0.62126756  0.61429811  1
  O  O175  1  0.62145119  0.12749619  0.11317267  1
  O  O176  1  0.62730876  0.10980544  0.62953204  1
  O  O177  1  0.61776365  0.61494273  0.12094324  1
  O  O178  1  0.61457448  0.63409267  0.61076671  1
  O  O179  1  0.38613493  0.36578236  0.37444039  1
  O  O180  1  0.37069449  0.38300001  0.88468304  1
  O  O181  1  0.39074453  0.87063984  0.38362509  1
  O  O182  1  0.39215219  0.86756957  0.88018946  1
  O  O183  1  0.87778701  0.38882936  0.36800473  1
  O  O184  1  0.87974438  0.37643982  0.88041821  1
  O  O185  1  0.88090512  0.88179698  0.38861152  1
  O  O186  1  0.88593080  0.87920144  0.88082252  1
  O  O187  1  0.26133829  -0.00484618  0.37262847  1
  O  O188  1  0.24345759  0.00879937  0.87210838  1
  O  O189  1  0.24443735  0.51284000  0.36831451  1
  O  O190  1  0.25693741  0.49967764  0.86213363  1
  O  O191  1  0.75068507  0.00907019  0.36906389  1
  O  O192  1  0.75676699  0.00276986  0.87176006  1
  O  O193  1  0.75632805  0.49560211  0.36421024  1
  O  O194  1  0.75566323  0.50506842  0.86547933  1
  O  O195  1  0.23871361  0.50105336  0.12927698  1
  O  O196  1  0.24984880  0.49482436  0.63818525  1
  O  O197  1  0.24892206  0.98028881  0.10400392  1
  O  O198  1  0.23825278  0.99846506  0.63402673  1
  O  O199  1  0.74187371  0.49838514  0.13508989  1
  O  O200  1  0.75673628  0.49136512  0.63727285  1
  O  O201  1  0.75001888  0.99179513  0.13205953  1
  O  O202  1  0.74491575  0.99362457  0.63040314  1
  O  O203  1  0.01439578  0.38240024  0.24583131  1
  O  O204  1  -0.00085827  0.37334114  0.76318901  1
  O  O205  1  0.00071586  0.87448410  0.25892872  1
  O  O206  1  -0.00506224  0.86485615  0.76037587  1
  O  O207  1  0.50792783  0.37417319  0.25778722  1
  O  O208  1  0.50689563  0.36795018  0.74778072  1
  O  O209  1  0.49998618  0.86050650  0.25640899  1
  O  O210  1  0.50623835  0.86889883  0.75701068  1
  O  O211  1  0.51062631  0.12767994  0.23539901  1
  O  O212  1  0.49162015  0.13208622  0.74867377  1
  O  O213  1  0.50539268  0.63467666  0.24074173  1
  O  O214  1  0.50954373  0.63958771  0.74289762  1
  O  O215  1  0.98505150  0.11839524  0.24379093  1
  O  O216  1  0.98836973  0.12359109  0.75083611  1
  O  O217  1  1.00550053  0.62332758  0.23058377  1
  O  O218  1  0.99561171  0.62821290  0.73771019  1
  O  O219  1  0.37026795  0.25909385  0.00199852  1
  O  O220  1  0.37378671  0.25340124  0.51591950  1
  O  O221  1  0.36845346  0.74894661  0.00807108  1
  O  O222  1  0.36919870  0.75870994  0.50485578  1
  O  O223  1  0.87032176  0.25993725  0.00268237  1
  O  O224  1  0.88108401  0.24510394  0.51097777  1
  O  O225  1  0.87347227  0.76431523  -0.00817133  1
  O  O226  1  0.87088111  0.75858829  0.50093705  1
  O  O227  1  0.12573270  0.23741969  0.49534739  1
  O  O228  1  0.13579349  0.25685322  0.98770399  1
  O  O229  1  0.13508095  0.73997586  0.50299844  1
  O  O230  1  0.13229839  0.74169368  0.98988392  1
  O  O231  1  0.61362852  0.24279519  0.50947113  1
  O  O232  1  0.62830099  0.24294396  0.99294713  1
  O  O233  1  0.62535435  0.74410027  0.49048019  1
  O  O234  1  0.62839849  0.74204798  0.99285291  1
  O  O235  1  0.49585540  0.24371775  0.12108811  1
  O  O236  1  0.48999851  0.24925080  0.63896773  1
  O  O237  1  0.49743081  0.74341400  0.13035351  1
  O  O238  1  0.49563548  0.74706009  0.63324353  1
  O  O239  1  0.98628418  0.24317954  0.11445646  1
  O  O240  1  0.98815354  0.24813836  0.62991060  1
  O  O241  1  0.99842810  0.73496732  0.12032263  1
  O  O242  1  0.99492472  0.74174501  0.62629741  1
  O  O243  1  0.01654757  0.25375971  0.37957485  1
  O  O244  1  0.00824665  0.25594931  0.87669430  1
  O  O245  1  0.01055557  0.77011576  0.39764153  1
  O  O246  1  0.00754573  0.75479493  0.86932431  1
  O  O247  1  0.50767422  0.26395356  0.37260278  1
  O  O248  1  0.50591831  0.24522717  0.86569583  1
  O  O249  1  0.50486975  0.75498768  0.36811347  1
  O  O250  1  0.50877629  0.75479186  0.86858901  1
  O  O251  1  0.24164650  0.12456471  0.50473967  1
  O  O252  1  0.25599575  0.13982256  0.98990598  1
  O  O253  1  0.24124468  0.62457543  0.49134997  1
  O  O254  1  0.24183549  0.63474208  1.00391288  1
  O  O255  1  0.75340698  0.12076215  0.48896658  1
  O  O256  1  0.74539248  0.12871214  0.99506418  1
  O  O257  1  0.73355479  0.62712414  0.50709986  1
  O  O258  1  0.74423110  0.62477506  0.99349697  1
  O  O259  1  0.25758948  0.37011728  0.00302804  1
  O  O260  1  0.24922815  0.37557119  0.51562197  1
  O  O261  1  0.25054012  0.85829730  0.00358366  1
  O  O262  1  0.25869608  0.86275157  0.49227252  1
  O  O263  1  0.75748225  0.36949199  0.00210980  1
  O  O264  1  0.73911721  0.38356213  0.51488230  1
  O  O265  1  0.75899625  0.87301609  0.01140334  1
  O  O266  1  0.75932678  0.87746281  0.50609358  1
  O  O267  1  0.12955158  0.49790558  0.24204267  1
  O  O268  1  0.13773842  0.49850758  0.75036335  1
  O  O269  1  0.11424520  0.98470552  0.24631062  1
  O  O270  1  0.13264948  1.00156916  0.73808706  1
  O  O271  1  0.63161037  0.49364615  0.24469929  1
  O  O272  1  0.63351377  0.48920997  0.75876953  1
  O  O273  1  0.64068905  1.00479853  0.24623132  1
  O  O274  1  0.63110384  0.99346323  0.74494004  1
  O  O275  1  0.37401289  -0.00333411  0.24015742  1
  O  O276  1  0.36688468  0.00751141  0.74251775  1
  O  O277  1  0.35789084  0.49648646  0.23915920  1
  O  O278  1  0.36261414  0.50032174  0.75942299  1
  O  O279  1  0.86388456  0.00992340  0.25342320  1
  O  O280  1  0.87225926  0.00441921  0.75631121  1
  O  O281  1  0.86033418  0.49880883  0.25387607  1
  O  O282  1  0.86714983  0.50488239  0.75454052  1
  O  O283  1  0.11815721  0.37084716  0.36735556  1
  O  O284  1  0.11636828  0.36896844  0.87437659  1
  O  O285  1  0.11848481  0.87482796  0.36624132  1
  O  O286  1  0.11280325  0.86320431  0.88068868  1
  O  O287  1  0.61897752  0.37236332  0.36695885  1
  O  O288  1  0.63019642  0.36238057  0.86965821  1
  O  O289  1  0.61213693  0.86057184  0.38227537  1
  O  O290  1  0.61974625  0.86890360  0.87057044  1
  O  O291  1  0.39265764  0.13865977  0.11173498  1
  O  O292  1  0.37408131  0.13361626  0.63783483  1
  O  O293  1  0.38817692  0.63005751  0.11797378  1
  O  O294  1  0.38628525  0.64175651  0.61908688  1
  O  O295  1  0.87953179  0.13304645  0.13191421  1
  O  O296  1  0.87636480  0.13578879  0.63323825  1
  O  O297  1  0.88938480  0.61747742  0.11785252  1
  O  O298  1  0.88068525  0.62870706  0.62717471  1
  O  O299  1  0.25802761  0.25817626  0.11330305  1
  O  O300  1  0.25647671  0.25724792  0.62859832  1
  O  O301  1  0.25631977  0.75170293  0.11868225  1
  O  O302  1  0.25906338  0.74333448  0.61169692  1
  O  O303  1  0.76179190  0.25172494  0.11643348  1
  O  O304  1  0.76514407  0.25541325  0.62335850  1
  O  O305  1  0.74845458  0.76216589  0.12777681  1
  O  O306  1  0.75827696  0.75765181  0.62399434  1
  O  O307  1  0.22725366  0.26273648  0.38339154  1
  O  O308  1  0.24378935  0.24380886  0.87822677  1
  O  O309  1  0.24472818  0.73081669  0.38745483  1
  O  O310  1  0.24162607  0.75050540  0.88132404  1
  O  O311  1  0.74780262  0.23701638  0.37425906  1
  O  O312  1  0.74209279  0.24383872  0.88003516  1
  O  O313  1  0.73355512  0.75881250  0.37583996  1
  O  O314  1  0.74302827  0.74282845  0.87333092  1
  O  O315  1  -0.00851571  0.11268381  0.01007583  1
  O  O316  1  0.00854683  0.11146684  0.50177819  1
  O  O317  1  0.00791770  0.62205248  0.00777853  1
  O  O318  1  0.00376618  0.61588149  0.51076840  1
  O  O319  1  0.50959423  0.11948875  0.00215873  1
  O  O320  1  0.48952361  0.10859843  0.50301518  1
  O  O321  1  0.50719303  0.61554876  0.00773173  1
  O  O322  1  0.50809231  0.62785998  0.50922713  1
  O  O323  1  0.49791560  0.38187347  0.48637351  1
  O  O324  1  0.49305833  0.38876498  1.00284938  1
  O  O325  1  0.49240799  0.88228599  0.49308633  1
  O  O326  1  0.50493909  0.88405689  0.99277442  1
  O  O327  1  1.00495651  0.38439223  0.50292957  1
  O  O328  1  0.99201791  0.37657508  0.98893252  1
  O  O329  1  0.99433566  0.88616283  0.49960026  1
  O  O330  1  0.99368826  0.87950596  0.99558695  1
  O  O331  1  0.50167781  0.48431505  0.36948717  1
  O  O332  1  0.49034841  0.50551928  0.88368647  1
  O  O333  1  0.50780028  0.99068733  0.38259860  1
  O  O334  1  0.50798401  0.99110804  0.88218471  1
  O  O335  1  0.98896443  0.49514043  0.38427632  1
  O  O336  1  0.99301726  0.49239078  0.87590628  1
  O  O337  1  0.99923351  0.99083954  0.38607580  1
  O  O338  1  0.99793289  0.99111428  0.88028615  1
  O  O339  1  -0.00543535  0.00977539  0.11673793  1
  O  O340  1  0.01255818  0.00140266  0.62150876  1
  O  O341  1  0.01022428  0.50760052  0.12013651  1
  O  O342  1  -0.00176280  0.50491012  0.61952471  1
  O  O343  1  0.50815097  0.00803643  0.11580441  1
  O  O344  1  0.50985268  0.00027170  0.61861933  1
  O  O345  1  0.50554567  0.50622020  0.12047353  1
  O  O346  1  0.49605393  0.51683255  0.63378908  1
  O  O347  1  0.23532534  0.38772288  0.23869602  1
  O  O348  1  0.24913156  0.38269496  0.74122437  1
  O  O349  1  0.23886682  0.86925902  0.23552566  1
  O  O350  1  0.25563318  0.88803738  0.76142250  1
  O  O351  1  0.74009076  0.38393107  0.24736518  1
  O  O352  1  0.74130105  0.38080129  0.74402852  1
  O  O353  1  0.75654269  0.88359416  0.23830419  1
  O  O354  1  0.74692663  0.87971959  0.74574799  1
  O  O355  1  0.24473124  0.10695705  0.21851884  1
  O  O356  1  0.25669190  0.11515729  0.75915245  1
  O  O357  1  0.24213637  0.62023936  0.26681125  1
  O  O358  1  0.24775306  0.61361224  0.74512153  1
  O  O359  1  0.75910363  0.12049379  0.25763011  1
  O  O360  1  0.76388319  0.11442970  0.75937023  1
  O  O361  1  0.74263236  0.60974703  0.24913716  1
  O  O362  1  0.75272815  0.61676559  0.75106943  1
  O  O363  1  0.36753783  0.16579927  0.35823604  1
  O  O364  1  0.36517677  0.12831574  0.86290282  1
  O  O365  1  0.36447902  0.62664066  0.37728490  1
  O  O366  1  0.37622841  0.61764874  0.87939811  1
  O  O367  1  0.86763254  0.12563906  0.36900557  1
  O  O368  1  0.87176002  0.11881322  0.87093533  1
  O  O369  1  0.87354193  0.59974870  0.38160599  1
  O  O370  1  0.87044642  0.62006060  0.86839403  1
  O  O371  1  0.12843334  0.38468729  0.12625863  1
  O  O372  1  0.13253083  0.37537306  0.63143185  1
  O  O373  1  0.13313992  0.86713745  0.13016900  1
  O  O374  1  0.12212615  0.88660127  0.62279483  1
  O  O375  1  0.62383424  0.38765051  0.12975617  1
  O  O376  1  0.63209626  0.37121733  0.63849012  1
  O  O377  1  0.64296842  0.87776949  0.11876164  1
  O  O378  1  0.63017634  0.88111431  0.63163346  1
  O  O379  1  0.12679780  0.25996917  0.26174017  1
  O  O380  1  0.12288435  0.25069270  0.76302648  1
  O  O381  1  0.11332132  0.76135241  0.25236905  1
  O  O382  1  0.12077249  0.74200179  0.76039917  1
  O  O383  1  0.62550894  0.26416125  0.24258257  1
  O  O384  1  0.61332385  0.25948519  0.75960270  1
  O  O385  1  0.61746039  0.74544325  0.26493150  1
  O  O386  1  0.61958876  0.75797104  0.75479567  1
  O  O387  1  0.37914793  0.26591271  0.22600364  1
  O  O388  1  0.37968242  0.24439358  0.74634747  1
  O  O389  1  0.38468080  0.74632185  0.23587367  1
  O  O390  1  0.38643700  0.75464654  0.74157211  1
  O  O391  1  0.86951501  0.24356096  0.24010096  1
  O  O392  1  0.87617908  0.23953279  0.74944564  1
  O  O393  1  0.89255643  0.74043650  0.29201946  1
  O  O394  1  0.88170925  0.74190434  0.74242528  1
  O  O395  1  0.38020169  0.49894190  0.50472951  1
  O  O396  1  0.38055850  0.49634638  0.99225191  1
  O  O397  1  0.38215056  0.98603384  0.51059907  1
  O  O398  1  0.39113466  0.99692729  1.00399946  1
  O  O399  1  0.87935057  0.49405205  0.49307289  1
  O  O400  1  0.87340289  0.48669886  0.99313507  1
  O  O401  1  0.88622493  0.99381739  0.50332176  1
  O  O402  1  0.88128661  0.98831767  0.99264218  1
  O  O403  1  0.11153312  -0.00460127  0.00006348  1
  O  O404  1  0.12197971  0.00324317  0.51066759  1
  O  O405  1  0.12646301  0.50772349  0.00557352  1
  O  O406  1  0.11542640  0.50520905  0.50251057  1
  O  O407  1  0.62315505  0.01338564  -0.00142037  1
  O  O408  1  0.61485348  -0.00732784  0.50951163  1
  O  O409  1  0.61866165  0.50206749  0.00589726  1
  O  O410  1  0.61634484  0.51794790  0.49368947  1
  O  O411  1  0.37029804  0.37317015  0.10901676  1
  O  O412  1  0.36700383  0.36607357  0.62814937  1
  O  O413  1  0.36721738  0.86298792  0.12034669  1
  O  O414  1  0.38088130  0.86118199  0.61402680  1
  O  O415  1  0.87655366  0.36961359  0.11671989  1
  O  O416  1  0.86631455  0.35962651  0.63001995  1
  O  O417  1  0.86452777  0.87811226  0.11754510  1
  O  O418  1  0.87313508  0.87052657  0.61594465  1
  O  O419  1  0.12275317  0.13472876  0.38115547  1
  O  O420  1  0.13481510  0.13232553  0.87330867  1
  O  O421  1  0.11712241  0.62562984  0.38731798  1
  O  O422  1  0.11705202  0.63200973  0.88735331  1
  O  O423  1  0.64071507  0.12924558  0.37118770  1
  O  O424  1  0.63052334  0.13506737  0.87960692  1
  O  O425  1  0.61656478  0.63947145  0.38845884  1
  O  O426  1  0.63069676  0.63033011  0.87915751  1
