# generated using pymatgen
data_V85Zn86O256
_symmetry_space_group_name_H-M   'P 1'
_cell_length_a   16.93451017
_cell_length_b   16.93425026
_cell_length_c   16.94092787
_cell_angle_alpha   90.03550514
_cell_angle_beta   89.89532830
_cell_angle_gamma   90.00548552
_symmetry_Int_Tables_number   1
_chemical_formula_structural   V85Zn86O256
_chemical_formula_sum   'V85 Zn86 O256'
_cell_volume   4858.19559949
_cell_formula_units_Z   1
loop_
 _symmetry_equiv_pos_site_id
 _symmetry_equiv_pos_as_xyz
  1  'x, y, z'
loop_
 _atom_site_type_symbol
 _atom_site_label
 _atom_site_symmetry_multiplicity
 _atom_site_fract_x
 _atom_site_fract_y
 _atom_site_fract_z
 _atom_site_occupancy
  V  V0  1  -0.00124314  0.00009269  0.50349728  1
  V  V1  1  0.50066548  0.24978981  0.74766997  1
  V  V2  1  0.12398381  0.38189284  0.75125443  1
  V  V3  1  0.12070947  0.49808228  0.11578070  1
  V  V4  1  0.87792209  0.25862339  0.62051378  1
  V  V5  1  0.86668177  0.25142640  0.12449829  1
  V  V6  1  0.75299114  0.75040870  -0.00326257  1
  V  V7  1  0.50303259  0.37750145  0.37272564  1
  V  V8  1  0.12256841  0.25382323  0.87996964  1
  V  V9  1  0.74927817  -0.00213056  0.25085251  1
  V  V10  1  0.63073118  0.38449362  0.74963912  1
  V  V11  1  0.62795222  0.74486686  0.87529831  1
  V  V12  1  0.86933363  0.62736630  0.25243315  1
  V  V13  1  0.00054936  0.25675978  0.75491472  1
  V  V14  1  0.25080076  -0.00759740  0.74877452  1
  V  V15  1  0.24895160  0.62577453  0.88237558  1
  V  V16  1  0.49096563  0.63165863  0.12833669  1
  V  V17  1  0.25016433  0.37221295  0.12226133  1
  V  V18  1  0.36345775  0.88315751  0.51246195  1
  V  V19  1  -0.00412782  0.37437898  0.38232913  1
  V  V20  1  0.63060023  0.49622920  0.12227573  1
  V  V21  1  -0.00377165  0.75118112  0.75442274  1
  V  V22  1  0.88905799  0.87758878  -0.00510834  1
  V  V23  1  0.50216835  0.49835524  0.00050189  1
  V  V24  1  0.49785844  0.87234252  0.87836986  1
  V  V25  1  0.37548042  0.24064436  0.12371424  1
  V  V26  1  0.86538536  0.12993909  0.75439603  1
  V  V27  1  0.88126799  0.00814574  0.88067839  1
  V  V28  1  0.00375910  0.12122158  0.11108889  1
  V  V29  1  0.63065500  0.37257646  0.24367672  1
  V  V30  1  0.12848317  0.00146370  0.11620672  1
  V  V31  1  0.37339265  -0.00395373  0.87783827  1
  V  V32  1  -0.00023228  0.12809426  0.62793135  1
  V  V33  1  0.75358422  0.25728393  0.49713792  1
  V  V34  1  0.86568900  0.75040076  0.62749911  1
  V  V35  1  0.62704610  0.62925352  0.48527753  1
  V  V36  1  0.63473935  0.87389015  0.74483457  1
  V  V37  1  0.29697794  0.19153569  0.44018097  1
  V  V38  1  0.74591010  0.74963938  0.48672683  1
  V  V39  1  0.62171973  0.86362487  0.26196782  1
  V  V40  1  0.12608587  0.37419023  0.24915448  1
  V  V41  1  0.85852184  0.62104312  0.75652295  1
  V  V42  1  0.50137686  0.24685248  0.24689301  1
  V  V43  1  0.12483894  0.13122902  0.49699784  1
  V  V44  1  0.63132512  0.62350380  -0.00081841  1
  V  V45  1  0.13209596  0.87699565  0.24993237  1
  V  V46  1  0.62985776  0.12366689  0.50262569  1
  V  V47  1  0.63628328  0.24661809  0.87179546  1
  V  V48  1  0.24384495  0.74113847  0.51078833  1
  V  V49  1  0.00237972  0.74923013  0.24875382  1
  V  V50  1  0.49642252  0.11596074  0.12717107  1
  V  V51  1  0.63257790  0.12286323  -0.00514401  1
  V  V52  1  0.74919223  0.87452587  0.12267530  1
  V  V53  1  0.50242229  -0.00305650  -0.00267032  1
  V  V54  1  0.30871792  0.81678109  0.05646673  1
  V  V55  1  0.49906561  0.74968811  0.75112227  1
  V  V56  1  0.24496889  0.12303446  0.87475858  1
  V  V57  1  0.50262800  0.50088791  0.49946488  1
  V  V58  1  0.87458741  0.00044436  0.37675706  1
  V  V59  1  0.62382915  -0.00402003  0.12493030  1
  V  V60  1  0.37419190  0.62277398  0.75242862  1
  V  V61  1  0.25354559  0.51175792  0.24475566  1
  V  V62  1  0.37682765  0.51351982  0.36820163  1
  V  V63  1  0.74890473  0.50310098  0.25276380  1
  V  V64  1  -0.00068705  0.87356411  0.37617516  1
  V  V65  1  0.75396656  0.38438948  0.62459280  1
  V  V66  1  0.00421826  0.62265924  0.62294064  1
  V  V67  1  0.37529410  0.37086042  -0.00115428  1
  V  V68  1  0.50157973  0.62640380  0.62327672  1
  V  V69  1  0.86941641  0.87657916  0.51001027  1
  V  V70  1  0.12403210  0.75163059  0.88242134  1
  V  V71  1  0.11832722  0.87613014  0.75564239  1
  V  V72  1  0.50318552  0.37258958  0.87570260  1
  V  V73  1  0.87628753  0.12300033  0.24998193  1
  V  V74  1  0.87413334  0.49288773  0.87394539  1
  V  V75  1  0.24859631  0.00998042  0.26713952  1
  V  V76  1  0.36628842  0.37681074  0.49586618  1
  V  V77  1  0.00165046  0.24733100  0.24975035  1
  V  V78  1  0.88133088  0.38246891  0.00740111  1
  V  V79  1  0.48368003  0.87545993  0.37906412  1
  V  V80  1  0.24739117  0.23476185  0.00163208  1
  V  V81  1  0.87267199  0.49942849  0.37985879  1
  V  V82  1  0.12656457  -0.00485458  0.62611196  1
  V  V83  1  -0.00151657  0.62140423  0.12023340  1
  V  V84  1  0.36855195  0.24895497  0.62539765  1
  Zn  Zn85  1  0.37016440  0.75447197  0.62987147  1
  Zn  Zn86  1  0.37675378  0.11593422  0.26749478  1
  Zn  Zn87  1  0.63161073  0.50543073  0.62577983  1
  Zn  Zn88  1  0.12893498  0.25009934  0.37812597  1
  Zn  Zn89  1  0.48443803  0.74048376  0.25924051  1
  Zn  Zn90  1  0.62975121  0.24927160  0.37275055  1
  Zn  Zn91  1  0.50066590  -0.00079766  0.50282743  1
  Zn  Zn92  1  0.37363890  0.49835175  0.87524383  1
  Zn  Zn93  1  0.00552315  0.51038546  0.49148013  1
  Zn  Zn94  1  0.12148550  0.74042824  0.38358778  1
  Zn  Zn95  1  0.63221347  -0.00532379  0.62291648  1
  Zn  Zn96  1  0.50292076  0.12120624  0.62648834  1
  Zn  Zn97  1  0.12198939  0.62308551  -0.00192201  1
  Zn  Zn98  1  0.24919665  0.49960940  0.74943940  1
  Zn  Zn99  1  0.75364811  -0.00018237  0.75032021  1
  Zn  Zn100  1  0.13308052  0.50445808  0.61274907  1
  Zn  Zn101  1  0.75176059  0.25241734  -0.00111622  1
  Zn  Zn102  1  0.75063021  0.12689282  0.37510646  1
  Zn  Zn103  1  0.37567572  0.12418179  0.74938713  1
  Zn  Zn104  1  0.24709236  0.37564979  0.62368325  1
  Zn  Zn105  1  0.87569507  0.75086342  0.12305379  1
  Zn  Zn106  1  0.24046820  0.62344661  0.37955584  1
  Zn  Zn107  1  0.18775149  0.18126247  0.18908322  1
  Zn  Zn108  1  0.18680847  0.18573517  0.68949234  1
  Zn  Zn109  1  0.18834049  0.69155387  0.18173928  1
  Zn  Zn110  1  0.18738863  0.68841976  0.69290233  1
  Zn  Zn111  1  0.68646516  0.18166816  0.18671224  1
  Zn  Zn112  1  0.68955585  0.19382070  0.68365522  1
  Zn  Zn113  1  0.68587649  0.68670152  0.18418994  1
  Zn  Zn114  1  0.68524622  0.69198559  0.68074399  1
  Zn  Zn115  1  0.31926278  0.31952879  0.30326303  1
  Zn  Zn116  1  0.30994757  0.31234514  0.81213124  1
  Zn  Zn117  1  0.30755004  0.80337044  0.32010338  1
  Zn  Zn118  1  0.30994922  0.81153771  0.81871441  1
  Zn  Zn119  1  0.81315851  0.31482358  0.30974538  1
  Zn  Zn120  1  0.81436141  0.32006800  0.81231524  1
  Zn  Zn121  1  0.81434211  0.81437529  0.31217511  1
  Zn  Zn122  1  0.81576884  0.81316901  0.81925529  1
  Zn  Zn123  1  0.18505276  0.44371305  0.43183081  1
  Zn  Zn124  1  0.18981362  0.43509398  0.93444922  1
  Zn  Zn125  1  0.18481502  0.93353582  0.44036214  1
  Zn  Zn126  1  0.18277075  0.93586218  0.93603832  1
  Zn  Zn127  1  0.68800063  0.43949557  0.43707430  1
  Zn  Zn128  1  0.70007945  0.43580731  0.93671355  1
  Zn  Zn129  1  0.68955213  0.93719153  0.43856807  1
  Zn  Zn130  1  0.69414430  0.93725754  0.93025739  1
  Zn  Zn131  1  0.33147131  0.01399280  0.08482012  1
  Zn  Zn132  1  0.31459955  0.05860263  0.57114194  1
  Zn  Zn133  1  0.31190321  0.56066225  0.05869279  1
  Zn  Zn134  1  0.31463297  0.56085692  0.56566629  1
  Zn  Zn135  1  0.81408674  0.06146927  0.06203730  1
  Zn  Zn136  1  0.80705426  0.06564234  0.57044534  1
  Zn  Zn137  1  0.81193744  0.55987220  0.06359576  1
  Zn  Zn138  1  0.81482066  0.56949651  0.56064049  1
  Zn  Zn139  1  0.44007236  0.43820755  0.18404254  1
  Zn  Zn140  1  0.43875546  0.43713413  0.68482361  1
  Zn  Zn141  1  0.40324590  0.89415742  0.20866477  1
  Zn  Zn142  1  0.44472450  0.93940377  0.68877949  1
  Zn  Zn143  1  0.93701096  0.43667888  0.18926449  1
  Zn  Zn144  1  0.93812598  0.44120797  0.69137011  1
  Zn  Zn145  1  0.93928534  0.93674724  0.18361571  1
  Zn  Zn146  1  0.93666622  0.93999200  0.69234186  1
  Zn  Zn147  1  0.06321757  0.06250755  0.31410027  1
  Zn  Zn148  1  0.05888441  0.06669668  0.81623971  1
  Zn  Zn149  1  0.06268655  0.56160358  0.30838387  1
  Zn  Zn150  1  0.05345679  0.56567070  0.81442622  1
  Zn  Zn151  1  0.56393837  0.05610826  0.31784024  1
  Zn  Zn152  1  0.56438119  0.06199699  0.81114907  1
  Zn  Zn153  1  0.56230326  0.56376351  0.30786220  1
  Zn  Zn154  1  0.56169367  0.56240933  0.81466153  1
  Zn  Zn155  1  0.45938568  0.19166702  0.44043623  1
  Zn  Zn156  1  0.43931528  0.18223373  0.93503702  1
  Zn  Zn157  1  0.43439886  0.69640050  0.44158084  1
  Zn  Zn158  1  0.43588216  0.68789973  0.94324369  1
  Zn  Zn159  1  0.93813042  0.18850715  0.43804707  1
  Zn  Zn160  1  0.93673749  0.19191807  0.93775415  1
  Zn  Zn161  1  0.93407169  0.68769531  0.43670469  1
  Zn  Zn162  1  0.93712134  0.68358748  0.93445622  1
  Zn  Zn163  1  0.05930387  0.31003110  0.06106839  1
  Zn  Zn164  1  0.06544186  0.31693820  0.56274456  1
  Zn  Zn165  1  0.06820958  0.81348047  0.06803963  1
  Zn  Zn166  1  0.05984579  0.81140490  0.56883748  1
  Zn  Zn167  1  0.56441843  0.30792942  0.06150036  1
  Zn  Zn168  1  0.56507790  0.31242915  0.56312337  1
  Zn  Zn169  1  0.56136691  0.81198926  0.06336084  1
  Zn  Zn170  1  0.55972040  0.81095770  0.56050513  1
  O  O171  1  0.11177027  0.11665978  0.12860234  1
  O  O172  1  0.11964847  0.11742791  0.61933767  1
  O  O173  1  0.11817701  0.61587363  0.12259418  1
  O  O174  1  0.10752141  0.62343860  0.63657633  1
  O  O175  1  0.61496312  0.11730287  0.11931936  1
  O  O176  1  0.62639448  0.13054899  0.61290024  1
  O  O177  1  0.61826020  0.61602173  0.11679918  1
  O  O178  1  0.61397136  0.62481855  0.61877844  1
  O  O179  1  0.38721754  0.38103160  0.37810461  1
  O  O180  1  0.38105324  0.37054007  0.88641667  1
  O  O181  1  0.38056970  0.87748433  0.38862844  1
  O  O182  1  0.38560550  0.88299943  0.86937484  1
  O  O183  1  0.88471458  0.38616833  0.36403510  1
  O  O184  1  0.87883390  0.38671113  0.88061841  1
  O  O185  1  0.88396585  0.87946940  0.38370579  1
  O  O186  1  0.87805962  0.88175124  0.88888470  1
  O  O187  1  0.23991679  0.00238874  0.36612176  1
  O  O188  1  0.25460308  0.00559623  0.87166092  1
  O  O189  1  0.25982568  0.50141921  0.36247022  1
  O  O190  1  0.25323698  0.50827062  0.87061118  1
  O  O191  1  0.75836266  0.00032894  0.36774234  1
  O  O192  1  0.77100319  -0.00643274  0.86663862  1
  O  O193  1  0.75618114  0.49546370  0.36146706  1
  O  O194  1  0.77224309  0.50834095  0.88506959  1
  O  O195  1  0.24538501  0.49145033  0.12768683  1
  O  O196  1  0.24910679  0.49590879  0.63108299  1
  O  O197  1  0.23070786  1.00993337  0.13887074  1
  O  O198  1  0.23874921  1.00339427  0.63698938  1
  O  O199  1  0.73796727  0.50196205  0.13461067  1
  O  O200  1  0.75290277  0.48832112  0.61575589  1
  O  O201  1  0.74493278  0.99400609  0.13080638  1
  O  O202  1  0.74609547  1.00139012  0.63681889  1
  O  O203  1  0.00738446  0.36356302  0.25140333  1
  O  O204  1  0.00561804  0.36402422  0.74781661  1
  O  O205  1  0.00182057  0.86834454  0.25805817  1
  O  O206  1  0.00549192  0.86449966  0.74617384  1
  O  O207  1  0.50926259  0.37114383  0.25403404  1
  O  O208  1  0.50675372  0.36642130  0.75402765  1
  O  O209  1  0.51124478  0.88089968  0.26453924  1
  O  O210  1  0.50859152  0.86792408  0.76120929  1
  O  O211  1  0.49760897  0.12400006  0.24507187  1
  O  O212  1  0.50132222  0.13893996  0.75011213  1
  O  O213  1  0.50167957  0.62613163  0.23474236  1
  O  O214  1  0.49603560  0.63035925  0.74480774  1
  O  O215  1  0.99593634  0.13474975  0.24834919  1
  O  O216  1  0.99475926  0.13817303  0.74480365  1
  O  O217  1  0.99322100  0.63326943  0.24054726  1
  O  O218  1  0.98719378  0.63304978  0.74004697  1
  O  O219  1  0.37035093  0.25145028  0.00469040  1
  O  O220  1  0.37012597  0.25256404  0.50129812  1
  O  O221  1  0.37517991  0.75550707  0.00967923  1
  O  O222  1  0.36194950  0.76160451  0.50588826  1
  O  O223  1  0.87231627  0.25390952  0.00915007  1
  O  O224  1  0.86932558  0.24770896  0.51093476  1
  O  O225  1  0.86926061  0.75971049  -0.00148410  1
  O  O226  1  0.86616858  0.75581080  0.50630886  1
  O  O227  1  0.12452414  0.24020047  0.49947645  1
  O  O228  1  0.13504636  0.25451391  0.99258954  1
  O  O229  1  0.14016369  0.76052948  0.50394563  1
  O  O230  1  0.11610967  0.75027507  0.98557356  1
  O  O231  1  0.63462629  0.24505925  0.49691689  1
  O  O232  1  0.62756485  0.24244860  0.99018565  1
  O  O233  1  0.63895456  0.74701580  0.50370490  1
  O  O234  1  0.63138114  0.74299974  0.99418735  1
  O  O235  1  0.49612459  0.23728542  0.12828190  1
  O  O236  1  0.49096498  0.25143651  0.63230502  1
  O  O237  1  0.50501794  0.73378441  0.12393374  1
  O  O238  1  0.49692593  0.74213585  0.63228654  1
  O  O239  1  0.99541297  0.23782570  0.13192937  1
  O  O240  1  0.99378725  0.24855838  0.63068874  1
  O  O241  1  0.99875984  0.74529160  0.13631671  1
  O  O242  1  0.98955362  0.74234579  0.63348905  1
  O  O243  1  -0.00002362  0.25663251  0.36526604  1
  O  O244  1  0.01074754  0.24362517  0.86698786  1
  O  O245  1  -0.00158822  0.75668462  0.36650534  1
  O  O246  1  0.00635603  0.74190623  0.86113254  1
  O  O247  1  0.50589988  0.26131067  0.36435601  1
  O  O248  1  0.50796969  0.25523003  0.86786898  1
  O  O249  1  0.49788255  0.76711012  0.37463119  1
  O  O250  1  0.50637801  0.75497650  0.87274124  1
  O  O251  1  0.24402567  0.12573277  0.50327553  1
  O  O252  1  0.25367837  0.13366723  0.99284665  1
  O  O253  1  0.25528422  0.63793097  0.50184553  1
  O  O254  1  0.24660921  0.62132944  0.98683611  1
  O  O255  1  0.74753772  0.13898247  0.49938309  1
  O  O256  1  0.73617819  0.12777925  1.00766295  1
  O  O257  1  0.74162736  0.63910329  0.50288173  1
  O  O258  1  0.73893532  0.63330680  1.00811673  1
  O  O259  1  0.25910065  0.36477149  0.00383318  1
  O  O260  1  0.26397794  0.37875410  0.49566394  1
  O  O261  1  0.25434505  0.86422865  -0.01462792  1
  O  O262  1  0.26041479  0.87066501  0.50105451  1
  O  O263  1  0.77034539  0.36773295  -0.00348388  1
  O  O264  1  0.74516966  0.36482200  0.50633871  1
  O  O265  1  0.75454937  0.86780789  0.00524234  1
  O  O266  1  0.75946675  0.86409966  0.49669092  1
  O  O267  1  0.13412689  0.49039528  0.23889626  1
  O  O268  1  0.11788371  0.48740141  0.75582444  1
  O  O269  1  0.13011327  0.99666187  0.24727210  1
  O  O270  1  0.12791661  0.99506203  0.74744799  1
  O  O271  1  0.63019519  0.49403661  0.24268401  1
  O  O272  1  0.62068476  0.48821278  0.74858110  1
  O  O273  1  0.63350627  0.99146530  0.24592780  1
  O  O274  1  0.62795996  0.98237758  0.75698964  1
  O  O275  1  0.35310603  -0.00346642  0.24848942  1
  O  O276  1  0.36793462  -0.00038452  0.75872226  1
  O  O277  1  0.36621432  0.49081978  0.25637252  1
  O  O278  1  0.38032558  0.51203017  0.75339367  1
  O  O279  1  0.86904229  0.00151328  0.25419167  1
  O  O280  1  0.87715702  0.01372568  0.75770224  1
  O  O281  1  0.86549086  0.50644899  0.25261467  1
  O  O282  1  0.87421039  0.51091564  0.76063118  1
  O  O283  1  0.11792188  0.37371780  0.36041855  1
  O  O284  1  0.12959413  0.36155039  0.86827489  1
  O  O285  1  0.11043542  0.87323210  0.37066430  1
  O  O286  1  0.12282059  0.86861776  0.86368407  1
  O  O287  1  0.61512265  0.37709573  0.36615696  1
  O  O288  1  0.62352599  0.36894111  0.86868325  1
  O  O289  1  0.62678189  0.87362672  0.36349265  1
  O  O290  1  0.62035564  0.86246642  0.86871262  1
  O  O291  1  0.38812352  0.11837686  0.12374675  1
  O  O292  1  0.37989790  0.13402084  0.62899491  1
  O  O293  1  0.39301921  0.61607130  0.11721663  1
  O  O294  1  0.38706187  0.62599354  0.63338846  1
  O  O295  1  0.88574545  0.12878358  0.12988716  1
  O  O296  1  0.88070195  0.13851258  0.63429995  1
  O  O297  1  0.88043890  0.62516547  0.13484518  1
  O  O298  1  0.87961584  0.63273372  0.63490628  1
  O  O299  1  0.25491801  0.25030973  0.11886151  1
  O  O300  1  0.26409790  0.25260493  0.63171890  1
  O  O301  1  0.24480254  0.76520408  0.11777617  1
  O  O302  1  0.25119115  0.74716892  0.61668948  1
  O  O303  1  0.76424090  0.24400339  0.12810709  1
  O  O304  1  0.75951607  0.26169995  0.61753433  1
  O  O305  1  0.75114145  0.75610455  0.11396552  1
  O  O306  1  0.76213628  0.75030611  0.61573440  1
  O  O307  1  0.24996793  0.25482457  0.37338662  1
  O  O308  1  0.24487722  0.24174564  0.88112318  1
  O  O309  1  0.24479277  0.74605816  0.39186570  1
  O  O310  1  0.23553249  0.73850129  0.86499637  1
  O  O311  1  0.75146204  0.25058789  0.38266452  1
  O  O312  1  0.73878258  0.25250552  0.87210885  1
  O  O313  1  0.75675185  0.74935689  0.38805229  1
  O  O314  1  0.74235983  0.75346009  0.88835652  1
  O  O315  1  -0.00121878  0.12691061  0.01305216  1
  O  O316  1  0.00530577  0.12012778  0.50833714  1
  O  O317  1  -0.00128598  0.63249163  0.01670461  1
  O  O318  1  -0.00744330  0.63083243  0.51852781  1
  O  O319  1  0.51056922  0.11876165  0.00612954  1
  O  O320  1  0.51467585  0.12126601  0.50457390  1
  O  O321  1  0.51198466  0.61851893  0.00567147  1
  O  O322  1  0.50454416  0.62463579  0.50672895  1
  O  O323  1  0.49588375  0.37847323  0.48961020  1
  O  O324  1  0.49463591  0.37644624  0.99626225  1
  O  O325  1  0.48901547  0.87310435  0.49338889  1
  O  O326  1  0.50946010  0.88054737  0.98594301  1
  O  O327  1  0.99986079  0.37223564  0.48406020  1
  O  O328  1  0.98116255  0.36432730  0.99860647  1
  O  O329  1  0.99203879  0.87774521  0.49461776  1
  O  O330  1  0.98647714  0.87199736  1.00730089  1
  O  O331  1  0.49477834  0.49501678  0.37627135  1
  O  O332  1  0.49942544  0.49083180  0.88368516  1
  O  O333  1  0.50678863  0.98056395  0.38365340  1
  O  O334  1  0.49328555  0.99257054  0.87586612  1
  O  O335  1  0.99054218  0.49080281  0.36842774  1
  O  O336  1  0.97266452  0.52410462  0.88353177  1
  O  O337  1  0.99459987  0.99299778  0.38289582  1
  O  O338  1  0.98276028  1.00079026  0.87069495  1
  O  O339  1  0.00810908  0.01505951  0.13165835  1
  O  O340  1  0.00484478  0.00788557  0.62198923  1
  O  O341  1  0.00948768  0.50827258  0.13390232  1
  O  O342  1  -0.00549899  0.51570232  0.62371303  1
  O  O343  1  0.50758376  0.00333743  0.11543422  1
  O  O344  1  0.51215778  0.00305684  0.62334945  1
  O  O345  1  0.51168259  0.50567031  0.11926897  1
  O  O346  1  0.50256510  0.50763031  0.61597896  1
  O  O347  1  0.24263078  0.37968579  0.24041892  1
  O  O348  1  0.23949812  0.37716547  0.74977242  1
  O  O349  1  0.23397998  0.88430595  0.26068833  1
  O  O350  1  0.24058971  0.88662206  0.75658677  1
  O  O351  1  0.73642176  0.38131019  0.25075615  1
  O  O352  1  0.74173632  0.37176469  0.73913877  1
  O  O353  1  0.74107584  0.87687658  0.24489934  1
  O  O354  1  0.73636269  0.86660485  0.75390676  1
  O  O355  1  0.25332930  0.11523902  0.25648518  1
  O  O356  1  0.24994892  0.11263133  0.75781558  1
  O  O357  1  0.24934708  0.61387536  0.24358565  1
  O  O358  1  0.25931735  0.62246980  0.75768837  1
  O  O359  1  0.75731293  0.11577091  0.25086341  1
  O  O360  1  0.76334846  0.13342716  0.74947930  1
  O  O361  1  0.75660974  0.61741217  0.24555436  1
  O  O362  1  0.76058276  0.62787121  0.74086103  1
  O  O363  1  0.36935157  0.13843641  0.38608891  1
  O  O364  1  0.36356106  0.11943015  0.87001654  1
  O  O365  1  0.37553024  0.61548220  0.37714029  1
  O  O366  1  0.36882713  0.62504963  0.86991622  1
  O  O367  1  0.87580344  0.11773326  0.36811336  1
  O  O368  1  0.87696261  0.11767428  0.87093533  1
  O  O369  1  0.88184004  0.61715460  0.35914935  1
  O  O370  1  0.86719641  0.63305315  0.85826940  1
  O  O371  1  0.12701254  0.37742029  0.13203383  1
  O  O372  1  0.12701909  0.37737074  0.63672623  1
  O  O373  1  0.11341091  0.89278951  0.13753267  1
  O  O374  1  0.11755912  0.88859708  0.63636013  1
  O  O375  1  0.61876413  0.38280910  0.13158751  1
  O  O376  1  0.63425390  0.37736183  0.63266453  1
  O  O377  1  0.62880309  0.87984575  0.13303516  1
  O  O378  1  0.62036939  0.86866230  0.64277510  1
  O  O379  1  0.11882059  0.25508660  0.25098929  1
  O  O380  1  0.11883871  0.25732538  0.75639211  1
  O  O381  1  0.11654588  0.76025268  0.24891797  1
  O  O382  1  0.11538014  0.75871581  0.75414181  1
  O  O383  1  0.62079349  0.25652858  0.24777335  1
  O  O384  1  0.61923268  0.25832904  0.75467610  1
  O  O385  1  0.62082218  0.76298941  0.24480630  1
  O  O386  1  0.62077848  0.75452479  0.75761433  1
  O  O387  1  0.38269296  0.24352922  0.24083445  1
  O  O388  1  0.38380727  0.25183039  0.74305619  1
  O  O389  1  0.38150493  0.78600484  0.24072468  1
  O  O390  1  0.37997126  0.73945796  0.75129743  1
  O  O391  1  0.88282274  0.24581941  0.24279792  1
  O  O392  1  0.88285464  0.24810355  0.74734342  1
  O  O393  1  0.88132494  0.74408423  0.24750534  1
  O  O394  1  0.87728795  0.74585638  0.74492855  1
  O  O395  1  0.38226104  0.49339558  0.48968886  1
  O  O396  1  0.38195818  0.48681970  0.99885090  1
  O  O397  1  0.37551808  0.98696303  0.50545229  1
  O  O398  1  0.38568059  1.00871425  0.98313790  1
  O  O399  1  0.87763097  0.50930373  0.48259643  1
  O  O400  1  0.87570982  0.48805633  0.99983962  1
  O  O401  1  0.87803873  0.99342816  0.49917377  1
  O  O402  1  0.87314884  0.99099913  0.99150169  1
  O  O403  1  0.12834394  -0.00376878  0.01681278  1
  O  O404  1  0.11918273  0.00390285  0.50990822  1
  O  O405  1  0.12819566  0.49598658  0.01235770  1
  O  O406  1  0.11660121  0.49393058  0.50143510  1
  O  O407  1  0.62284782  0.00499134  0.00001156  1
  O  O408  1  0.63068187  0.01007846  0.50232197  1
  O  O409  1  0.62590697  0.50421024  0.00435419  1
  O  O410  1  0.61984884  0.51012853  0.50049967  1
  O  O411  1  0.37345833  0.36523764  0.11459237  1
  O  O412  1  0.37691410  0.36752758  0.61178447  1
  O  O413  1  0.36030702  0.89864578  0.10298323  1
  O  O414  1  0.37945444  0.87392322  0.61552089  1
  O  O415  1  0.87915884  0.36628080  0.11780679  1
  O  O416  1  0.87029482  0.36682367  0.63190149  1
  O  O417  1  0.86782930  0.87589659  0.11357430  1
  O  O418  1  0.88253143  0.86794480  0.61553771  1
  O  O419  1  0.11891142  0.12663346  0.39197781  1
  O  O420  1  0.13718765  0.13432902  0.87074555  1
  O  O421  1  0.12644128  0.62747240  0.36886129  1
  O  O422  1  0.13028256  0.63138626  0.87545160  1
  O  O423  1  0.62860141  0.12771205  0.38627305  1
  O  O424  1  0.62065954  0.13344088  0.88307245  1
  O  O425  1  0.61818596  0.62506969  0.38596059  1
  O  O426  1  0.62069755  0.63642822  0.88244584  1
