# generated using pymatgen
data_V85Zn86O256
_symmetry_space_group_name_H-M   'P 1'
_cell_length_a   16.91761698
_cell_length_b   16.92435135
_cell_length_c   16.91259070
_cell_angle_alpha   89.99309302
_cell_angle_beta   89.96669633
_cell_angle_gamma   89.94147020
_symmetry_Int_Tables_number   1
_chemical_formula_structural   V85Zn86O256
_chemical_formula_sum   'V85 Zn86 O256'
_cell_volume   4842.40441283
_cell_formula_units_Z   1
loop_
 _symmetry_equiv_pos_site_id
 _symmetry_equiv_pos_as_xyz
  1  'x, y, z'
loop_
 _atom_site_type_symbol
 _atom_site_label
 _atom_site_symmetry_multiplicity
 _atom_site_fract_x
 _atom_site_fract_y
 _atom_site_fract_z
 _atom_site_occupancy
  V  V0  1  0.01564953  0.37603429  0.87319187  1
  V  V1  1  0.87482877  0.37949638  0.49142307  1
  V  V2  1  0.87808198  0.62086308  0.24111312  1
  V  V3  1  0.87372965  0.37691485  -0.00364690  1
  V  V4  1  -0.00139320  0.50191131  0.49671421  1
  V  V5  1  0.76173545  0.61975375  0.37759217  1
  V  V6  1  0.11399112  0.62432939  0.00592046  1
  V  V7  1  0.12537002  0.00089949  0.12339744  1
  V  V8  1  0.24775897  0.37255303  0.62855291  1
  V  V9  1  -0.00167896  0.74719243  0.24009688  1
  V  V10  1  0.75566796  0.75321728  0.50235588  1
  V  V11  1  0.61833313  0.38058857  0.74867531  1
  V  V12  1  0.50354005  0.62178427  0.62720171  1
  V  V13  1  0.87252415  0.13101442  0.75934087  1
  V  V14  1  0.76196315  0.00079148  0.25120917  1
  V  V15  1  0.01313276  0.25553117  0.75379752  1
  V  V16  1  0.38043255  0.87592079  0.49819415  1
  V  V17  1  0.74898733  0.49843582  0.25210738  1
  V  V18  1  0.12355920  0.12935991  -0.00695297  1
  V  V19  1  0.50259599  0.00082796  0.49884820  1
  V  V20  1  0.01224277  0.37767989  0.37349769  1
  V  V21  1  0.25288873  0.74911267  0.49753003  1
  V  V22  1  0.87162878  0.24650458  0.13178617  1
  V  V23  1  0.50387678  0.49710694  0.50493053  1
  V  V24  1  0.24754192  0.37326695  0.13124704  1
  V  V25  1  0.49969234  0.37466216  0.37354133  1
  V  V26  1  0.50445960  0.87674586  0.36201480  1
  V  V27  1  0.11469579  0.49762821  0.13170266  1
  V  V28  1  0.86514789  0.87484758  0.00517725  1
  V  V29  1  0.62064059  0.12676966  0.50182366  1
  V  V30  1  0.75165598  0.24549510  -0.00668253  1
  V  V31  1  0.24930658  0.74397518  0.00240291  1
  V  V32  1  0.24743905  0.25209879  -0.00582068  1
  V  V33  1  0.00051727  0.63427862  0.63026910  1
  V  V34  1  0.74961145  0.87778446  0.62765668  1
  V  V35  1  0.01087875  0.12320904  0.61917212  1
  V  V36  1  0.37695913  0.74906770  0.62560704  1
  V  V37  1  0.37176003  0.87344983  -0.00721500  1
  V  V38  1  0.62018871  0.00529320  0.62632061  1
  V  V39  1  0.62888093  0.24586132  0.37096774  1
  V  V40  1  0.12729521  0.62350853  0.50064878  1
  V  V41  1  0.37916775  0.37364392  -0.00722769  1
  V  V42  1  0.87656148  0.63444716  0.75498889  1
  V  V43  1  0.62069345  0.62096415  0.02221302  1
  V  V44  1  0.24431974  0.88325314  0.62233813  1
  V  V45  1  0.00485347  0.25497356  0.24886063  1
  V  V46  1  0.12247519  0.74826044  0.37328575  1
  V  V47  1  0.37274233  0.00299724  0.37654909  1
  V  V48  1  0.38124546  0.11831094  0.75144814  1
  V  V49  1  0.37792113  0.50749942  0.37033314  1
  V  V50  1  0.49473728  0.87183956  0.87267495  1
  V  V51  1  0.49987381  0.24796080  0.74867947  1
  V  V52  1  0.50014299  0.24996237  0.24884857  1
  V  V53  1  0.37822040  0.24203608  0.62303147  1
  V  V54  1  0.62993175  0.62102247  0.50456485  1
  V  V55  1  0.12402263  0.87361626  0.24789493  1
  V  V56  1  0.13228129  0.23615385  0.37338406  1
  V  V57  1  -0.00097614  -0.00304579  -0.00859488  1
  V  V58  1  0.25027477  0.50481265  0.24986398  1
  V  V59  1  0.50033551  0.73186617  0.24887506  1
  V  V60  1  0.24261863  0.00192233  0.74692095  1
  V  V61  1  0.87324095  0.01894709  0.38141967  1
  V  V62  1  0.74688423  0.00788017  0.75758434  1
  V  V63  1  0.12439616  0.49570042  0.63499925  1
  V  V64  1  0.25499556  0.11903007  0.87650131  1
  V  V65  1  0.62267393  0.25345315  0.87365149  1
  V  V66  1  0.25262849  0.61727166  0.87600780  1
  V  V67  1  0.24832127  0.23908309  0.49732004  1
  V  V68  1  0.49540091  -0.00147284  -0.00505911  1
  V  V69  1  0.62992642  -0.01608120  0.13164128  1
  V  V70  1  0.25132621  0.00166972  0.24913675  1
  V  V71  1  0.62838184  0.12213542  -0.00534070  1
  V  V72  1  0.75162221  0.24509501  0.49695858  1
  V  V73  1  0.50103268  0.12340521  0.12307867  1
  V  V74  1  -0.00307362  0.12472465  0.12812544  1
  V  V75  1  0.62387306  0.74241918  0.87470110  1
  V  V76  1  0.62968092  0.75534399  0.37283715  1
  V  V77  1  0.25306420  0.87335024  0.12372153  1
  V  V78  1  0.74298053  0.37837219  0.12453598  1
  V  V79  1  0.74634081  0.38077957  0.62458462  1
  V  V80  1  0.37848558  0.73424209  0.12993913  1
  V  V81  1  0.50506403  0.49638873  0.00620818  1
  V  V82  1  0.87862522  0.25301567  0.62732498  1
  V  V83  1  0.37097016  0.12492363  0.25109684  1
  V  V84  1  0.74860829  0.50261911  0.75148429  1
  Zn  Zn85  1  0.11226391  0.87123136  0.74820939  1
  Zn  Zn86  1  0.37340189  0.61805907  0.74838723  1
  Zn  Zn87  1  -0.00844324  0.85760707  0.86093046  1
  Zn  Zn88  1  -0.00701187  0.87777329  0.37572712  1
  Zn  Zn89  1  0.37332383  0.37349151  0.50022205  1
  Zn  Zn90  1  0.74875050  0.62537090  0.88001968  1
  Zn  Zn91  1  0.11966964  0.74933337  0.86811855  1
  Zn  Zn92  1  0.74328373  0.75221850  0.00843230  1
  Zn  Zn93  1  0.49828893  0.74833995  0.75079700  1
  Zn  Zn94  1  0.86905897  0.00191218  0.87650618  1
  Zn  Zn95  1  0.87598924  0.50138269  0.87571916  1
  Zn  Zn96  1  0.25591695  0.62695109  0.37109518  1
  Zn  Zn97  1  0.87616514  0.88225358  0.49775171  1
  Zn  Zn98  1  0.25080224  0.49162872  0.75458478  1
  Zn  Zn99  1  0.62159149  0.38005095  0.24443606  1
  Zn  Zn100  1  0.62377938  0.87496023  0.75250102  1
  Zn  Zn101  1  0.37471643  0.25030633  0.12365487  1
  Zn  Zn102  1  0.01335141  -0.00044197  0.49900615  1
  Zn  Zn103  1  -0.00474036  0.50161812  0.00496381  1
  Zn  Zn104  1  0.86616395  0.75596238  0.12907101  1
  Zn  Zn105  1  0.38338779  0.49386210  0.87071220  1
  Zn  Zn106  1  0.88353680  0.76166371  0.63351686  1
  Zn  Zn107  1  0.18533231  0.18965262  0.18575069  1
  Zn  Zn108  1  0.19143519  0.19314080  0.69252672  1
  Zn  Zn109  1  0.18736759  0.68258122  0.18596552  1
  Zn  Zn110  1  0.18920197  0.68531916  0.68763486  1
  Zn  Zn111  1  0.68783894  0.18236042  0.18565745  1
  Zn  Zn112  1  0.68824869  0.18957105  0.68418341  1
  Zn  Zn113  1  0.69103364  0.69354726  0.19164073  1
  Zn  Zn114  1  0.68729364  0.68989342  0.68940722  1
  Zn  Zn115  1  0.31350088  0.31499419  0.31204275  1
  Zn  Zn116  1  0.30900335  0.30898128  0.81240874  1
  Zn  Zn117  1  0.31566178  0.81178996  0.31058625  1
  Zn  Zn118  1  0.28405345  0.79780295  0.79865451  1
  Zn  Zn119  1  0.81515815  0.31158952  0.31240731  1
  Zn  Zn120  1  0.81130587  0.31404597  0.81306113  1
  Zn  Zn121  1  0.81261459  0.82215183  0.30992304  1
  Zn  Zn122  1  0.80902093  0.81627881  0.81970850  1
  Zn  Zn123  1  0.19017612  0.43495119  0.44199001  1
  Zn  Zn124  1  0.18820131  0.44066545  0.94516799  1
  Zn  Zn125  1  0.18943403  0.93436432  0.43262480  1
  Zn  Zn126  1  0.18406642  0.93625249  0.93097641  1
  Zn  Zn127  1  0.68669649  0.43632222  0.43436450  1
  Zn  Zn128  1  0.68465888  0.43824674  0.93578812  1
  Zn  Zn129  1  0.69448679  0.93980420  0.43173130  1
  Zn  Zn130  1  0.68162402  0.93588905  0.93628856  1
  Zn  Zn131  1  0.31444854  0.06125078  0.06141186  1
  Zn  Zn132  1  0.18844645  0.06354643  0.56042721  1
  Zn  Zn133  1  0.31268475  0.55617211  0.06175168  1
  Zn  Zn134  1  0.31444865  0.55916007  0.56046316  1
  Zn  Zn135  1  0.81065958  0.05985086  0.06540504  1
  Zn  Zn136  1  0.81238961  0.06771198  0.56802399  1
  Zn  Zn137  1  0.80737439  0.56282436  0.06470752  1
  Zn  Zn138  1  0.81718897  0.56313118  0.56787236  1
  Zn  Zn139  1  0.43422953  0.43881276  0.18398592  1
  Zn  Zn140  1  0.43413443  0.43426385  0.68620667  1
  Zn  Zn141  1  0.43862464  0.93409138  0.18268959  1
  Zn  Zn142  1  0.43396600  0.93907344  0.68628918  1
  Zn  Zn143  1  0.92934239  0.43484287  0.19040195  1
  Zn  Zn144  1  0.93710130  0.44170053  0.68846067  1
  Zn  Zn145  1  0.93741642  0.93900520  0.18883817  1
  Zn  Zn146  1  0.93487151  0.94426113  0.68860689  1
  Zn  Zn147  1  0.05835512  0.06260760  0.31144006  1
  Zn  Zn148  1  0.06297805  0.06584192  0.80916907  1
  Zn  Zn149  1  0.06339210  0.56276919  0.31120588  1
  Zn  Zn150  1  0.06115769  0.56649460  0.81771598  1
  Zn  Zn151  1  0.56640767  0.06528454  0.31051615  1
  Zn  Zn152  1  0.56115359  0.06392543  0.81486715  1
  Zn  Zn153  1  0.57134169  0.56251528  0.31759283  1
  Zn  Zn154  1  0.55935333  0.55718583  0.81628398  1
  Zn  Zn155  1  0.43693541  0.18544533  0.43809641  1
  Zn  Zn156  1  0.43782209  0.19076336  0.93368219  1
  Zn  Zn157  1  0.44219395  0.68695492  0.43794086  1
  Zn  Zn158  1  0.43828024  0.68215015  0.94099648  1
  Zn  Zn159  1  0.94019540  0.19153534  0.43741845  1
  Zn  Zn160  1  0.94026974  0.19221860  0.93828988  1
  Zn  Zn161  1  0.93943166  0.69055999  0.43707047  1
  Zn  Zn162  1  0.93505331  0.69055822  0.93834004  1
  Zn  Zn163  1  0.06350993  0.31467574  0.06104691  1
  Zn  Zn164  1  0.06577720  0.31101031  0.55929612  1
  Zn  Zn165  1  0.06004969  0.81451384  0.05714543  1
  Zn  Zn166  1  0.06317931  0.81793456  0.55806039  1
  Zn  Zn167  1  0.56120512  0.31212769  0.06070228  1
  Zn  Zn168  1  0.56244185  0.31205602  0.56476499  1
  Zn  Zn169  1  0.55818603  0.80639391  0.06233317  1
  Zn  Zn170  1  0.56604130  0.81338212  0.56088564  1
  O  O171  1  0.11946570  0.12011462  0.11502916  1
  O  O172  1  0.11522279  0.12932279  0.62947847  1
  O  O173  1  0.12864567  0.61141955  0.11776441  1
  O  O174  1  0.11970057  0.61925753  0.62082002  1
  O  O175  1  0.61342137  0.12024798  0.11370941  1
  O  O176  1  0.62725868  0.11824863  0.61507327  1
  O  O177  1  0.62377242  0.62430065  0.12006137  1
  O  O178  1  0.62001459  0.63013745  0.61258545  1
  O  O179  1  0.38797658  0.38002137  0.37709082  1
  O  O180  1  0.36825545  0.37159967  0.88908036  1
  O  O181  1  0.38546920  0.88058058  0.37827122  1
  O  O182  1  0.37812956  0.86442570  0.88842571  1
  O  O183  1  0.88708774  0.36633311  0.38773512  1
  O  O184  1  0.87485823  0.37551951  0.88791356  1
  O  O185  1  0.87431546  0.89126100  0.37807136  1
  O  O186  1  0.87659587  0.88159220  0.88770499  1
  O  O187  1  0.26649627  -0.00784184  0.36467447  1
  O  O188  1  0.25080842  0.01185405  0.86899994  1
  O  O189  1  0.25958782  0.49650672  0.36842546  1
  O  O190  1  0.25324928  0.50458069  0.87641835  1
  O  O191  1  0.76347132  0.00605168  0.36735360  1
  O  O192  1  0.74413540  0.00015033  0.86137218  1
  O  O193  1  0.75028576  0.50925748  0.37144578  1
  O  O194  1  0.75124541  0.49987426  0.86260099  1
  O  O195  1  0.24460833  0.49160363  0.13255056  1
  O  O196  1  0.24232836  0.49103422  0.62350548  1
  O  O197  1  0.24594510  0.99418301  0.12937256  1
  O  O198  1  0.25216382  0.99481585  0.63132553  1
  O  O199  1  0.75419779  0.48796474  0.13543913  1
  O  O200  1  0.75529504  0.48797028  0.63278675  1
  O  O201  1  0.73757016  0.99973419  0.13312482  1
  O  O202  1  0.74011978  0.99720701  0.63210666  1
  O  O203  1  -0.00712595  0.36368047  0.25935733  1
  O  O204  1  -0.00559369  0.37091495  0.76440405  1
  O  O205  1  0.00817614  0.86842319  0.25178573  1
  O  O206  1  -0.00123805  0.87697889  0.74655675  1
  O  O207  1  0.50091171  0.36971923  0.25576819  1
  O  O208  1  0.51305470  0.36922064  0.74452967  1
  O  O209  1  0.49733491  0.86812273  0.26006494  1
  O  O210  1  0.49604333  0.87632908  0.76364639  1
  O  O211  1  0.49297996  0.12815063  0.24096268  1
  O  O212  1  0.49250623  0.13323472  0.75375260  1
  O  O213  1  0.50020494  0.63351004  0.25922756  1
  O  O214  1  0.50093891  0.62279306  0.73581499  1
  O  O215  1  1.00670525  0.13714106  0.23539472  1
  O  O216  1  0.99359841  0.13536395  0.74222933  1
  O  O217  1  0.98874758  0.63317553  0.25843257  1
  O  O218  1  0.99052066  0.61817712  0.74121127  1
  O  O219  1  0.36845163  0.25460918  0.00258372  1
  O  O220  1  0.37063143  0.25025592  0.50636545  1
  O  O221  1  0.37097291  0.75328497  0.01074690  1
  O  O222  1  0.37420691  0.75468710  0.50536898  1
  O  O223  1  0.86723235  0.25447858  0.00735479  1
  O  O224  1  0.86865450  0.25683705  0.50613356  1
  O  O225  1  0.87285914  0.76445961  0.00370546  1
  O  O226  1  0.86316152  0.75050323  0.50332907  1
  O  O227  1  0.13217910  0.25140060  0.48401939  1
  O  O228  1  0.13387729  0.24042132  1.00523692  1
  O  O229  1  0.13140202  0.74554117  0.49101895  1
  O  O230  1  0.13458822  0.74005729  1.00735291  1
  O  O231  1  0.63080520  0.24494369  0.49492130  1
  O  O232  1  0.62996769  0.24421916  0.99233648  1
  O  O233  1  0.63663845  0.74350839  0.49444098  1
  O  O234  1  0.61880317  0.73412382  0.99611021  1
  O  O235  1  0.49938619  0.24041508  0.12996749  1
  O  O236  1  0.49347318  0.25362104  0.63715122  1
  O  O237  1  0.49486318  0.75015702  0.14135593  1
  O  O238  1  0.49470972  0.74229974  0.62382037  1
  O  O239  1  0.99485771  0.24776616  0.13103839  1
  O  O240  1  0.99550792  0.24824498  0.63196923  1
  O  O241  1  0.99849892  0.75309724  0.13756475  1
  O  O242  1  1.00206437  0.73789590  0.61936237  1
  O  O243  1  0.01155475  0.25443484  0.36857877  1
  O  O244  1  -0.00379709  0.26550833  0.86803067  1
  O  O245  1  0.00888111  0.75300292  0.36752788  1
  O  O246  1  0.00664270  0.74358766  0.87312577  1
  O  O247  1  0.50546453  0.25680839  0.36995506  1
  O  O248  1  0.50944915  0.24982619  0.86224942  1
  O  O249  1  0.50706059  0.75504957  0.36757286  1
  O  O250  1  0.50262918  0.75500744  0.87402976  1
  O  O251  1  0.25393367  0.13965684  0.50306345  1
  O  O252  1  0.24566516  0.12914874  0.99515950  1
  O  O253  1  0.24462184  0.63089329  0.49782820  1
  O  O254  1  0.24307437  0.62800903  0.99786041  1
  O  O255  1  0.74214713  0.13998773  0.50630218  1
  O  O256  1  0.73997376  0.13276751  1.00655750  1
  O  O257  1  0.74750131  0.62919510  0.49760762  1
  O  O258  1  0.73157255  0.62114466  0.99956399  1
  O  O259  1  0.25549856  0.36693208  0.00672691  1
  O  O260  1  0.25306054  0.36497053  0.51016199  1
  O  O261  1  0.25449313  0.86668883  0.00376356  1
  O  O262  1  0.26122442  0.86952623  0.50417438  1
  O  O263  1  0.75430784  0.36826631  0.00595383  1
  O  O264  1  0.75623411  0.37054573  0.50554277  1
  O  O265  1  0.76247129  0.88071624  -0.00224072  1
  O  O266  1  0.74939464  0.86843371  0.50730602  1
  O  O267  1  0.13364260  0.50072303  0.24333323  1
  O  O268  1  0.12468627  0.50323200  0.73750038  1
  O  O269  1  0.13043954  0.99583345  0.24467093  1
  O  O270  1  0.13912218  0.99944110  0.75185387  1
  O  O271  1  0.64126507  0.49661997  0.25679434  1
  O  O272  1  0.63241478  0.49081768  0.75287268  1
  O  O273  1  0.61488556  0.99700255  0.23217534  1
  O  O274  1  0.62796714  1.00153480  0.74220968  1
  O  O275  1  0.37397653  0.00582620  0.25318998  1
  O  O276  1  0.37038948  0.01521710  0.74504944  1
  O  O277  1  0.36708726  0.49394601  0.25972152  1
  O  O278  1  0.37163706  0.49976125  0.75324108  1
  O  O279  1  0.86861059  0.00519118  0.25561414  1
  O  O280  1  0.86413839  0.01404660  0.75159565  1
  O  O281  1  0.86487679  0.50821352  0.25149826  1
  O  O282  1  0.86562822  0.50959081  0.75046234  1
  O  O283  1  0.11468311  0.36945756  0.37853762  1
  O  O284  1  0.11405258  0.37654898  0.88119712  1
  O  O285  1  0.12718934  0.86122939  0.36473808  1
  O  O286  1  0.11597880  0.87139464  0.87227783  1
  O  O287  1  0.61463802  0.36449427  0.37381264  1
  O  O288  1  0.63140188  0.36157143  0.86488618  1
  O  O289  1  0.61975000  0.86315514  0.38163039  1
  O  O290  1  0.61256067  0.86251465  0.87800685  1
  O  O291  1  0.38736867  0.12380254  0.12943600  1
  O  O292  1  0.37216014  0.14088543  0.63812960  1
  O  O293  1  0.37115653  0.63526836  0.12226150  1
  O  O294  1  0.38557642  0.63180805  0.62061192  1
  O  O295  1  0.88515231  0.13410837  0.11748392  1
  O  O296  1  0.88161440  0.14040481  0.63247222  1
  O  O297  1  0.87261252  0.62698117  0.13808425  1
  O  O298  1  0.88501681  0.62969839  0.63343813  1
  O  O299  1  0.25085153  0.25613616  0.11546590  1
  O  O300  1  0.25519427  0.25438145  0.61763989  1
  O  O301  1  0.25731377  0.75220778  0.11944304  1
  O  O302  1  0.26110464  0.75477307  0.61458551  1
  O  O303  1  0.75628096  0.25255667  0.11825963  1
  O  O304  1  0.75872551  0.26127899  0.61855047  1
  O  O305  1  0.75173830  0.75229627  0.12201303  1
  O  O306  1  0.74927275  0.76093255  0.61855534  1
  O  O307  1  0.23912342  0.25626214  0.37924262  1
  O  O308  1  0.25085989  0.23900548  0.88708468  1
  O  O309  1  0.24548682  0.74870386  0.37916236  1
  O  O310  1  0.25410413  0.73935105  0.89451167  1
  O  O311  1  0.74146635  0.25812977  0.38462222  1
  O  O312  1  0.74428839  0.25137977  0.88719721  1
  O  O313  1  0.74495503  0.74622833  0.38071433  1
  O  O314  1  0.73727704  0.74971102  0.88503739  1
  O  O315  1  0.00725374  0.12338756  0.00718428  1
  O  O316  1  -0.00035097  0.13300337  0.51735655  1
  O  O317  1  0.01071034  0.62225450  0.00012248  1
  O  O318  1  0.00461526  0.61828025  0.50575890  1
  O  O319  1  0.50275892  0.11722501  0.00375462  1
  O  O320  1  0.51271139  0.11881502  0.49653165  1
  O  O321  1  0.51269709  0.61479229  0.00267058  1
  O  O322  1  0.50989118  0.61849290  0.50688887  1
  O  O323  1  0.50160999  0.38175071  0.49313850  1
  O  O324  1  0.49329139  0.38223335  1.00191141  1
  O  O325  1  0.49828522  0.87908000  0.48904029  1
  O  O326  1  0.49228836  0.87838527  0.99244331  1
  O  O327  1  0.99453517  0.38124514  0.49397008  1
  O  O328  1  0.99168357  0.37359006  0.98943621  1
  O  O329  1  0.99474545  0.88148770  0.49674808  1
  O  O330  1  0.99145418  0.88608120  0.99770792  1
  O  O331  1  0.49719104  0.49320407  0.38031778  1
  O  O332  1  0.49767812  0.50183415  0.89351152  1
  O  O333  1  0.49743354  0.99268925  0.37591119  1
  O  O334  1  0.50587129  0.99072558  0.88771567  1
  O  O335  1  1.00623224  0.49347012  0.38750261  1
  O  O336  1  0.99761493  0.48705644  0.87830316  1
  O  O337  1  0.98584673  1.00304694  0.37507330  1
  O  O338  1  0.99702684  1.01000329  0.88755020  1
  O  O339  1  0.00411765  0.00954142  0.11754881  1
  O  O340  1  -0.00713445  0.02149162  0.62200922  1
  O  O341  1  0.01099115  0.48846795  0.12785461  1
  O  O342  1  0.00713472  0.50545824  0.61581640  1
  O  O343  1  0.50668286  0.00391190  0.11402321  1
  O  O344  1  0.51361599  -0.00775800  0.61762908  1
  O  O345  1  0.49693536  0.49661215  0.10823266  1
  O  O346  1  0.49630780  0.50568347  0.61288687  1
  O  O347  1  0.25506656  0.38116880  0.23720027  1
  O  O348  1  0.25042583  0.37063001  0.73495174  1
  O  O349  1  0.24516326  0.87918858  0.24243513  1
  O  O350  1  0.26814311  0.89283285  0.73554734  1
  O  O351  1  0.75244470  0.38061180  0.24268050  1
  O  O352  1  0.74351562  0.38032300  0.74245502  1
  O  O353  1  0.74313062  0.89907976  0.25722646  1
  O  O354  1  0.74736513  0.88583160  0.74367146  1
  O  O355  1  0.26417324  0.12030112  0.24051977  1
  O  O356  1  0.25647396  0.12149605  0.75794007  1
  O  O357  1  0.25015644  0.61015092  0.25198283  1
  O  O358  1  0.25150844  0.61778971  0.76197879  1
  O  O359  1  0.73175487  0.10042300  0.24946087  1
  O  O360  1  0.75931795  0.12097795  0.74316854  1
  O  O361  1  0.75634242  0.61836410  0.25981630  1
  O  O362  1  0.75522784  0.61643845  0.74861933  1
  O  O363  1  0.38283961  0.11442861  0.36367948  1
  O  O364  1  0.36697950  0.12992598  0.86541247  1
  O  O365  1  0.37605739  0.61147030  0.38103346  1
  O  O366  1  0.36327601  0.62288853  0.87623706  1
  O  O367  1  0.87767918  0.11882017  0.37436729  1
  O  O368  1  0.87825542  0.12872953  0.86290790  1
  O  O369  1  0.86428581  0.63067568  0.37076160  1
  O  O370  1  0.86923741  0.62140912  0.86957147  1
  O  O371  1  0.13663610  0.38377063  0.11831822  1
  O  O372  1  0.13263205  0.38419497  0.61825043  1
  O  O373  1  0.13122150  0.88078935  0.12836628  1
  O  O374  1  0.14223118  0.86891736  0.62585391  1
  O  O375  1  0.63910332  0.36640856  0.12595509  1
  O  O376  1  0.63651833  0.36896004  0.63380679  1
  O  O377  1  0.61980676  0.88682352  0.11667368  1
  O  O378  1  0.63439636  0.88367147  0.62638354  1
  O  O379  1  0.11938089  0.25156321  0.26039548  1
  O  O380  1  0.11259595  0.25098096  0.75136293  1
  O  O381  1  0.11939318  0.75076397  0.25428730  1
  O  O382  1  0.16951605  0.76688075  0.76164072  1
  O  O383  1  0.61982459  0.25050999  0.25644656  1
  O  O384  1  0.62037665  0.25327570  0.75530565  1
  O  O385  1  0.61235599  0.74495895  0.26054769  1
  O  O386  1  0.62011190  0.75437782  0.75890905  1
  O  O387  1  0.38105006  0.24140184  0.24872456  1
  O  O388  1  0.38360765  0.24561488  0.74657296  1
  O  O389  1  0.38902511  0.75055521  0.24511702  1
  O  O390  1  0.37426861  0.74473234  0.73496831  1
  O  O391  1  0.88207671  0.25149569  0.23804750  1
  O  O392  1  0.88011077  0.24910282  0.74312241  1
  O  O393  1  0.88243069  0.74510957  0.25137999  1
  O  O394  1  0.86288510  0.73798767  0.74974651  1
  O  O395  1  0.38622518  0.49571651  0.49127980  1
  O  O396  1  0.38377712  0.49052957  0.99825661  1
  O  O397  1  0.38644040  0.99373636  0.48781540  1
  O  O398  1  0.38403307  0.98809670  1.00447339  1
  O  O399  1  0.88542278  0.49098434  0.50610217  1
  O  O400  1  0.87558434  0.49112198  1.00125244  1
  O  O401  1  0.87315305  1.00799148  0.48952554  1
  O  O402  1  0.88081684  0.99500445  0.99885064  1
  O  O403  1  0.11813559  0.00665880  0.00545716  1
  O  O404  1  0.12674538  0.00139460  0.49308712  1
  O  O405  1  0.12167484  0.50747413  0.01210012  1
  O  O406  1  0.11913841  0.50659989  0.50654454  1
  O  O407  1  0.61978480  0.00658333  0.00740759  1
  O  O408  1  0.62484530  0.00911798  0.50300528  1
  O  O409  1  0.61699056  0.50804480  -0.00015909  1
  O  O410  1  0.61678372  0.50871873  0.49385826  1
  O  O411  1  0.36492986  0.37230612  0.11383336  1
  O  O412  1  0.36751465  0.36259260  0.62219776  1
  O  O413  1  0.37038880  0.86581850  0.11566795  1
  O  O414  1  0.37420466  0.86710775  0.61546508  1
  O  O415  1  0.86732407  0.36538808  0.11466501  1
  O  O416  1  0.87221096  0.36710832  0.61756064  1
  O  O417  1  0.88017894  0.87832151  0.10977751  1
  O  O418  1  0.86119713  0.87905694  0.62096574  1
  O  O419  1  0.12654498  0.13744120  0.36913829  1
  O  O420  1  0.13241963  0.12199546  0.88713080  1
  O  O421  1  0.12837218  0.63563873  0.37936419  1
  O  O422  1  0.13674628  0.62332503  0.88696979  1
  O  O423  1  0.62123413  0.13872051  0.38215606  1
  O  O424  1  0.62074374  0.13454249  0.88744755  1
  O  O425  1  0.63485483  0.63544135  0.38722185  1
  O  O426  1  0.62373326  0.63532778  0.87488163  1
