# generated using pymatgen
data_V85Zn86O256
_symmetry_space_group_name_H-M   'P 1'
_cell_length_a   16.92928184
_cell_length_b   16.92771022
_cell_length_c   16.92968297
_cell_angle_alpha   90.03147407
_cell_angle_beta   90.08905146
_cell_angle_gamma   90.02873049
_symmetry_Int_Tables_number   1
_chemical_formula_structural   V85Zn86O256
_chemical_formula_sum   'V85 Zn86 O256'
_cell_volume   4851.59937920
_cell_formula_units_Z   1
loop_
 _symmetry_equiv_pos_site_id
 _symmetry_equiv_pos_as_xyz
  1  'x, y, z'
loop_
 _atom_site_type_symbol
 _atom_site_label
 _atom_site_symmetry_multiplicity
 _atom_site_fract_x
 _atom_site_fract_y
 _atom_site_fract_z
 _atom_site_occupancy
  V  V0  1  0.37256109  0.86183677  0.50113555  1
  V  V1  1  0.12443847  0.50230793  0.62158317  1
  V  V2  1  0.24999074  0.37711495  0.12633684  1
  V  V3  1  -0.00239645  0.24862877  0.74495874  1
  V  V4  1  0.24769844  0.62844678  0.39031797  1
  V  V5  1  0.87234962  0.13217888  0.24595491  1
  V  V6  1  0.24779371  0.11644204  0.37193062  1
  V  V7  1  0.12514882  0.37718903  0.24488998  1
  V  V8  1  0.12117893  0.24933367  0.87441405  1
  V  V9  1  0.25089204  -0.00262063  0.74310674  1
  V  V10  1  0.62603111  0.37593138  0.74609873  1
  V  V11  1  0.75596299  0.49602619  0.75170286  1
  V  V12  1  0.24800989  0.24996720  -0.00098519  1
  V  V13  1  0.62983133  0.37423327  0.24544529  1
  V  V14  1  0.37452320  0.62497331  0.25074738  1
  V  V15  1  0.87553776  0.75093136  0.62492408  1
  V  V16  1  0.24765666  0.50366439  0.24836542  1
  V  V17  1  0.75062393  0.63219616  0.35022358  1
  V  V18  1  0.50348236  0.87278059  0.88117950  1
  V  V19  1  0.61534114  0.75784891  0.37582176  1
  V  V20  1  0.86745637  0.50237985  0.36594083  1
  V  V21  1  0.24807400  0.24663513  0.49811627  1
  V  V22  1  0.49664628  -0.00590617  0.49395257  1
  V  V23  1  0.75433985  0.62069669  0.87921486  1
  V  V24  1  0.50192412  0.37778166  0.87284124  1
  V  V25  1  0.13682095  0.61489316  0.01100817  1
  V  V26  1  0.74871089  0.75135323  0.50242001  1
  V  V27  1  0.24755022  0.37343294  0.62597339  1
  V  V28  1  0.37774003  0.37189395  0.49948974  1
  V  V29  1  0.50423108  0.50320417  0.50174879  1
  V  V30  1  -0.00498325  0.12868833  0.12093236  1
  V  V31  1  0.76876068  0.37745766  0.12940720  1
  V  V32  1  0.37892230  0.49592653  0.37276339  1
  V  V33  1  0.86917469  0.37816800  0.50570966  1
  V  V34  1  0.63355287  0.50138903  0.62563589  1
  V  V35  1  0.50276600  0.63045857  0.12889241  1
  V  V36  1  0.37614235  0.37530245  0.00118255  1
  V  V37  1  0.74177828  0.25606705  0.50192849  1
  V  V38  1  0.62802999  0.63212551  0.00347234  1
  V  V39  1  0.87328099  0.24645734  0.62289675  1
  V  V40  1  0.12518010  0.87218408  0.74820917  1
  V  V41  1  0.10933710  0.12048001  0.50216456  1
  V  V42  1  0.76627397  0.87451735  0.12599613  1
  V  V43  1  0.38065909  0.00086009  0.88018194  1
  V  V44  1  0.77258766  0.75357005  0.00378286  1
  V  V45  1  0.87677343  0.36872369  -0.00975249  1
  V  V46  1  -0.00535992  0.50230334  0.00050801  1
  V  V47  1  0.36235564  0.74912805  0.12078513  1
  V  V48  1  0.25367795  0.63185879  0.87280949  1
  V  V49  1  0.00253287  0.74943889  0.75220704  1
  V  V50  1  0.50966932  0.36589639  0.37420744  1
  V  V51  1  0.12906285  0.75004212  0.88625737  1
  V  V52  1  0.87089201  0.00216321  0.38159870  1
  V  V53  1  0.24692498  0.88404953  0.13662805  1
  V  V54  1  0.11326086  0.74913772  0.37855273  1
  V  V55  1  0.37164885  -0.01474012  0.37163650  1
  V  V56  1  -0.00141715  0.37772987  0.37490300  1
  V  V57  1  0.62130304  0.12773002  0.49261666  1
  V  V58  1  0.24968852  0.12492566  0.87274542  1
  V  V59  1  0.49838163  0.12364948  0.62424756  1
  V  V60  1  0.87162323  0.11946514  0.74581819  1
  V  V61  1  0.87801215  0.62173702  0.75634645  1
  V  V62  1  0.37543735  0.25036440  0.62567705  1
  V  V63  1  0.00404698  0.62620236  0.62313456  1
  V  V64  1  0.74378370  0.13112816  0.37112142  1
  V  V65  1  0.36668699  0.87549247  -0.00065658  1
  V  V66  1  0.12367684  0.00180962  0.14294021  1
  V  V67  1  0.62808074  0.25036973  0.87954750  1
  V  V68  1  0.37716083  0.24899790  0.12737250  1
  V  V69  1  0.12267571  0.25023417  0.37096598  1
  V  V70  1  0.50288828  0.11748176  0.11714058  1
  V  V71  1  0.25188908  0.85735637  0.61848492  1
  V  V72  1  0.61649397  0.87688303  0.24754606  1
  V  V73  1  0.37406588  0.50426821  0.87474515  1
  V  V74  1  0.49883955  0.74456326  0.73992900  1
  V  V75  1  0.37116826  0.11880103  0.24970691  1
  V  V76  1  -0.00190357  0.88002944  0.88657661  1
  V  V77  1  0.37539611  0.12454095  0.74801275  1
  V  V78  1  0.62640743  -0.00130824  0.62668262  1
  V  V79  1  0.50323047  0.50319439  0.00202820  1
  V  V80  1  0.87569725  -0.00194495  0.88866439  1
  V  V81  1  0.12013949  0.11354540  -0.00479698  1
  V  V82  1  0.00291795  0.88504183  0.36806208  1
  V  V83  1  0.62658789  0.62732418  0.50458546  1
  V  V84  1  -0.00078278  0.50596971  0.49913435  1
  Zn  Zn85  1  0.62498024  0.11456819  -0.00555069  1
  Zn  Zn86  1  0.75087972  0.87645789  0.62774313  1
  Zn  Zn87  1  0.75016797  0.12378727  0.87877158  1
  Zn  Zn88  1  0.24911607  0.50175930  0.74880003  1
  Zn  Zn89  1  0.62117814  -0.00995732  0.11560931  1
  Zn  Zn90  1  0.37399424  0.63715219  0.72680753  1
  Zn  Zn91  1  0.63362422  0.50581655  0.13189364  1
  Zn  Zn92  1  0.62759357  0.75188757  0.87442013  1
  Zn  Zn93  1  0.12243333  0.37412778  0.74813353  1
  Zn  Zn94  1  0.75027599  -0.00533641  0.75306796  1
  Zn  Zn95  1  0.62600496  0.87413298  0.75227755  1
  Zn  Zn96  1  0.50385745  0.24538813  0.25466243  1
  Zn  Zn97  1  0.11748289  -0.00775004  0.61000925  1
  Zn  Zn98  1  -0.01212432  0.26041441  0.24163064  1
  Zn  Zn99  1  0.75444054  0.24579560  0.00534718  1
  Zn  Zn100  1  -0.00254377  0.64014578  0.12409885  1
  Zn  Zn101  1  0.74534830  0.00281891  0.24641312  1
  Zn  Zn102  1  0.49146185  0.75625757  0.25631931  1
  Zn  Zn103  1  0.50161844  0.25244075  0.74920748  1
  Zn  Zn104  1  0.87773607  0.87859674  0.49983403  1
  Zn  Zn105  1  0.89191286  0.64454488  0.24348150  1
  Zn  Zn106  1  -0.00118316  0.38193445  0.86984246  1
  Zn  Zn107  1  0.18676652  0.18624539  0.18662303  1
  Zn  Zn108  1  0.18490928  0.18558836  0.68554389  1
  Zn  Zn109  1  0.15090802  0.72356700  0.18099442  1
  Zn  Zn110  1  0.18607083  0.68443306  0.69010617  1
  Zn  Zn111  1  0.68652380  0.19651628  0.18474547  1
  Zn  Zn112  1  0.68942390  0.18689851  0.68733311  1
  Zn  Zn113  1  0.70147501  0.69636600  0.19399208  1
  Zn  Zn114  1  0.68598949  0.68834189  0.69071933  1
  Zn  Zn115  1  0.31258950  0.30955475  0.31165137  1
  Zn  Zn116  1  0.31349624  0.31428568  0.81144497  1
  Zn  Zn117  1  0.28768727  0.80106918  0.30499142  1
  Zn  Zn118  1  0.31600705  0.81160360  0.80885712  1
  Zn  Zn119  1  0.80786661  0.31407241  0.31568188  1
  Zn  Zn120  1  0.81086384  0.31131136  0.81370222  1
  Zn  Zn121  1  0.80694749  0.81528337  0.31336269  1
  Zn  Zn122  1  0.81235946  0.81358904  0.81399356  1
  Zn  Zn123  1  0.18767370  0.43862440  0.43815432  1
  Zn  Zn124  1  0.18803652  0.43774540  0.93459058  1
  Zn  Zn125  1  0.18478730  0.93453515  0.43579482  1
  Zn  Zn126  1  0.19081914  0.93744070  0.93482127  1
  Zn  Zn127  1  0.68899888  0.44090869  0.43063525  1
  Zn  Zn128  1  0.69038290  0.44028044  0.94108586  1
  Zn  Zn129  1  0.68819930  0.93805413  0.43753859  1
  Zn  Zn130  1  0.68914997  0.93720070  0.94374236  1
  Zn  Zn131  1  0.31079853  0.06170044  0.05999235  1
  Zn  Zn132  1  0.30814492  0.05784374  0.55918948  1
  Zn  Zn133  1  0.31101026  0.56258785  0.06255277  1
  Zn  Zn134  1  0.31597791  0.55908092  0.56354762  1
  Zn  Zn135  1  0.80888663  0.06181597  0.06156144  1
  Zn  Zn136  1  0.80933812  0.06626174  0.56158386  1
  Zn  Zn137  1  0.81827595  0.55975046  0.06993381  1
  Zn  Zn138  1  0.81236407  0.56652549  0.56274000  1
  Zn  Zn139  1  0.44380739  0.43809633  0.18888272  1
  Zn  Zn140  1  0.43195266  0.46368536  0.67685260  1
  Zn  Zn141  1  0.43394714  0.93724226  0.18767397  1
  Zn  Zn142  1  0.43835452  0.93168658  0.68807533  1
  Zn  Zn143  1  0.95804323  0.47687296  0.19800623  1
  Zn  Zn144  1  0.93623602  0.43491333  0.68549788  1
  Zn  Zn145  1  0.93920389  0.94613534  0.19522151  1
  Zn  Zn146  1  0.93753900  0.93459882  0.68842502  1
  Zn  Zn147  1  0.05506410  0.06660067  0.31302948  1
  Zn  Zn148  1  0.04348095  0.04366367  0.77343945  1
  Zn  Zn149  1  0.06754058  0.56667077  0.31574001  1
  Zn  Zn150  1  0.06634528  0.56036607  0.81360838  1
  Zn  Zn151  1  0.55754415  0.05818539  0.30820078  1
  Zn  Zn152  1  0.56193733  0.06209587  0.81251186  1
  Zn  Zn153  1  0.57111473  0.56457249  0.31229941  1
  Zn  Zn154  1  0.56530414  0.56679412  0.81418230  1
  Zn  Zn155  1  0.43435268  0.18319753  0.43635847  1
  Zn  Zn156  1  0.43947098  0.19125812  0.93610857  1
  Zn  Zn157  1  0.43736942  0.68311613  0.43978728  1
  Zn  Zn158  1  0.43796430  0.69248641  0.93878426  1
  Zn  Zn159  1  0.93258396  0.19243093  0.43177653  1
  Zn  Zn160  1  0.93959453  0.18512867  0.93398379  1
  Zn  Zn161  1  0.93642545  0.68836655  0.43491112  1
  Zn  Zn162  1  0.94564030  0.68350654  0.93765347  1
  Zn  Zn163  1  0.05917935  0.31260313  0.06165352  1
  Zn  Zn164  1  0.05865704  0.31162480  0.56004299  1
  Zn  Zn165  1  0.05935465  0.81572890  0.06633705  1
  Zn  Zn166  1  0.06190388  0.81269263  0.55292576  1
  Zn  Zn167  1  0.56329471  0.31247836  0.06521306  1
  Zn  Zn168  1  0.56399555  0.31571957  0.56682308  1
  Zn  Zn169  1  0.55988971  0.81321000  0.06270486  1
  Zn  Zn170  1  0.55823008  0.81524981  0.56241105  1
  O  O171  1  0.12254176  0.11548702  0.11716125  1
  O  O172  1  0.12720598  0.12955090  0.60351935  1
  O  O173  1  0.14462308  0.62265787  0.11017760  1
  O  O174  1  0.11710847  0.61526854  0.62768661  1
  O  O175  1  0.60812553  0.12911626  0.12697694  1
  O  O176  1  0.61927901  0.11716686  0.61554686  1
  O  O177  1  0.61807144  0.62767830  0.12146314  1
  O  O178  1  0.63039456  0.61741727  0.61381460  1
  O  O179  1  0.38136348  0.38100870  0.37872479  1
  O  O180  1  0.38005220  0.37860562  0.88484249  1
  O  O181  1  0.35914496  0.88268505  0.38068193  1
  O  O182  1  0.37742714  0.88149215  0.88157229  1
  O  O183  1  0.87634517  0.38044834  0.38693840  1
  O  O184  1  0.87590763  0.37678612  0.88708173  1
  O  O185  1  0.87502518  0.88504278  0.37454606  1
  O  O186  1  0.88842405  0.88407172  0.87214477  1
  O  O187  1  0.25454329  0.01034265  0.37895946  1
  O  O188  1  0.26314924  0.00589547  0.86850639  1
  O  O189  1  0.26050514  0.50070154  0.36998396  1
  O  O190  1  0.25673269  0.50973114  0.87379831  1
  O  O191  1  0.75233683  0.01397804  0.37362560  1
  O  O192  1  0.76601917  -0.00373525  0.87530940  1
  O  O193  1  0.75971491  0.51915306  0.38644472  1
  O  O194  1  0.74885382  0.51373018  0.86973532  1
  O  O195  1  0.25883081  0.49112392  0.13820065  1
  O  O196  1  0.23908175  0.48937701  0.62330077  1
  O  O197  1  0.23744335  0.99547872  0.11974249  1
  O  O198  1  0.24082222  0.99585029  0.63204784  1
  O  O199  1  0.74788192  0.48215865  0.11962868  1
  O  O200  1  0.74280590  0.50441213  0.63454108  1
  O  O201  1  0.74815607  0.98398566  0.12382455  1
  O  O202  1  0.73956736  0.99937222  0.62429592  1
  O  O203  1  0.00932909  0.38045460  0.25512716  1
  O  O204  1  -0.00097889  0.36387276  0.75116466  1
  O  O205  1  -0.01008203  0.87229075  0.26833474  1
  O  O206  1  0.00781110  0.86456661  0.76057704  1
  O  O207  1  0.50533875  0.36855836  0.25815880  1
  O  O208  1  0.51089956  0.37945734  0.75641378  1
  O  O209  1  0.51039318  0.87279796  0.24445018  1
  O  O210  1  0.50081735  0.86529192  0.76050784  1
  O  O211  1  0.48837790  0.12814270  0.24184771  1
  O  O212  1  0.49252878  0.12662384  0.74074694  1
  O  O213  1  0.49366186  0.62693660  0.24419036  1
  O  O214  1  0.49841510  0.64044425  0.75870030  1
  O  O215  1  0.98905314  0.13018166  0.24268829  1
  O  O216  1  0.98430422  0.14172960  0.75587410  1
  O  O217  1  0.99322802  0.58994664  0.23650876  1
  O  O218  1  0.99451503  0.62872390  0.74692920  1
  O  O219  1  0.36822618  0.25480729  0.00656659  1
  O  O220  1  0.36875006  0.25348127  0.50491001  1
  O  O221  1  0.37288328  0.75618894  0.01395392  1
  O  O222  1  0.38822478  0.76325447  0.50326544  1
  O  O223  1  0.87880077  0.26526807  -0.00290505  1
  O  O224  1  0.86703065  0.25695788  0.50474235  1
  O  O225  1  0.87073150  0.74731037  -0.00041459  1
  O  O226  1  0.86572213  0.74641562  0.50824777  1
  O  O227  1  0.12715534  0.24502761  0.48767161  1
  O  O228  1  0.13004300  0.24479884  0.99222084  1
  O  O229  1  0.12927076  0.75340013  0.47785616  1
  O  O230  1  0.12282326  0.73742870  0.98871712  1
  O  O231  1  0.63103339  0.24138224  0.50705423  1
  O  O232  1  0.62262917  0.25254197  0.98654946  1
  O  O233  1  0.62773717  0.74563671  0.49948934  1
  O  O234  1  0.62844231  0.73926732  0.99948233  1
  O  O235  1  0.48718889  0.24303276  0.12512262  1
  O  O236  1  0.49309325  0.24337963  0.62554755  1
  O  O237  1  0.48842313  0.74020505  0.12648153  1
  O  O238  1  0.50457256  0.75161949  0.64035099  1
  O  O239  1  1.00808450  0.23429743  0.12854583  1
  O  O240  1  0.98503365  0.25492784  0.62986230  1
  O  O241  1  1.04427237  0.74221393  0.14567719  1
  O  O242  1  0.99603204  0.74493681  0.62832237  1
  O  O243  1  0.00659061  0.25982702  0.36964314  1
  O  O244  1  0.00719854  0.25454119  0.86671441  1
  O  O245  1  0.00955355  0.74638947  0.36480691  1
  O  O246  1  0.00826575  0.75819594  0.87228546  1
  O  O247  1  0.49418543  0.26261574  0.37809743  1
  O  O248  1  0.50625978  0.26071659  0.87094298  1
  O  O249  1  0.51097805  0.74623547  0.37617592  1
  O  O250  1  0.50191265  0.75982202  0.87050711  1
  O  O251  1  0.24438067  0.13083336  0.48923582  1
  O  O252  1  0.24387892  0.13176951  0.99217139  1
  O  O253  1  0.24943753  0.60639154  0.48790486  1
  O  O254  1  0.24313573  0.62253607  0.98972213  1
  O  O255  1  0.73883777  0.13360467  0.49279384  1
  O  O256  1  0.74484606  0.12990476  0.99805685  1
  O  O257  1  0.74401087  0.63738004  0.49771535  1
  O  O258  1  0.74849066  0.63346128  0.99756190  1
  O  O259  1  0.25479403  0.37058715  0.00661741  1
  O  O260  1  0.25485638  0.36795652  0.50739143  1
  O  O261  1  0.26147468  0.87920853  0.00645505  1
  O  O262  1  0.25523695  0.87749999  0.51153212  1
  O  O263  1  0.76532856  0.37633952  0.00568599  1
  O  O264  1  0.75359348  0.36489678  0.49314173  1
  O  O265  1  0.75346489  0.86109044  0.00948638  1
  O  O266  1  0.75228101  0.86320859  0.50415171  1
  O  O267  1  0.13883417  0.48930169  0.25989995  1
  O  O268  1  0.12562454  0.49491018  0.73624127  1
  O  O269  1  0.12830386  1.00941907  0.24127940  1
  O  O270  1  0.14589776  0.98728637  0.76664240  1
  O  O271  1  0.60991342  0.47941005  0.24569711  1
  O  O272  1  0.63265489  0.49807446  0.74387906  1
  O  O273  1  0.62557457  0.99134469  0.24360513  1
  O  O274  1  0.62709288  1.00024242  0.73998490  1
  O  O275  1  0.37782791  0.00807681  0.25911766  1
  O  O276  1  0.36595042  0.00283764  0.75371521  1
  O  O277  1  0.37216134  0.50200792  0.25757010  1
  O  O278  1  0.37127876  0.48701376  0.77219784  1
  O  O279  1  0.86822060  0.01454164  0.26169491  1
  O  O280  1  0.87240145  0.00725217  0.75558335  1
  O  O281  1  0.86641117  0.48602252  0.26693393  1
  O  O282  1  0.86825271  0.50946158  0.74316401  1
  O  O283  1  0.12220694  0.36758666  0.36825335  1
  O  O284  1  0.12838870  0.36077220  0.87076185  1
  O  O285  1  0.10954539  0.87055304  0.37612789  1
  O  O286  1  0.12009606  0.86729733  0.87252795  1
  O  O287  1  0.62005297  0.37816907  0.36312527  1
  O  O288  1  0.62273274  0.37273540  0.86771696  1
  O  O289  1  0.63019492  0.86875892  0.36469088  1
  O  O290  1  0.61514271  0.87351860  0.87615531  1
  O  O291  1  0.37885645  0.12949718  0.13043437  1
  O  O292  1  0.37769517  0.12846286  0.62736919  1
  O  O293  1  0.37642558  0.63343951  0.12937383  1
  O  O294  1  0.39258960  0.57024903  0.63963504  1
  O  O295  1  0.88345672  0.11749070  0.13237164  1
  O  O296  1  0.87189308  0.13321914  0.63231053  1
  O  O297  1  0.88375849  0.62448354  0.12956926  1
  O  O298  1  0.88183097  0.63416937  0.63402512  1
  O  O299  1  0.26026050  0.25405888  0.12089078  1
  O  O300  1  0.25409685  0.25504324  0.61873143  1
  O  O301  1  0.25011169  0.77135157  0.12860627  1
  O  O302  1  0.25076591  0.75839601  0.62720096  1
  O  O303  1  0.74574805  0.27186303  0.11987040  1
  O  O304  1  0.76007044  0.24652179  0.61417732  1
  O  O305  1  0.75044387  0.75978648  0.11064952  1
  O  O306  1  0.75906342  0.74861620  0.62096148  1
  O  O307  1  0.24278129  0.24130034  0.37863597  1
  O  O308  1  0.24469555  0.24342233  0.87686540  1
  O  O309  1  0.27488266  0.72509320  0.39189519  1
  O  O310  1  0.24478584  0.74119175  0.86998260  1
  O  O311  1  0.75061341  0.23848257  0.38547782  1
  O  O312  1  0.74166757  0.24895378  0.88016450  1
  O  O313  1  0.73428587  0.74666761  0.38910791  1
  O  O314  1  0.75257584  0.74258472  0.88916886  1
  O  O315  1  0.00904023  0.12880921  0.00704623  1
  O  O316  1  0.01114910  0.13156922  0.49156140  1
  O  O317  1  0.01476723  0.61617896  0.00150380  1
  O  O318  1  -0.00686329  0.61304981  0.50487311  1
  O  O319  1  0.49776679  0.12981699  0.01464317  1
  O  O320  1  0.50404229  0.11751334  0.50415611  1
  O  O321  1  0.50836205  0.62403695  0.00680866  1
  O  O322  1  0.50868815  0.61009592  0.49684834  1
  O  O323  1  0.50122278  0.38186180  0.49222763  1
  O  O324  1  0.49630967  0.38306858  0.99543016  1
  O  O325  1  0.49022705  0.88773455  0.50343369  1
  O  O326  1  0.48589860  0.86797325  0.98928089  1
  O  O327  1  0.99022207  0.38369810  0.49437926  1
  O  O328  1  0.99098111  0.38087059  0.99686123  1
  O  O329  1  0.99078915  0.86371434  0.47766265  1
  O  O330  1  1.00630953  0.87465658  0.98571571  1
  O  O331  1  0.49659112  0.49050880  0.38090693  1
  O  O332  1  0.49501141  0.49809780  0.88260019  1
  O  O333  1  0.48603072  1.00475042  0.38398038  1
  O  O334  1  0.48666789  0.99070606  0.86564332  1
  O  O335  1  0.99231292  0.49702609  0.38419524  1
  O  O336  1  1.01210883  0.49631389  0.89133084  1
  O  O337  1  0.99015601  0.99197821  0.37228744  1
  O  O338  1  0.99287455  0.98714579  0.86731791  1
  O  O339  1  0.01536934  0.00955962  0.13068625  1
  O  O340  1  0.02187921  0.00286028  0.66605895  1
  O  O341  1  0.01379549  0.49512295  0.10090962  1
  O  O342  1  0.00419598  0.50427922  0.61814065  1
  O  O343  1  0.49627083  0.01526006  0.12706219  1
  O  O344  1  0.50337379  0.00611508  0.61777400  1
  O  O345  1  0.49634722  0.51569640  0.11810115  1
  O  O346  1  0.52442651  0.48516095  0.61161942  1
  O  O347  1  0.24513217  0.38070043  0.24724320  1
  O  O348  1  0.24834939  0.37390640  0.73533194  1
  O  O349  1  0.25999160  0.88931140  0.23463649  1
  O  O350  1  0.24880540  0.87821186  0.73684873  1
  O  O351  1  0.74156559  0.37355454  0.24095157  1
  O  O352  1  0.74532820  0.39059227  0.75859794  1
  O  O353  1  0.74112754  0.87589759  0.23627897  1
  O  O354  1  0.74541440  0.87504343  0.74623380  1
  O  O355  1  0.26085100  0.12992873  0.25761497  1
  O  O356  1  0.25433343  0.11711798  0.75271778  1
  O  O357  1  0.25937019  0.61168953  0.26518864  1
  O  O358  1  0.25793028  0.62183357  0.75694852  1
  O  O359  1  0.75027576  0.12764379  0.25505953  1
  O  O360  1  0.76094069  0.12373431  0.75523878  1
  O  O361  1  0.70606110  0.60185229  0.26457334  1
  O  O362  1  0.75730540  0.61904246  0.75942330  1
  O  O363  1  0.36563289  0.11723941  0.36801016  1
  O  O364  1  0.37313654  0.11927244  0.86879377  1
  O  O365  1  0.37436339  0.60885486  0.37374886  1
  O  O366  1  0.36791186  0.61862887  0.87981176  1
  O  O367  1  0.86399428  0.12169797  0.36997481  1
  O  O368  1  0.87648734  0.11103693  0.86918539  1
  O  O369  1  0.86815669  0.61798756  0.36844614  1
  O  O370  1  0.87196198  0.62895177  0.86422650  1
  O  O371  1  0.13188180  0.36601626  0.13861488  1
  O  O372  1  0.13186983  0.37790619  0.62348865  1
  O  O373  1  0.13540303  0.89262971  0.12156100  1
  O  O374  1  0.13590245  0.87132435  0.62554654  1
  O  O375  1  0.62680111  0.37994362  0.13389831  1
  O  O376  1  0.63108967  0.37873537  0.63994892  1
  O  O377  1  0.63033174  0.87060821  0.13316444  1
  O  O378  1  0.62318499  0.88984266  0.62363137  1
  O  O379  1  0.12625090  0.25594125  0.26038704  1
  O  O380  1  0.11475542  0.24773641  0.75424835  1
  O  O381  1  0.16922367  0.76135691  0.28776441  1
  O  O382  1  0.12135605  0.75384151  0.76056586  1
  O  O383  1  0.61969237  0.26671665  0.24790779  1
  O  O384  1  0.62688795  0.25964852  0.75757103  1
  O  O385  1  0.62193480  0.75844592  0.26062708  1
  O  O386  1  0.61552532  0.75158996  0.75479428  1
  O  O387  1  0.37638230  0.24182594  0.24207280  1
  O  O388  1  0.37580683  0.24341899  0.74260866  1
  O  O389  1  0.37137004  0.74399088  0.23970782  1
  O  O390  1  0.39060106  0.74920210  0.75013319  1
  O  O391  1  0.87227988  0.23838272  0.25632881  1
  O  O392  1  0.87636510  0.24650588  0.74146633  1
  O  O393  1  0.80386141  0.71174438  0.26639012  1
  O  O394  1  0.88101176  0.74245699  0.74387643  1
  O  O395  1  0.38703594  0.48965276  0.49116322  1
  O  O396  1  0.38059009  0.49555822  0.99286688  1
  O  O397  1  0.37950723  0.99352932  0.49139708  1
  O  O398  1  0.37365873  0.99316582  0.98991577  1
  O  O399  1  0.87924396  0.49425982  0.49762460  1
  O  O400  1  0.88909027  0.49266190  0.99894409  1
  O  O401  1  0.86880352  1.00172853  0.48682029  1
  O  O402  1  0.87967107  1.00214405  0.98693107  1
  O  O403  1  0.12854032  0.01231406  -0.00206887  1
  O  O404  1  0.12302255  0.01526523  0.49490839  1
  O  O405  1  0.12498833  0.51188249  -0.00317073  1
  O  O406  1  0.11311207  0.49256477  0.51048876  1
  O  O407  1  0.62045465  0.00099760  0.00265983  1
  O  O408  1  0.61545612  0.00671217  0.50341131  1
  O  O409  1  0.62077037  0.51369546  0.00339694  1
  O  O410  1  0.62537875  0.50694237  0.50484042  1
  O  O411  1  0.37304354  0.36700017  0.12163861  1
  O  O412  1  0.36805653  0.37261002  0.61786130  1
  O  O413  1  0.36573029  0.87242673  0.11860053  1
  O  O414  1  0.35994933  0.88105574  0.61596879  1
  O  O415  1  0.86909897  0.38022265  0.11893662  1
  O  O416  1  0.87374920  0.36931549  0.61145822  1
  O  O417  1  0.86503025  0.87689736  0.13509227  1
  O  O418  1  0.87694638  0.86190876  0.62270861  1
  O  O419  1  0.12938188  0.13165147  0.37863271  1
  O  O420  1  0.12903713  0.13589874  0.88003407  1
  O  O421  1  0.13800500  0.63544277  0.37481398  1
  O  O422  1  0.13655827  0.63123630  0.87795245  1
  O  O423  1  0.62644993  0.12104567  0.38478350  1
  O  O424  1  0.62372953  0.13670020  0.87354485  1
  O  O425  1  0.62927699  0.63382642  0.38949948  1
  O  O426  1  0.63717046  0.62807015  0.88482691  1
