# generated using pymatgen
data_V85Zn86O256
_symmetry_space_group_name_H-M   'P 1'
_cell_length_a   16.94886016
_cell_length_b   16.94288860
_cell_length_c   16.94158717
_cell_angle_alpha   90.02751858
_cell_angle_beta   90.12953878
_cell_angle_gamma   89.99783994
_symmetry_Int_Tables_number   1
_chemical_formula_structural   V85Zn86O256
_chemical_formula_sum   'V85 Zn86 O256'
_cell_volume   4864.97806014
_cell_formula_units_Z   1
loop_
 _symmetry_equiv_pos_site_id
 _symmetry_equiv_pos_as_xyz
  1  'x, y, z'
loop_
 _atom_site_type_symbol
 _atom_site_label
 _atom_site_symmetry_multiplicity
 _atom_site_fract_x
 _atom_site_fract_y
 _atom_site_fract_z
 _atom_site_occupancy
  V  V0  1  0.61488550  0.36666775  0.24603602  1
  V  V1  1  0.49969989  0.49799233  0.49979395  1
  V  V2  1  0.49685817  0.13483468  0.61788942  1
  V  V3  1  0.74656547  0.62385042  0.37526201  1
  V  V4  1  0.87759620  0.75016207  0.62458944  1
  V  V5  1  0.23603997  0.62470565  0.37982909  1
  V  V6  1  0.37871038  0.12037077  0.25410439  1
  V  V7  1  -0.00279831  0.38175871  0.89185765  1
  V  V8  1  0.50144583  0.13549582  0.12578893  1
  V  V9  1  0.88293532  0.87893987  -0.00326823  1
  V  V10  1  0.00186595  -0.00297213  0.49700554  1
  V  V11  1  0.25297807  0.88039788  0.62778751  1
  V  V12  1  0.25016382  0.24865721  -0.00145966  1
  V  V13  1  0.12352944  0.50153938  0.61167056  1
  V  V14  1  0.37509875  0.24951050  0.13088243  1
  V  V15  1  0.75779021  0.25548434  0.00000766  1
  V  V16  1  0.48836126  0.74875527  0.24528311  1
  V  V17  1  0.62354983  0.62449513  0.50389239  1
  V  V18  1  0.62356959  -0.00036060  0.12282968  1
  V  V19  1  0.25831536  0.37041206  0.62739723  1
  V  V20  1  0.00577084  0.75139848  0.74892688  1
  V  V21  1  0.75616456  0.00428543  0.74709100  1
  V  V22  1  0.75808415  0.12799028  0.86913941  1
  V  V23  1  0.37328002  0.74418833  0.62573223  1
  V  V24  1  -0.00442845  0.75821196  0.25562405  1
  V  V25  1  0.24676984  -0.00426317  0.22841535  1
  V  V26  1  0.12326885  0.24922134  0.87258696  1
  V  V27  1  -0.01281486  0.13011123  0.62990805  1
  V  V28  1  -0.04892135  0.56754100  0.06703232  1
  V  V29  1  0.37203814  0.50122755  0.37776903  1
  V  V30  1  0.62335917  0.87237251  0.24992270  1
  V  V31  1  0.37079521  0.87107748  0.01047705  1
  V  V32  1  0.00096900  0.37747371  0.38279342  1
  V  V33  1  0.87884616  0.61979680  0.24926936  1
  V  V34  1  0.62803264  0.50047451  0.62824382  1
  V  V35  1  0.38029222  0.37870337  0.00160849  1
  V  V36  1  0.12945625  0.24593809  0.37585997  1
  V  V37  1  0.25102160  0.74870910  0.02239676  1
  V  V38  1  0.75470006  0.24871191  0.50250974  1
  V  V39  1  0.73999357  0.49857307  0.25124102  1
  V  V40  1  0.12195860  0.37701580  0.74941512  1
  V  V41  1  0.25867209  0.24745518  0.50293581  1
  V  V42  1  0.62535112  0.62589642  -0.00028703  1
  V  V43  1  0.12121186  0.11255651  0.00169642  1
  V  V44  1  0.62468221  0.25197064  0.87915066  1
  V  V45  1  0.62651974  0.37123361  0.74924271  1
  V  V46  1  0.37368104  0.12638768  0.74749348  1
  V  V47  1  0.37493021  0.50615217  0.87401996  1
  V  V48  1  0.49759720  -0.00052285  -0.00489826  1
  V  V49  1  0.00572133  0.62234460  0.61160585  1
  V  V50  1  0.24462649  0.74647000  0.50004944  1
  V  V51  1  0.24583453  0.50105104  0.24896360  1
  V  V52  1  0.74864316  0.12572698  0.37376740  1
  V  V53  1  0.37864111  0.88699927  0.49900816  1
  V  V54  1  0.12867432  0.00471245  0.62570816  1
  V  V55  1  0.62098561  0.87530188  0.75186621  1
  V  V56  1  0.87526644  0.12341645  0.24676485  1
  V  V57  1  0.00348192  0.11076183  0.12163514  1
  V  V58  1  0.75519019  0.50146657  0.75971937  1
  V  V59  1  0.12495170  0.37401061  0.24951772  1
  V  V60  1  0.75352217  0.37671194  0.12508629  1
  V  V61  1  0.87853843  -0.00838214  0.37139720  1
  V  V62  1  0.74910187  -0.00302042  0.24704389  1
  V  V63  1  0.76238936  0.37192031  0.62608099  1
  V  V64  1  0.12285066  0.50203849  0.11512308  1
  V  V65  1  0.13395459  0.74999628  0.87640959  1
  V  V66  1  0.87681174  0.87367992  0.49708923  1
  V  V67  1  0.49691807  0.88671036  0.37972732  1
  V  V68  1  0.74831103  0.87746125  0.62376872  1
  V  V69  1  0.62598167  0.12664627  -0.00265429  1
  V  V70  1  0.49790304  0.62282557  0.63346920  1
  V  V71  1  0.61246452  0.00294814  0.61718399  1
  V  V72  1  0.61901419  0.74957631  0.37617571  1
  V  V73  1  0.24968252  0.11564464  0.86925653  1
  V  V74  1  0.25374663  0.11110703  0.37667083  1
  V  V75  1  0.50134256  0.38068170  0.88017374  1
  V  V76  1  -0.00028002  0.24591160  0.25008373  1
  V  V77  1  0.74540615  0.86889552  0.11109621  1
  V  V78  1  0.87408887  0.74725752  0.11793410  1
  V  V79  1  0.13074245  0.88182344  0.75075790  1
  V  V80  1  0.87748073  0.62424760  0.75662553  1
  V  V81  1  0.74750735  0.74917113  0.50274928  1
  V  V82  1  0.87598985  0.49845131  0.38601902  1
  V  V83  1  0.49494466  0.74937471  0.75573816  1
  V  V84  1  0.25164975  0.50859809  0.74894540  1
  Zn  Zn85  1  0.49518537  0.25314364  0.74732087  1
  Zn  Zn86  1  0.88174262  0.50516293  0.89005367  1
  Zn  Zn87  1  0.87950690  0.25173683  0.11962638  1
  Zn  Zn88  1  -0.01379420  0.25100764  0.74914532  1
  Zn  Zn89  1  0.12137642  0.62505132  0.00034771  1
  Zn  Zn90  1  0.11263331  0.75419396  0.38172049  1
  Zn  Zn91  1  0.37122823  -0.00400317  0.87000724  1
  Zn  Zn92  1  0.49543932  0.36784413  0.37179214  1
  Zn  Zn93  1  0.24765980  0.37339734  0.12482783  1
  Zn  Zn94  1  0.36532616  0.63328978  0.24308528  1
  Zn  Zn95  1  0.49615152  0.61209563  0.11921062  1
  Zn  Zn96  1  0.88206876  0.00534133  0.87476244  1
  Zn  Zn97  1  0.61891917  0.24868598  0.37320807  1
  Zn  Zn98  1  0.12710072  0.87982716  0.24924477  1
  Zn  Zn99  1  0.00977555  0.88380185  0.88122362  1
  Zn  Zn100  1  0.38016252  0.36948840  0.50377754  1
  Zn  Zn101  1  0.25253630  0.62684308  0.87599895  1
  Zn  Zn102  1  0.62090646  0.12376616  0.49528172  1
  Zn  Zn103  1  0.49840435  0.87172123  0.87738298  1
  Zn  Zn104  1  0.88138180  0.36998081  0.50481865  1
  Zn  Zn105  1  0.12476741  0.12389931  0.50070808  1
  Zn  Zn106  1  0.65706622  0.74855491  0.89129110  1
  Zn  Zn107  1  0.18910230  0.18096509  0.18739839  1
  Zn  Zn108  1  0.18647626  0.18735983  0.68925622  1
  Zn  Zn109  1  0.17705168  0.68262738  0.18854039  1
  Zn  Zn110  1  0.18658000  0.68726354  0.68522527  1
  Zn  Zn111  1  0.68793608  0.18967850  0.18469887  1
  Zn  Zn112  1  0.80934121  0.18893179  0.68828480  1
  Zn  Zn113  1  0.68265111  0.68653731  0.18239940  1
  Zn  Zn114  1  0.69991495  0.70042641  0.71618960  1
  Zn  Zn115  1  0.31370865  0.31192997  0.31431483  1
  Zn  Zn116  1  0.31307360  0.31015228  0.81162648  1
  Zn  Zn117  1  0.30741217  0.81812147  0.31843768  1
  Zn  Zn118  1  0.31628959  0.81584355  0.81385268  1
  Zn  Zn119  1  0.81209515  0.31196693  0.31317344  1
  Zn  Zn120  1  0.81648207  0.31994741  0.81871221  1
  Zn  Zn121  1  0.80884329  0.80945380  0.30879691  1
  Zn  Zn122  1  0.81481412  0.81711392  0.81030276  1
  Zn  Zn123  1  0.18998282  0.43229234  0.43818735  1
  Zn  Zn124  1  0.19058404  0.43495549  0.93576932  1
  Zn  Zn125  1  0.18403930  0.92974749  0.43476843  1
  Zn  Zn126  1  0.19047250  0.93316366  0.94460750  1
  Zn  Zn127  1  0.68620518  0.43335128  0.43665432  1
  Zn  Zn128  1  0.69246632  0.44038943  0.93741534  1
  Zn  Zn129  1  0.68674774  0.93749590  0.43628087  1
  Zn  Zn130  1  0.68637991  0.93960896  0.93262654  1
  Zn  Zn131  1  0.31573237  0.06472832  0.05706495  1
  Zn  Zn132  1  0.31370231  0.06463165  0.56451332  1
  Zn  Zn133  1  0.31538521  0.56468492  0.06510825  1
  Zn  Zn134  1  0.31160768  0.56171972  0.56330807  1
  Zn  Zn135  1  0.81318300  0.06307136  0.06097141  1
  Zn  Zn136  1  0.80911834  0.05759295  0.55703839  1
  Zn  Zn137  1  0.78190335  0.56347004  0.06139476  1
  Zn  Zn138  1  0.81334118  0.56322964  0.56942008  1
  Zn  Zn139  1  0.42912264  0.43934479  0.18989222  1
  Zn  Zn140  1  0.43785615  0.43766596  0.69170338  1
  Zn  Zn141  1  0.43792318  0.94110994  0.18872368  1
  Zn  Zn142  1  0.43373241  0.94023277  0.69019980  1
  Zn  Zn143  1  0.93218551  0.43169230  0.19682840  1
  Zn  Zn144  1  0.94264858  0.43996015  0.69005032  1
  Zn  Zn145  1  0.93619450  0.93348979  0.18261300  1
  Zn  Zn146  1  0.94108505  0.93850165  0.68726780  1
  Zn  Zn147  1  0.06570572  0.05978133  0.31208676  1
  Zn  Zn148  1  0.06050432  0.06215455  0.81185826  1
  Zn  Zn149  1  0.06001280  0.56208076  0.31278461  1
  Zn  Zn150  1  0.06489952  0.56339535  0.81169866  1
  Zn  Zn151  1  0.56219928  0.06357407  0.30946978  1
  Zn  Zn152  1  0.56380477  0.06617856  0.80651924  1
  Zn  Zn153  1  0.55737693  0.56159704  0.30974432  1
  Zn  Zn154  1  0.56559721  0.56342890  0.81939432  1
  Zn  Zn155  1  0.43854066  0.18598593  0.43566370  1
  Zn  Zn156  1  0.43678356  0.18996451  0.93615816  1
  Zn  Zn157  1  0.43224499  0.68767680  0.43697318  1
  Zn  Zn158  1  0.43834583  0.68619089  0.94616913  1
  Zn  Zn159  1  0.93643916  0.18299744  0.43760909  1
  Zn  Zn160  1  0.94057799  0.18955687  0.93583141  1
  Zn  Zn161  1  0.93352737  0.68509488  0.43596280  1
  Zn  Zn162  1  0.93617785  0.70181562  0.93180013  1
  Zn  Zn163  1  0.06657381  0.30639676  0.06500647  1
  Zn  Zn164  1  0.06928181  0.31001342  0.56262231  1
  Zn  Zn165  1  0.06219169  0.81516395  0.07254278  1
  Zn  Zn166  1  0.06366749  0.81570591  0.56309352  1
  Zn  Zn167  1  0.56738654  0.44612356  0.06620430  1
  Zn  Zn168  1  0.57162231  0.31097359  0.55853061  1
  Zn  Zn169  1  0.55884531  0.80786293  0.06047624  1
  Zn  Zn170  1  0.55934897  0.81205668  0.56614416  1
  O  O171  1  0.11580201  0.13118826  0.11391300  1
  O  O172  1  0.12101383  0.11387668  0.62350370  1
  O  O173  1  0.11856848  0.61049005  0.12062676  1
  O  O174  1  0.11760001  0.61506758  0.62787391  1
  O  O175  1  0.61824716  0.12126676  0.11930293  1
  O  O176  1  0.61035917  0.11031184  0.62422030  1
  O  O177  1  0.61673201  0.62940384  0.11273342  1
  O  O178  1  0.61663376  0.61862092  0.62014446  1
  O  O179  1  0.37387717  0.38729313  0.37936318  1
  O  O180  1  0.38285052  0.37729557  0.88259656  1
  O  O181  1  0.38128288  0.87253003  0.39189578  1
  O  O182  1  0.37771554  0.87968673  0.88585696  1
  O  O183  1  0.88303745  0.38244532  0.37566252  1
  O  O184  1  0.89301222  0.38230037  0.87920002  1
  O  O185  1  0.86675153  0.88559386  0.37800422  1
  O  O186  1  0.87331769  0.87327507  0.88870674  1
  O  O187  1  0.24974540  0.01076964  0.38065124  1
  O  O188  1  0.24792501  0.01319665  0.87934566  1
  O  O189  1  0.25167577  0.50585699  0.37193705  1
  O  O190  1  0.25589360  0.49994687  0.86573733  1
  O  O191  1  0.75605072  0.00499342  0.36796551  1
  O  O192  1  0.74903533  0.01062303  0.86453382  1
  O  O193  1  0.75603808  0.50469367  0.37152291  1
  O  O194  1  0.76196773  0.49540067  0.86373900  1
  O  O195  1  0.24042759  0.49704604  0.13402951  1
  O  O196  1  0.24455103  0.49192243  0.63119961  1
  O  O197  1  0.24949376  1.00631088  0.13000910  1
  O  O198  1  0.24097250  0.99248269  0.61956428  1
  O  O199  1  0.75333966  0.48994753  0.13986123  1
  O  O200  1  0.74430874  0.49046818  0.63041505  1
  O  O201  1  0.74386911  0.99137761  0.12830429  1
  O  O202  1  0.73946183  0.99756438  0.62985330  1
  O  O203  1  0.00491942  0.36416624  0.26118246  1
  O  O204  1  0.01334458  0.37226688  0.75243807  1
  O  O205  1  -0.00987098  0.85997781  0.25179825  1
  O  O206  1  0.01194930  0.86372963  0.74357004  1
  O  O207  1  0.51281119  0.37656459  0.25007634  1
  O  O208  1  0.50954258  0.37226967  0.75588666  1
  O  O209  1  0.50232184  0.86883860  0.25943503  1
  O  O210  1  0.50337183  0.86968601  0.75225677  1
  O  O211  1  0.49101848  0.11902751  0.23913651  1
  O  O212  1  0.49579046  0.13037663  0.73866095  1
  O  O213  1  0.49769882  0.64269544  0.25586740  1
  O  O214  1  0.50572610  0.63116056  0.73911527  1
  O  O215  1  0.99750594  0.12941546  0.24428622  1
  O  O216  1  1.00327312  0.12802158  0.73285878  1
  O  O217  1  0.98219834  0.62698826  0.25387246  1
  O  O218  1  0.99889994  0.63647912  0.74319873  1
  O  O219  1  0.36912260  0.25706384  0.00761436  1
  O  O220  1  0.36216084  0.25068075  0.49859490  1
  O  O221  1  0.36235730  0.76019369  -0.00156780  1
  O  O222  1  0.36662931  0.75617432  0.51036672  1
  O  O223  1  0.86174644  0.24698748  -0.00070013  1
  O  O224  1  0.86158064  0.25139643  0.49089101  1
  O  O225  1  0.87139676  0.76088892  0.00699993  1
  O  O226  1  0.86840201  0.75488102  0.50417230  1
  O  O227  1  0.13358420  0.24748147  0.48745780  1
  O  O228  1  0.13327701  0.24496716  0.98929396  1
  O  O229  1  0.13996848  0.75734695  0.50079660  1
  O  O230  1  0.13856838  0.75300470  0.99425697  1
  O  O231  1  0.64079332  0.24456670  0.49574429  1
  O  O232  1  0.63684514  0.24451504  0.98658799  1
  O  O233  1  0.62799826  0.74515373  0.49679592  1
  O  O234  1  0.62243689  0.74311837  0.99715006  1
  O  O235  1  0.48931447  0.23647892  0.11996929  1
  O  O236  1  0.50805497  0.23744049  0.62497765  1
  O  O237  1  0.49954769  0.75698331  0.14564436  1
  O  O238  1  0.49063259  0.74079243  0.62876316  1
  O  O239  1  1.00031839  0.24674231  0.13979001  1
  O  O240  1  1.00548337  0.23212827  0.62067809  1
  O  O241  1  0.98067333  0.74964876  0.13701644  1
  O  O242  1  0.99986300  0.74401960  0.63005709  1
  O  O243  1  0.00832396  0.24955222  0.36721379  1
  O  O244  1  0.00803023  0.26097210  0.87267701  1
  O  O245  1  -0.00695265  0.74576119  0.36125846  1
  O  O246  1  0.01476244  0.75860679  0.86539965  1
  O  O247  1  0.50555733  0.25555909  0.38303870  1
  O  O248  1  0.50876411  0.26166700  0.87643616  1
  O  O249  1  0.50513263  0.75748381  0.37251576  1
  O  O250  1  0.48803763  0.74768707  0.85846410  1
  O  O251  1  0.24893176  0.13065664  0.49439645  1
  O  O252  1  0.24469157  0.13427378  0.99233562  1
  O  O253  1  0.25443125  0.63402733  0.49313608  1
  O  O254  1  0.24884008  0.64070528  0.99899791  1
  O  O255  1  0.74916242  0.12919588  0.48991326  1
  O  O256  1  0.74310422  0.13085235  0.99311956  1
  O  O257  1  0.74474573  0.63076834  0.49785374  1
  O  O258  1  0.72997983  0.63598729  0.99919564  1
  O  O259  1  0.25579813  0.36065376  -0.00025323  1
  O  O260  1  0.25180717  0.36561448  0.50968911  1
  O  O261  1  0.26078497  0.86255637  0.00076404  1
  O  O262  1  0.26073045  0.86936413  0.50900596  1
  O  O263  1  0.74559915  0.36756228  0.01110062  1
  O  O264  1  0.75124915  0.36774650  0.50938726  1
  O  O265  1  0.75251421  0.87602722  0.00810234  1
  O  O266  1  0.75499683  0.86950357  0.50503191  1
  O  O267  1  0.13115785  0.49576260  0.24541283  1
  O  O268  1  0.13333197  0.49201728  0.74446980  1
  O  O269  1  0.14411516  1.00416391  0.25174723  1
  O  O270  1  0.12286853  0.98848055  0.74109587  1
  O  O271  1  0.63641157  0.49422633  0.25925710  1
  O  O272  1  0.63489496  0.49222139  0.74996153  1
  O  O273  1  0.62856694  0.99230393  0.24137651  1
  O  O274  1  0.62903830  0.99139635  0.74033666  1
  O  O275  1  0.36551797  0.01333925  0.24354099  1
  O  O276  1  0.38027251  0.01688198  0.75495969  1
  O  O277  1  0.35674766  0.49706912  0.25987898  1
  O  O278  1  0.36308236  0.49092739  0.76100317  1
  O  O279  1  0.87048775  0.00217194  0.25471750  1
  O  O280  1  0.85916694  -0.00822970  0.74876584  1
  O  O281  1  0.86461817  0.50470375  0.26097041  1
  O  O282  1  0.87261646  0.50859563  0.75136280  1
  O  O283  1  0.11962789  0.36706425  0.36980019  1
  O  O284  1  0.11942099  0.36879492  0.86891791  1
  O  O285  1  0.13201044  0.86505154  0.36165946  1
  O  O286  1  0.13021149  0.87046246  0.86608631  1
  O  O287  1  0.62581375  0.37411052  0.35896072  1
  O  O288  1  0.61922329  0.37284300  0.87207800  1
  O  O289  1  0.61837431  0.86847748  0.37169889  1
  O  O290  1  0.62221482  0.86897631  0.86495862  1
  O  O291  1  0.38102340  0.13118194  0.12904410  1
  O  O292  1  0.38937146  0.12123484  0.63050425  1
  O  O293  1  0.38124813  0.62138268  0.13241171  1
  O  O294  1  0.38427061  0.63205779  0.62154967  1
  O  O295  1  0.88273723  0.12815342  0.12974085  1
  O  O296  1  0.88333943  0.12035288  0.62270116  1
  O  O297  1  0.87534683  0.62586800  0.12794815  1
  O  O298  1  0.88623800  0.63110860  0.63246310  1
  O  O299  1  0.25643731  0.24775188  0.11579298  1
  O  O300  1  0.23951494  0.25827109  0.61517219  1
  O  O301  1  0.24796706  0.74488445  0.12045279  1
  O  O302  1  0.25564856  0.75568477  0.61980603  1
  O  O303  1  0.75138029  0.25610175  0.11558310  1
  O  O304  1  0.75092519  0.25973934  0.61629982  1
  O  O305  1  0.76217772  0.75973907  0.13603260  1
  O  O306  1  0.75626570  0.75773171  0.62255329  1
  O  O307  1  0.24421712  0.24263323  0.38091063  1
  O  O308  1  0.24267040  0.24385631  0.88116256  1
  O  O309  1  0.25195791  0.73951006  0.38375969  1
  O  O310  1  0.24146478  0.74803083  0.87147581  1
  O  O311  1  0.74780215  0.23918189  0.37775463  1
  O  O312  1  0.74477333  0.24734840  0.88013715  1
  O  O313  1  0.74038288  0.74364013  0.38063505  1
  O  O314  1  0.74065080  0.73725332  0.82064079  1
  O  O315  1  0.00924410  0.13319229  0.00971325  1
  O  O316  1  0.00056244  0.11375897  0.50865571  1
  O  O317  1  -0.00050900  0.63163784  0.00187399  1
  O  O318  1  -0.00296727  0.62954592  0.51232125  1
  O  O319  1  0.50531294  0.11984700  0.00441672  1
  O  O320  1  0.50019881  0.12362745  0.51373100  1
  O  O321  1  0.51058247  0.62607042  0.00411734  1
  O  O322  1  0.50218722  0.61466368  0.50773405  1
  O  O323  1  0.50103639  0.38828943  0.50512847  1
  O  O324  1  0.49198148  0.38028829  0.99333338  1
  O  O325  1  0.48665880  0.87006876  0.49609292  1
  O  O326  1  0.49039397  0.88105382  0.99809734  1
  O  O327  1  1.00045625  0.36532035  0.48678663  1
  O  O328  1  1.00648457  0.37127646  0.98996345  1
  O  O329  1  0.99312481  0.88830397  0.50587215  1
  O  O330  1  0.98605792  0.86800081  1.00014439  1
  O  O331  1  0.49022884  0.49800558  0.38330365  1
  O  O332  1  0.49052821  0.48730077  0.86571733  1
  O  O333  1  0.50646483  0.98608297  0.37351622  1
  O  O334  1  0.50482964  1.00273850  0.88809949  1
  O  O335  1  0.99062172  0.48877308  0.36975331  1
  O  O336  1  1.00455339  0.48615607  0.87464189  1
  O  O337  1  0.99020738  1.00603867  0.38317133  1
  O  O338  1  0.99380441  0.99382141  0.86592419  1
  O  O339  1  -0.00247991  0.01153139  0.12841971  1
  O  O340  1  0.00613626  0.00971830  0.61914979  1
  O  O341  1  0.00186202  0.49708645  0.12768806  1
  O  O342  1  0.01122222  0.50997187  0.62856451  1
  O  O343  1  0.50468969  0.00789141  0.11287269  1
  O  O344  1  0.50960792  0.00368469  0.62754689  1
  O  O345  1  0.50537651  0.49931418  0.14037791  1
  O  O346  1  0.50454864  0.50591755  0.62218395  1
  O  O347  1  0.24132381  0.38145190  0.25065497  1
  O  O348  1  0.24024487  0.37784419  0.74490178  1
  O  O349  1  0.26112519  0.89558447  0.24972154  1
  O  O350  1  0.24543418  0.87170300  0.73594307  1
  O  O351  1  0.74405180  0.38139388  0.24736281  1
  O  O352  1  0.74597405  0.38302929  0.74420149  1
  O  O353  1  0.74270015  0.88005547  0.24169718  1
  O  O354  1  0.73937747  0.88521632  0.74101935  1
  O  O355  1  0.25747798  0.11539155  0.25662861  1
  O  O356  1  0.25766214  0.12919466  0.75780449  1
  O  O357  1  0.24621364  0.61745642  0.25989588  1
  O  O358  1  0.24775304  0.61164276  0.74946916  1
  O  O359  1  0.75444043  0.11802879  0.25310438  1
  O  O360  1  0.74688259  0.11732549  0.75656669  1
  O  O361  1  0.75492132  0.61768030  0.25423721  1
  O  O362  1  0.76613255  0.60809755  0.73240501  1
  O  O363  1  0.36699918  0.12873926  0.36432678  1
  O  O364  1  0.36544576  0.12380839  0.87113921  1
  O  O365  1  0.36600716  0.61247087  0.37265586  1
  O  O366  1  0.37446126  0.60893881  0.88173837  1
  O  O367  1  0.86536991  0.11328339  0.36862061  1
  O  O368  1  0.86164471  0.12458396  0.88054376  1
  O  O369  1  0.86580287  0.61728472  0.36863544  1
  O  O370  1  0.88543535  0.62537574  0.86035124  1
  O  O371  1  0.12510903  0.38098983  0.13289256  1
  O  O372  1  0.13112045  0.38111093  0.63219684  1
  O  O373  1  0.12667054  0.86916371  0.13967840  1
  O  O374  1  0.13348424  0.88407978  0.63010155  1
  O  O375  1  0.63760680  0.37812975  0.14005729  1
  O  O376  1  0.63336023  0.38011030  0.63439320  1
  O  O377  1  0.63015837  0.87783255  0.12812144  1
  O  O378  1  0.62645469  0.88620292  0.62795678  1
  O  O379  1  0.12181071  0.25087005  0.25957080  1
  O  O380  1  0.12398906  0.25669481  0.76113503  1
  O  O381  1  0.09962298  0.73858304  0.25091945  1
  O  O382  1  0.12358148  0.75915591  0.75411831  1
  O  O383  1  0.62827015  0.26354157  0.24982722  1
  O  O384  1  0.62704919  0.26619154  0.76431156  1
  O  O385  1  0.61723518  0.75579945  0.25843800  1
  O  O386  1  0.60691172  0.76774073  0.73180656  1
  O  O387  1  0.36634440  0.24070009  0.23719815  1
  O  O388  1  0.37902181  0.23545284  0.75560090  1
  O  O389  1  0.38581568  0.75265701  0.26077341  1
  O  O390  1  0.38015638  0.75628957  0.73417942  1
  O  O391  1  0.88488842  0.24030037  0.25347395  1
  O  O392  1  0.87397398  0.25440128  0.75033492  1
  O  O393  1  0.87800387  0.73940071  0.24543903  1
  O  O394  1  0.88907370  0.74695420  0.74227915  1
  O  O395  1  0.38223373  0.49740866  0.49512512  1
  O  O396  1  0.36031466  0.48337428  0.99180473  1
  O  O397  1  0.37437597  0.98528504  0.50588513  1
  O  O398  1  0.38136940  0.99162461  0.99605450  1
  O  O399  1  0.86979185  0.49832016  0.48880394  1
  O  O400  1  0.87954821  0.51775812  1.00906223  1
  O  O401  1  0.88045048  0.99383332  0.49060148  1
  O  O402  1  0.86874616  0.98277469  0.99890950  1
  O  O403  1  0.12710678  0.01355188  -0.00511288  1
  O  O404  1  0.11714705  -0.00150835  0.50699947  1
  O  O405  1  0.13039935  0.49789271  0.01164458  1
  O  O406  1  0.12913680  0.49432128  0.51241860  1
  O  O407  1  0.61925948  0.00504546  0.00437454  1
  O  O408  1  0.62938290  0.00131979  0.51399092  1
  O  O409  1  0.63053455  0.51179345  -0.00219446  1
  O  O410  1  0.61837092  0.50401599  0.50549791  1
  O  O411  1  0.37060607  0.36591741  0.11919909  1
  O  O412  1  0.36180415  0.37678171  0.62682808  1
  O  O413  1  0.37997634  0.88008194  0.10911711  1
  O  O414  1  0.37009597  0.87028951  0.61773365  1
  O  O415  1  0.86008230  0.36786441  0.13504615  1
  O  O416  1  0.86609440  0.38340437  0.62303548  1
  O  O417  1  0.86654466  0.86822043  0.11408013  1
  O  O418  1  0.87024201  0.86992081  0.61858605  1
  O  O419  1  0.13407408  0.13145652  0.37696748  1
  O  O420  1  0.12997716  0.13295009  0.87742249  1
  O  O421  1  0.13290386  0.62785632  0.37623939  1
  O  O422  1  0.12796044  0.63438463  0.87912970  1
  O  O423  1  0.63761250  0.12177517  0.37367212  1
  O  O424  1  0.63324489  0.13485356  0.87564384  1
  O  O425  1  0.62758391  0.62932332  0.38296434  1
  O  O426  1  0.61689318  0.63316195  0.88868461  1
