# generated using pymatgen
data_V85Zn86O256
_symmetry_space_group_name_H-M   'P 1'
_cell_length_a   16.96875166
_cell_length_b   16.96789974
_cell_length_c   16.97501330
_cell_angle_alpha   90.01890881
_cell_angle_beta   90.03728268
_cell_angle_gamma   90.05577994
_symmetry_Int_Tables_number   1
_chemical_formula_structural   V85Zn86O256
_chemical_formula_sum   'V85 Zn86 O256'
_cell_volume   4887.51141553
_cell_formula_units_Z   1
loop_
 _symmetry_equiv_pos_site_id
 _symmetry_equiv_pos_as_xyz
  1  'x, y, z'
loop_
 _atom_site_type_symbol
 _atom_site_label
 _atom_site_symmetry_multiplicity
 _atom_site_fract_x
 _atom_site_fract_y
 _atom_site_fract_z
 _atom_site_occupancy
  V  V0  1  0.87395213  0.74973783  0.12516669  1
  V  V1  1  0.43524174  0.18404852  0.69377829  1
  V  V2  1  0.74753932  0.12400401  0.87272769  1
  V  V3  1  0.62707424  0.87728105  0.25051697  1
  V  V4  1  0.74645478  0.62238368  0.37923496  1
  V  V5  1  0.87532656  0.25343307  0.12034839  1
  V  V6  1  0.75043237  0.87659704  0.12520718  1
  V  V7  1  -0.01209259  0.49579929  -0.00490880  1
  V  V8  1  0.61928519  0.12265701  -0.00264968  1
  V  V9  1  0.50175198  0.74840209  0.24929462  1
  V  V10  1  0.62715381  0.62488918  -0.00783354  1
  V  V11  1  0.37758527  0.25126193  0.12145240  1
  V  V12  1  0.12500699  0.62408515  -0.00055148  1
  V  V13  1  0.87661926  0.87350110  0.48583043  1
  V  V14  1  -0.00090320  0.49988440  0.49942795  1
  V  V15  1  0.12631580  0.74879049  0.87355837  1
  V  V16  1  -0.00168952  0.75155552  0.26138744  1
  V  V17  1  0.87039429  0.25126882  0.61896692  1
  V  V18  1  0.74916895  0.25198999  -0.00286423  1
  V  V19  1  0.37906868  0.00236235  0.37798399  1
  V  V20  1  -0.00175436  0.12348384  0.62208627  1
  V  V21  1  0.12813226  -0.00124154  0.62345001  1
  V  V22  1  0.25243445  0.61590480  0.87020847  1
  V  V23  1  0.60609533  0.76066758  0.87378134  1
  V  V24  1  0.75101509  0.74892388  -0.01250188  1
  V  V25  1  0.87264294  0.61518472  0.76399974  1
  V  V26  1  0.62543823  0.74607071  0.37866481  1
  V  V27  1  0.61717369  0.00059806  0.12280894  1
  V  V28  1  0.37429925  0.75027202  0.12382740  1
  V  V29  1  0.25016598  0.37445976  0.12385935  1
  V  V30  1  0.37404469  0.38044313  -0.01200592  1
  V  V31  1  -0.00199021  -0.00549306  0.48554641  1
  V  V32  1  0.61071845  0.87607786  0.74228371  1
  V  V33  1  0.37659556  0.74692612  0.64119831  1
  V  V34  1  0.25086310  0.12005641  0.86868758  1
  V  V35  1  0.25081402  0.50151044  0.25208742  1
  V  V36  1  0.25645121  0.35960885  0.62008768  1
  V  V37  1  0.87499397  0.00087691  0.87131247  1
  V  V38  1  -0.00461568  0.25092114  0.74877835  1
  V  V39  1  0.50222104  0.62119667  0.12452171  1
  V  V40  1  0.38426906  -0.00217654  0.87117468  1
  V  V41  1  0.12296595  0.50019315  0.12396350  1
  V  V42  1  0.55811049  0.32240835  0.83004620  1
  V  V43  1  0.76331153  0.12702159  0.37874669  1
  V  V44  1  0.12802369  0.87537096  0.74794931  1
  V  V45  1  0.50885841  0.00941139  0.50445282  1
  V  V46  1  0.38781584  0.61512778  0.75205918  1
  V  V47  1  0.24893458  0.63226629  0.37936347  1
  V  V48  1  0.49937932  0.49773162  0.51388728  1
  V  V49  1  0.12124936  0.87507676  0.25583913  1
  V  V50  1  0.38819113  0.88054223  -0.00131542  1
  V  V51  1  -0.01752196  0.37528357  0.87692027  1
  V  V52  1  0.87565149  0.87439037  -0.00016786  1
  V  V53  1  0.37417909  0.62431830  0.25016209  1
  V  V54  1  0.50242221  0.87605254  0.37463748  1
  V  V55  1  0.62887806  0.24491187  0.37945824  1
  V  V56  1  0.12408409  0.25248278  0.87488974  1
  V  V57  1  0.63064934  0.38153748  0.24760093  1
  V  V58  1  0.12816287  0.63075149  0.50240630  1
  V  V59  1  0.12899879  0.25200931  0.37994175  1
  V  V60  1  -0.00091606  0.37590231  0.37443865  1
  V  V61  1  0.86619709  0.49758574  0.37240518  1
  V  V62  1  -0.00492118  0.24657021  0.25064295  1
  V  V63  1  0.37079359  0.86477891  0.49733420  1
  V  V64  1  0.24986946  0.75267587  -0.00116424  1
  V  V65  1  0.12443700  0.12537826  0.00130802  1
  V  V66  1  0.12536810  0.12580284  0.49827872  1
  V  V67  1  0.25391804  0.13055574  0.37650697  1
  V  V68  1  0.00138833  0.87450387  0.87552459  1
  V  V69  1  0.12449958  0.37511973  0.25016118  1
  V  V70  1  -0.00102546  0.62452295  0.12514286  1
  V  V71  1  0.00078294  -0.00087867  0.00097153  1
  V  V72  1  -0.00059650  0.74685714  0.74983521  1
  V  V73  1  -0.00606234  0.12345319  0.12769053  1
  V  V74  1  0.86871351  0.62045244  0.24917256  1
  V  V75  1  0.13132344  0.49882689  0.62576096  1
  V  V76  1  0.76260500  0.00925907  0.25113230  1
  V  V77  1  0.49582761  0.49905258  -0.01139192  1
  V  V78  1  0.50632664  0.25033131  0.24238565  1
  V  V79  1  0.86452789  0.37516542  0.49976316  1
  V  V80  1  0.25103723  -0.00042388  0.24835438  1
  V  V81  1  0.75387712  0.38282766  0.12342586  1
  V  V82  1  0.73824635  0.38069713  0.62791020  1
  V  V83  1  0.87326986  0.75183867  0.62795494  1
  V  V84  1  0.73999873  0.49761897  0.76189956  1
  Zn  Zn85  1  0.87171282  0.12377407  0.74621570  1
  Zn  Zn86  1  0.37546455  0.49737235  0.38188677  1
  Zn  Zn87  1  0.69443759  0.19340205  0.55067293  1
  Zn  Zn88  1  0.25035607  0.25052358  -0.00139715  1
  Zn  Zn89  1  0.37739163  0.12443842  0.24467216  1
  Zn  Zn90  1  0.12415002  0.75676184  0.38394847  1
  Zn  Zn91  1  0.49753002  0.12235085  0.11893523  1
  Zn  Zn92  1  0.12519350  -0.00120149  0.12634125  1
  Zn  Zn93  1  0.49647993  0.37596445  0.37404317  1
  Zn  Zn94  1  0.25761271  0.00057108  0.74524138  1
  Zn  Zn95  1  0.24594208  0.86882731  0.61458284  1
  Zn  Zn96  1  0.12465504  0.37643960  0.74938919  1
  Zn  Zn97  1  -0.00478483  0.62022523  0.62641463  1
  Zn  Zn98  1  0.62906508  0.02017229  0.62142436  1
  Zn  Zn99  1  0.74548666  -0.00272663  0.74790295  1
  Zn  Zn100  1  0.59872448  0.62767896  0.53384948  1
  Zn  Zn101  1  0.37286246  0.36310309  0.49493041  1
  Zn  Zn102  1  0.74181297  0.75165319  0.50778363  1
  Zn  Zn103  1  0.25304320  0.49463915  0.75093463  1
  Zn  Zn104  1  0.62975089  0.50270265  0.12614932  1
  Zn  Zn105  1  0.74931028  0.87814049  0.62704501  1
  Zn  Zn106  1  0.24848034  0.87589270  0.12514401  1
  Zn  Zn107  1  0.18628296  0.18771206  0.18886446  1
  Zn  Zn108  1  0.18262974  0.18615298  0.69111744  1
  Zn  Zn109  1  0.18543768  0.68968361  0.18888555  1
  Zn  Zn110  1  0.19400340  0.68808709  0.68293052  1
  Zn  Zn111  1  0.68868060  0.18733223  0.18479335  1
  Zn  Zn112  1  0.59873599  0.19502526  0.70535513  1
  Zn  Zn113  1  0.68864024  0.68809912  0.18668599  1
  Zn  Zn114  1  0.68973991  0.69365401  0.70049047  1
  Zn  Zn115  1  0.31626833  0.31179521  0.31001029  1
  Zn  Zn116  1  0.30950317  0.31078574  0.80796187  1
  Zn  Zn117  1  0.31150185  0.81317950  0.31285989  1
  Zn  Zn118  1  0.31327621  0.81427991  0.81478634  1
  Zn  Zn119  1  0.81066945  0.30972119  0.30782778  1
  Zn  Zn120  1  0.80008554  0.30746450  0.80697291  1
  Zn  Zn121  1  0.80843779  0.81039526  0.31035214  1
  Zn  Zn122  1  0.81000341  0.81661478  0.80782726  1
  Zn  Zn123  1  0.19070276  0.44004273  0.44065867  1
  Zn  Zn124  1  0.18258277  0.43591344  0.93891160  1
  Zn  Zn125  1  0.18904658  0.94186065  0.43431008  1
  Zn  Zn126  1  0.18966428  0.93803193  0.93704009  1
  Zn  Zn127  1  0.67829031  0.43897684  0.43981495  1
  Zn  Zn128  1  0.68891954  0.43724600  0.94088186  1
  Zn  Zn129  1  0.69334903  0.93870517  0.43618127  1
  Zn  Zn130  1  0.68568787  0.93672818  0.93622837  1
  Zn  Zn131  1  0.31139669  0.06357866  0.06024403  1
  Zn  Zn132  1  0.31452811  0.18225530  0.55842605  1
  Zn  Zn133  1  0.31230425  0.56239948  0.06178970  1
  Zn  Zn134  1  0.31783485  0.56217073  0.56460749  1
  Zn  Zn135  1  0.81105533  0.06352986  0.06151958  1
  Zn  Zn136  1  0.81390454  0.05463625  0.56258439  1
  Zn  Zn137  1  0.81031129  0.56520556  0.05811477  1
  Zn  Zn138  1  0.77283143  0.58660306  0.58815990  1
  Zn  Zn139  1  0.43865677  0.43544979  0.18518801  1
  Zn  Zn140  1  0.43916692  0.43105516  0.69197957  1
  Zn  Zn141  1  0.43621309  0.93562132  0.18748201  1
  Zn  Zn142  1  0.43729002  0.94119231  0.68067159  1
  Zn  Zn143  1  0.93557682  0.43696281  0.18649435  1
  Zn  Zn144  1  0.93684957  0.43722493  0.68599295  1
  Zn  Zn145  1  0.93960052  0.93545798  0.18950709  1
  Zn  Zn146  1  0.94090921  0.93648719  0.68432813  1
  Zn  Zn147  1  0.06443401  0.06470356  0.31032762  1
  Zn  Zn148  1  0.06113447  0.06410585  0.81088667  1
  Zn  Zn149  1  0.06128689  0.56524067  0.31438181  1
  Zn  Zn150  1  0.06121143  0.55990484  0.81189917  1
  Zn  Zn151  1  0.56639651  0.06601009  0.30926020  1
  Zn  Zn152  1  0.56154430  0.05542899  0.81637952  1
  Zn  Zn153  1  0.56046501  0.55740246  0.31784884  1
  Zn  Zn154  1  0.56567976  0.56402343  0.81377346  1
  Zn  Zn155  1  0.44436661  0.18960905  0.43130200  1
  Zn  Zn156  1  0.43508776  0.18577265  0.93502084  1
  Zn  Zn157  1  0.43818079  0.68252658  0.43700385  1
  Zn  Zn158  1  0.43413878  0.68421484  0.93662334  1
  Zn  Zn159  1  0.93838577  0.18760488  0.43817075  1
  Zn  Zn160  1  0.93515634  0.18840996  0.93832081  1
  Zn  Zn161  1  0.93316809  0.68427623  0.44143656  1
  Zn  Zn162  1  0.93919807  0.68639967  0.93833057  1
  Zn  Zn163  1  0.06018701  0.31381448  0.06000578  1
  Zn  Zn164  1  0.06210758  0.31556799  0.56250282  1
  Zn  Zn165  1  0.06388363  0.81216647  0.06875682  1
  Zn  Zn166  1  0.05477449  0.81223641  0.56381771  1
  Zn  Zn167  1  0.56718562  0.31706387  0.04733271  1
  Zn  Zn168  1  0.54992667  0.31256259  0.56304870  1
  Zn  Zn169  1  0.56457985  0.81069877  0.06352429  1
  Zn  Zn170  1  0.55488207  0.81350891  0.56199560  1
  O  O171  1  0.11503910  0.12588128  0.11674655  1
  O  O172  1  0.11940275  0.11827369  0.61770277  1
  O  O173  1  0.11874641  0.62057828  0.12013422  1
  O  O174  1  0.12417754  0.61667101  0.61836990  1
  O  O175  1  0.62613997  0.11526470  0.11749485  1
  O  O176  1  0.64054807  0.13296449  0.62532522  1
  O  O177  1  0.61755518  0.62708732  0.11651332  1
  O  O178  1  0.66780436  0.62496606  0.61718345  1
  O  O179  1  0.37536838  0.37876836  0.37494409  1
  O  O180  1  0.36112870  0.37301267  0.88979984  1
  O  O181  1  0.38057216  0.88065492  0.37890845  1
  O  O182  1  0.36865216  0.88468879  0.88951990  1
  O  O183  1  0.87613457  0.37967270  0.37860489  1
  O  O184  1  0.88469980  0.36499915  0.87005387  1
  O  O185  1  0.87423096  0.86563835  0.38723283  1
  O  O186  1  0.88209575  0.88070397  0.88025553  1
  O  O187  1  0.25848208  0.00854578  0.36548701  1
  O  O188  1  0.25486028  0.00544948  0.87234575  1
  O  O189  1  0.24914408  0.50905314  0.36528019  1
  O  O190  1  0.24141494  0.51309868  0.87506713  1
  O  O191  1  0.74543405  0.01469628  0.36172140  1
  O  O192  1  0.76175271  0.00416577  0.87764319  1
  O  O193  1  0.75855614  0.50587050  0.37792815  1
  O  O194  1  0.75297480  0.48755460  0.86133106  1
  O  O195  1  0.24207882  0.49653873  0.13151403  1
  O  O196  1  0.23899087  0.49611769  0.62520005  1
  O  O197  1  0.24915147  1.00168295  0.13784874  1
  O  O198  1  0.23132296  0.99348002  0.62865663  1
  O  O199  1  0.75157145  0.48692371  0.11835700  1
  O  O200  1  0.75841038  0.48371027  0.63692090  1
  O  O201  1  0.74610499  0.99643687  0.13530404  1
  O  O202  1  0.74588212  0.99503029  0.62874265  1
  O  O203  1  0.00638082  0.36949267  0.25519685  1
  O  O204  1  0.00098923  0.36425892  0.75519357  1
  O  O205  1  0.00726324  0.86405758  0.24723960  1
  O  O206  1  0.00940545  0.86731436  0.75550346  1
  O  O207  1  0.50964786  0.36429774  0.24588003  1
  O  O208  1  0.50572924  0.38354672  0.76726941  1
  O  O209  1  0.50567534  0.86752174  0.25506851  1
  O  O210  1  0.51131944  0.87560912  0.74517794  1
  O  O211  1  0.50105154  0.13847324  0.24317663  1
  O  O212  1  0.50499587  0.12886284  0.74939585  1
  O  O213  1  0.49568612  0.62927825  0.24307124  1
  O  O214  1  0.48641955  0.62285848  0.75443926  1
  O  O215  1  1.00637901  0.13426466  0.23954131  1
  O  O216  1  0.99671903  0.13603866  0.74343320  1
  O  O217  1  0.99056725  0.63036554  0.24438938  1
  O  O218  1  0.99029144  0.62940335  0.74950131  1
  O  O219  1  0.37240327  0.25760722  0.00897732  1
  O  O220  1  0.37710755  0.24814541  0.49486599  1
  O  O221  1  0.36772586  0.75945748  0.00189234  1
  O  O222  1  0.37324811  0.76455073  0.48842666  1
  O  O223  1  0.86871955  0.24556700  0.01324078  1
  O  O224  1  0.88564977  0.26457550  0.50598573  1
  O  O225  1  0.86871686  0.75276520  0.00451815  1
  O  O226  1  0.87864697  0.75978174  0.50920794  1
  O  O227  1  0.11560601  0.24566973  0.48511741  1
  O  O228  1  0.12422493  0.24218564  0.99275450  1
  O  O229  1  0.11552212  0.73516996  0.50158873  1
  O  O230  1  0.13144327  0.74417907  0.99683729  1
  O  O231  1  0.62289847  0.25612175  0.48251258  1
  O  O232  1  0.64044775  0.23593425  1.00965929  1
  O  O233  1  0.62190193  0.74514178  0.49159266  1
  O  O234  1  0.63138439  0.74963556  0.99064299  1
  O  O235  1  0.49383294  0.25159248  0.12618528  1
  O  O236  1  0.50202517  0.24573780  0.64051080  1
  O  O237  1  0.49534865  0.73979581  0.12800595  1
  O  O238  1  0.47305883  0.74854244  0.61072057  1
  O  O239  1  0.99486024  0.24528326  0.12980146  1
  O  O240  1  0.99383757  0.24655122  0.63119297  1
  O  O241  1  0.99217132  0.74229355  0.13172343  1
  O  O242  1  0.99397535  0.74446062  0.63620121  1
  O  O243  1  0.00553427  0.25536128  0.36645709  1
  O  O244  1  0.00399077  0.25342221  0.86847298  1
  O  O245  1  0.00069865  0.74094254  0.36329676  1
  O  O246  1  0.00673355  0.75478501  0.86949769  1
  O  O247  1  0.51522942  0.25185840  0.36169153  1
  O  O248  1  0.49641648  0.25451604  0.87313962  1
  O  O249  1  0.50985799  0.75225032  0.36966406  1
  O  O250  1  0.50852056  0.75453891  0.88273453  1
  O  O251  1  0.24202184  0.12540355  0.48352211  1
  O  O252  1  0.23557030  0.12463981  0.99346446  1
  O  O253  1  0.24073151  0.61790260  0.49100915  1
  O  O254  1  0.24752260  0.63488740  0.99349867  1
  O  O255  1  0.75717538  0.12114271  0.48335450  1
  O  O256  1  0.74562148  0.13080182  0.99375254  1
  O  O257  1  0.76398065  0.63382643  0.48082799  1
  O  O258  1  0.73878548  0.63682366  1.00573618  1
  O  O259  1  0.25327906  0.37543985  0.00975685  1
  O  O260  1  0.24944732  0.37674215  0.51614107  1
  O  O261  1  0.24995826  0.86211163  0.00277584  1
  O  O262  1  0.26730726  0.88407168  0.49583461  1
  O  O263  1  0.74756067  0.36222667  0.01002463  1
  O  O264  1  0.75998442  0.38505774  0.50786660  1
  O  O265  1  0.75679374  0.86873556  0.00566279  1
  O  O266  1  0.76396364  0.87208730  0.50050967  1
  O  O267  1  0.13284316  0.49718864  0.24543669  1
  O  O268  1  0.12550543  0.49743554  0.73907822  1
  O  O269  1  0.13252679  0.99311898  0.24966478  1
  O  O270  1  0.11880445  0.99004309  0.74209554  1
  O  O271  1  0.62181433  0.48533071  0.24659750  1
  O  O272  1  0.64103411  0.50457140  0.75433826  1
  O  O273  1  0.63419827  0.99462425  0.24219965  1
  O  O274  1  0.62270442  0.98529291  0.74822690  1
  O  O275  1  0.36881700  -0.00046902  0.25809249  1
  O  O276  1  0.37358555  -0.01184954  0.76612880  1
  O  O277  1  0.36135618  0.50534314  0.24404313  1
  O  O278  1  0.37185863  0.51274946  0.74608971  1
  O  O279  1  0.86083972  -0.00433114  0.24716166  1
  O  O280  1  0.87978924  -0.00024529  0.76228255  1
  O  O281  1  0.88137548  0.50840906  0.26059974  1
  O  O282  1  0.87698100  0.51273669  0.74831092  1
  O  O283  1  0.12238427  0.36953829  0.37062040  1
  O  O284  1  0.12053637  0.36093546  0.87473163  1
  O  O285  1  0.13088972  0.87248352  0.36226923  1
  O  O286  1  0.11966285  0.86944061  0.86893203  1
  O  O287  1  0.63157776  0.36231792  0.36301383  1
  O  O288  1  0.60532317  0.36958672  0.90897089  1
  O  O289  1  0.62292219  0.86610878  0.37017212  1
  O  O290  1  0.62266043  0.86598661  0.87012463  1
  O  O291  1  0.37677769  0.13484084  0.12301561  1
  O  O292  1  0.37741031  0.12485286  0.63527541  1
  O  O293  1  0.38159041  0.63125875  0.12958879  1
  O  O294  1  0.36690158  0.63612178  0.64263422  1
  O  O295  1  0.88821441  0.13131342  0.12047681  1
  O  O296  1  0.88010907  0.13369707  0.62183908  1
  O  O297  1  0.87743954  0.62889767  0.13252048  1
  O  O298  1  0.87280210  0.63796540  0.63398449  1
  O  O299  1  0.25658204  0.25649094  0.12470489  1
  O  O300  1  0.24361448  0.25500552  0.62275191  1
  O  O301  1  0.25666552  0.74831362  0.11645414  1
  O  O302  1  0.26769966  0.75430427  0.62320517  1
  O  O303  1  0.76042913  0.25383688  0.11945289  1
  O  O304  1  0.76468258  0.26483680  0.61760290  1
  O  O305  1  0.75599678  0.75796600  0.11871573  1
  O  O306  1  0.76115453  0.75813367  0.62578977  1
  O  O307  1  0.23892996  0.24214758  0.36189784  1
  O  O308  1  0.23971666  0.24084080  0.87701298  1
  O  O309  1  0.24499469  0.73560039  0.36700513  1
  O  O310  1  0.24423748  0.74338521  0.88217671  1
  O  O311  1  0.74217194  0.23768866  0.36737057  1
  O  O312  1  0.76122644  0.23814890  0.88838071  1
  O  O313  1  0.73669732  0.74391550  0.37364365  1
  O  O314  1  0.74727999  0.75526901  0.88635341  1
  O  O315  1  0.00879361  0.12100307  0.00526240  1
  O  O316  1  0.00540060  0.11774889  0.50365941  1
  O  O317  1  0.00650507  0.61981322  0.00549943  1
  O  O318  1  0.00442310  0.61212218  0.50067172  1
  O  O319  1  0.51553980  0.12928187  0.00016140  1
  O  O320  1  0.50317091  0.10662075  0.48607868  1
  O  O321  1  0.50465783  0.62230004  0.00796883  1
  O  O322  1  0.49366550  0.60876713  0.50007260  1
  O  O323  1  0.49519588  0.38394234  0.49591218  1
  O  O324  1  0.48481638  0.38897609  1.01226367  1
  O  O325  1  0.48915322  0.88146429  0.49070991  1
  O  O326  1  0.48619045  0.87311767  1.00517167  1
  O  O327  1  0.99595831  0.38509550  0.49269856  1
  O  O328  1  1.00145855  0.38361253  0.99050610  1
  O  O329  1  0.98940612  0.88109001  0.49926616  1
  O  O330  1  0.99582197  0.87807124  0.99656680  1
  O  O331  1  0.49326029  0.49383736  0.37858713  1
  O  O332  1  0.49976844  0.51032233  0.89032956  1
  O  O333  1  0.49643072  0.99337780  0.37099299  1
  O  O334  1  0.48239653  1.00185882  0.88083783  1
  O  O335  1  0.99370744  0.49406493  0.37931431  1
  O  O336  1  1.00634751  0.48704674  0.88346949  1
  O  O337  1  1.00404235  1.00551634  0.38663688  1
  O  O338  1  0.99491967  0.99507019  0.88153493  1
  O  O339  1  0.00069765  0.00785645  0.12005614  1
  O  O340  1  0.00807983  0.00569546  0.61709082  1
  O  O341  1  0.00479745  0.50458575  0.11902747  1
  O  O342  1  0.00965913  0.49849841  0.61527409  1
  O  O343  1  0.51311470  0.00077894  0.13117362  1
  O  O344  1  0.50469526  -0.00060529  0.60795540  1
  O  O345  1  0.50084724  0.51323207  0.12196844  1
  O  O346  1  0.49728079  0.49297792  0.61355290  1
  O  O347  1  0.24357128  0.38312979  0.24302930  1
  O  O348  1  0.24447094  0.37502814  0.73687264  1
  O  O349  1  0.24473355  0.88363514  0.24835348  1
  O  O350  1  0.23552707  0.87511858  0.75049507  1
  O  O351  1  0.74226035  0.36886467  0.23668032  1
  O  O352  1  0.75647736  0.38551682  0.73732920  1
  O  O353  1  0.74543876  0.88417904  0.24574565  1
  O  O354  1  0.73611731  0.87825889  0.74992403  1
  O  O355  1  0.24953596  0.11705643  0.25826778  1
  O  O356  1  0.23828061  0.11870742  0.76539821  1
  O  O357  1  0.25208634  0.61764387  0.25423476  1
  O  O358  1  0.25474243  0.62339224  0.75899471  1
  O  O359  1  0.75056961  0.11426528  0.25341614  1
  O  O360  1  0.75449329  0.11895689  0.76912870  1
  O  O361  1  0.76288845  0.63012094  0.25741558  1
  O  O362  1  0.76338885  0.60987717  0.75311897  1
  O  O363  1  0.36899231  0.11871641  0.36722105  1
  O  O364  1  0.36248188  0.10758035  0.88871319  1
  O  O365  1  0.36548198  0.62232150  0.36586095  1
  O  O366  1  0.36553192  0.63200157  0.86114910  1
  O  O367  1  0.86214244  0.13437078  0.36970362  1
  O  O368  1  0.87139359  0.11426590  0.87650067  1
  O  O369  1  0.87049576  0.61668729  0.36676932  1
  O  O370  1  0.87751278  0.62845798  0.86220090  1
  O  O371  1  0.12968256  0.37939845  0.13014977  1
  O  O372  1  0.13309096  0.38184507  0.62453519  1
  O  O373  1  0.12830070  0.87718306  0.13860799  1
  O  O374  1  0.12324320  0.87898668  0.63124229  1
  O  O375  1  0.63569264  0.37566770  0.12957656  1
  O  O376  1  0.64144145  0.36809766  0.61626099  1
  O  O377  1  0.63147046  0.88107716  0.12906584  1
  O  O378  1  0.62424704  0.86672115  0.63702334  1
  O  O379  1  0.11471058  0.25552998  0.25662895  1
  O  O380  1  0.11319446  0.25009945  0.75881091  1
  O  O381  1  0.11442844  0.75637185  0.25135803  1
  O  O382  1  0.11925576  0.75462118  0.75262058  1
  O  O383  1  0.62140101  0.25709056  0.25128426  1
  O  O384  1  0.63176344  0.27266758  0.77762955  1
  O  O385  1  0.62009239  0.75680275  0.25435985  1
  O  O386  1  0.62506026  0.75945411  0.76683330  1
  O  O387  1  0.38463622  0.25013916  0.23610784  1
  O  O388  1  0.37345599  0.23710134  0.75214433  1
  O  O389  1  0.38120225  0.74510555  0.24422373  1
  O  O390  1  0.37721659  0.74752439  0.74531740  1
  O  O391  1  0.88912231  0.25385135  0.24023137  1
  O  O392  1  0.88011160  0.24773508  0.73835213  1
  O  O393  1  0.88061207  0.74344395  0.24546354  1
  O  O394  1  0.88048233  0.74378635  0.74703154  1
  O  O395  1  0.38346529  0.49488007  0.50095245  1
  O  O396  1  0.38194608  0.49322201  1.00412607  1
  O  O397  1  0.38839900  0.99164067  0.48215679  1
  O  O398  1  0.36764141  0.98459589  0.99637160  1
  O  O399  1  0.88530551  0.49132255  0.48686888  1
  O  O400  1  0.88917262  0.50749241  1.00065480  1
  O  O401  1  0.88403415  0.98258676  0.50204618  1
  O  O402  1  0.88114952  0.99467436  0.99204048  1
  O  O403  1  0.11864847  0.00665037  0.00251827  1
  O  O404  1  0.11834745  0.00338290  0.50503989  1
  O  O405  1  0.11833629  0.50704165  0.00674795  1
  O  O406  1  0.11768314  0.50773073  0.50489082  1
  O  O407  1  0.63465874  0.00724673  0.01277251  1
  O  O408  1  0.61201336  -0.00865414  0.49773997  1
  O  O409  1  0.61889182  0.51241538  0.00414067  1
  O  O410  1  0.60576224  0.50555090  0.49518940  1
  O  O411  1  0.36563634  0.36885313  0.12096402  1
  O  O412  1  0.35750213  0.37487042  0.62717692  1
  O  O413  1  0.37165351  0.86952717  0.11443476  1
  O  O414  1  0.37247610  0.86835641  0.61185057  1
  O  O415  1  0.86747198  0.36555007  0.12880297  1
  O  O416  1  0.87488689  0.36916829  0.61482030  1
  O  O417  1  0.87145128  0.86958177  0.11850240  1
  O  O418  1  0.87872518  0.86272944  0.62172536  1
  O  O419  1  0.13236802  0.13345639  0.37757259  1
  O  O420  1  0.12576316  0.13277516  0.88275631  1
  O  O421  1  0.13130081  0.62559418  0.38418836  1
  O  O422  1  0.13045903  0.63142231  0.87977083  1
  O  O423  1  0.63587940  0.13989525  0.36678708  1
  O  O424  1  0.63616126  0.11201002  0.88594422  1
  O  O425  1  0.63479502  0.63214142  0.36590209  1
  O  O426  1  0.62044528  0.64152797  0.88627171  1
