# generated using pymatgen
data_V85Zn86O256
_symmetry_space_group_name_H-M   'P 1'
_cell_length_a   16.95312857
_cell_length_b   16.95945256
_cell_length_c   16.95581126
_cell_angle_alpha   90.09879901
_cell_angle_beta   89.96914596
_cell_angle_gamma   89.94986348
_symmetry_Int_Tables_number   1
_chemical_formula_structural   V85Zn86O256
_chemical_formula_sum   'V85 Zn86 O256'
_cell_volume   4875.05346875
_cell_formula_units_Z   1
loop_
 _symmetry_equiv_pos_site_id
 _symmetry_equiv_pos_as_xyz
  1  'x, y, z'
loop_
 _atom_site_type_symbol
 _atom_site_label
 _atom_site_symmetry_multiplicity
 _atom_site_fract_x
 _atom_site_fract_y
 _atom_site_fract_z
 _atom_site_occupancy
  V  V0  1  0.24870220  0.00194913  0.24275167  1
  V  V1  1  0.50144504  0.00194824  0.50097375  1
  V  V2  1  0.01598991  0.00258579  0.48915895  1
  V  V3  1  0.12289099  0.75249941  0.37415894  1
  V  V4  1  0.37712235  0.37480742  -0.00418172  1
  V  V5  1  0.24975078  0.37285533  0.12603872  1
  V  V6  1  0.12630610  0.74900930  0.87130515  1
  V  V7  1  -0.00154430  0.24162273  0.25335300  1
  V  V8  1  0.50313169  0.37810305  0.36994045  1
  V  V9  1  0.50436722  0.75387739  0.24648998  1
  V  V10  1  0.62739563  0.25384131  0.36689551  1
  V  V11  1  0.37327633  0.13016874  0.25229911  1
  V  V12  1  0.25071046  0.87952522  0.62192102  1
  V  V13  1  0.62616772  0.62223244  -0.00125263  1
  V  V14  1  -0.02146302  0.89249067  0.84911724  1
  V  V15  1  0.64171245  -0.00063925  0.62866686  1
  V  V16  1  0.75491516  0.11411580  0.86580516  1
  V  V17  1  0.87560526  0.24441095  0.12771398  1
  V  V18  1  0.25316415  0.74651556  0.49049236  1
  V  V19  1  0.75026746  0.24927796  -0.00187516  1
  V  V20  1  0.50144292  0.75237294  0.75219837  1
  V  V21  1  0.50463477  0.49419562  -0.00418800  1
  V  V22  1  0.12812233  0.23835406  0.38019191  1
  V  V23  1  0.12791183  0.62478184  -0.00683598  1
  V  V24  1  0.37823211  0.87585862  0.49856050  1
  V  V25  1  0.75229479  0.74933697  -0.00079607  1
  V  V26  1  0.88484084  0.23550323  0.62953652  1
  V  V27  1  0.24908341  0.50968259  0.25482602  1
  V  V28  1  0.24938842  0.37781034  0.62057920  1
  V  V29  1  0.87299828  0.37691251  0.50788745  1
  V  V30  1  0.00881271  -0.00567937  0.00656897  1
  V  V31  1  0.37720415  0.00524919  0.88097972  1
  V  V32  1  0.37205185  0.62655159  0.75479088  1
  V  V33  1  0.37722449  0.25229861  0.62428774  1
  V  V34  1  0.37200409  0.50577232  0.37804179  1
  V  V35  1  0.74662985  0.76019135  0.50200084  1
  V  V36  1  0.86998393  0.75270898  0.62403331  1
  V  V37  1  0.62582212  0.12689051  0.49893329  1
  V  V38  1  0.87550807  0.74707500  0.12533624  1
  V  V39  1  0.50012331  0.12559197  0.11840586  1
  V  V40  1  0.50337217  0.12631117  0.62801702  1
  V  V41  1  0.50735841  0.87791309  0.36876954  1
  V  V42  1  0.37048641  0.00625378  0.37493962  1
  V  V43  1  0.75079748  0.25278376  0.50947607  1
  V  V44  1  -0.00414503  0.37765376  0.37659436  1
  V  V45  1  -0.00186312  0.75536790  0.25479594  1
  V  V46  1  0.12210644  0.50216508  0.12381849  1
  V  V47  1  0.63879023  0.49427287  0.62845722  1
  V  V48  1  0.00853188  0.11975318  0.12817692  1
  V  V49  1  0.24941056  0.24670449  -0.00976128  1
  V  V50  1  0.50387648  0.88324443  0.87864063  1
  V  V51  1  0.11977377  0.37316789  0.75252434  1
  V  V52  1  0.24711674  0.50550540  0.75495644  1
  V  V53  1  0.50091122  0.62119805  0.62912419  1
  V  V54  1  0.00115550  0.74198397  0.73899376  1
  V  V55  1  0.87723037  0.88131440  0.00256271  1
  V  V56  1  0.64196841  0.37716437  0.75534479  1
  V  V57  1  0.62692823  0.75025027  0.87369497  1
  V  V58  1  -0.00435495  0.50590063  0.49723725  1
  V  V59  1  0.50004685  0.26448311  0.75699974  1
  V  V60  1  0.25244921  0.00518495  0.75133562  1
  V  V61  1  0.61991888  -0.00236447  0.12224909  1
  V  V62  1  0.12671894  0.62505076  0.49550361  1
  V  V63  1  0.11941547  0.50617105  0.62401218  1
  V  V64  1  0.74337768  0.87303877  0.13264727  1
  V  V65  1  0.49619989  0.62362241  0.12504928  1
  V  V66  1  0.63096137  0.49312700  0.13966984  1
  V  V67  1  0.63864068  0.88112258  0.74829826  1
  V  V68  1  0.87423550  0.61418615  0.74152501  1
  V  V69  1  0.76094640  0.12494710  0.37309175  1
  V  V70  1  0.62587387  0.62632693  0.50047836  1
  V  V71  1  0.13009770  0.11976541  -0.00892513  1
  V  V72  1  0.12415633  0.37482309  0.25294825  1
  V  V73  1  0.37628548  0.75067750  0.62536688  1
  V  V74  1  0.12844043  0.87185938  0.74422662  1
  V  V75  1  0.87221176  0.61932780  0.25720693  1
  V  V76  1  0.06859838  0.05805862  0.68531044  1
  V  V77  1  0.37372204  0.87564206  -0.00008916  1
  V  V78  1  0.75351906  0.61607030  0.87099199  1
  V  V79  1  0.37660995  0.12870569  0.75667266  1
  V  V80  1  0.37308049  0.50573102  0.87828986  1
  V  V81  1  0.87752426  -0.01306392  0.37253486  1
  V  V82  1  0.24741665  0.23628125  0.49825750  1
  V  V83  1  0.12499631  0.87748951  0.24530361  1
  V  V84  1  0.74869052  0.00316150  0.24825386  1
  Zn  Zn85  1  0.87751261  0.37708419  0.00073631  1
  Zn  Zn86  1  0.37123758  0.63133573  0.25557468  1
  Zn  Zn87  1  -0.00140509  0.49765363  -0.00587915  1
  Zn  Zn88  1  0.37546672  0.37514507  0.49781727  1
  Zn  Zn89  1  0.78793226  0.46650367  0.29846612  1
  Zn  Zn90  1  -0.00029207  0.23691218  0.75013594  1
  Zn  Zn91  1  0.12313321  0.24384945  0.87149435  1
  Zn  Zn92  1  -0.00635413  0.36945076  0.87636438  1
  Zn  Zn93  1  -0.00061385  0.62486050  0.12247551  1
  Zn  Zn94  1  0.74990455  0.37074493  0.13821574  1
  Zn  Zn95  1  0.87614488  0.49454263  0.87629047  1
  Zn  Zn96  1  0.25060785  0.74844451  -0.00335340  1
  Zn  Zn97  1  0.24195609  0.87599903  0.11684241  1
  Zn  Zn98  1  0.74715729  0.62411513  0.37462274  1
  Zn  Zn99  1  0.87966991  0.87463478  0.50004966  1
  Zn  Zn100  1  0.37754483  0.25234033  0.12629951  1
  Zn  Zn101  1  0.50157203  0.25420563  0.24815550  1
  Zn  Zn102  1  0.62412212  0.12200423  -0.00257835  1
  Zn  Zn103  1  0.49772330  0.49754421  0.50230448  1
  Zn  Zn104  1  0.62308583  0.25136617  0.87929144  1
  Zn  Zn105  1  0.62584301  0.75208321  0.37060850  1
  Zn  Zn106  1  0.37200711  0.75148853  0.12378667  1
  Zn  Zn107  1  0.18696634  0.18738159  0.18732866  1
  Zn  Zn108  1  0.19444897  0.19268749  0.68960954  1
  Zn  Zn109  1  0.18818620  0.69116716  0.18104610  1
  Zn  Zn110  1  0.18921795  0.68708333  0.68025164  1
  Zn  Zn111  1  0.68902924  0.18343328  0.18757220  1
  Zn  Zn112  1  0.68958134  0.18932918  0.68971570  1
  Zn  Zn113  1  0.68583026  0.68271499  0.18696013  1
  Zn  Zn114  1  0.68976500  0.68788561  0.68781136  1
  Zn  Zn115  1  0.31256848  0.31650277  0.31532083  1
  Zn  Zn116  1  0.31162163  0.31952239  0.81263297  1
  Zn  Zn117  1  0.31663065  0.81650571  0.30916978  1
  Zn  Zn118  1  0.31315659  0.81563744  0.81504884  1
  Zn  Zn119  1  0.81876948  0.30046935  0.31643604  1
  Zn  Zn120  1  0.81563143  0.30637965  0.81390837  1
  Zn  Zn121  1  0.80739680  0.80836070  0.31297348  1
  Zn  Zn122  1  0.81433309  0.80827375  0.81177732  1
  Zn  Zn123  1  0.18555102  0.43413305  0.43567474  1
  Zn  Zn124  1  0.18684617  0.43749740  0.93719911  1
  Zn  Zn125  1  0.19055177  0.93417268  0.42921145  1
  Zn  Zn126  1  0.18413178  0.93803933  0.92997350  1
  Zn  Zn127  1  0.68518495  0.43747848  0.44250873  1
  Zn  Zn128  1  0.69215136  0.43291475  0.94084094  1
  Zn  Zn129  1  0.68742600  0.94052022  0.43755202  1
  Zn  Zn130  1  0.69039618  0.93920489  0.94157126  1
  Zn  Zn131  1  0.31317651  0.06387485  0.06547064  1
  Zn  Zn132  1  0.31508573  0.06335216  0.56688225  1
  Zn  Zn133  1  0.30786510  0.56369607  0.06243481  1
  Zn  Zn134  1  0.31099977  0.56388987  0.56272406  1
  Zn  Zn135  1  0.81479696  0.06619660  0.06224565  1
  Zn  Zn136  1  0.81725659  0.06248534  0.55534510  1
  Zn  Zn137  1  0.81228448  0.56102189  0.06325488  1
  Zn  Zn138  1  0.81145255  0.56547757  0.55747600  1
  Zn  Zn139  1  0.43667660  0.43975107  0.18823305  1
  Zn  Zn140  1  0.43548474  0.43970951  0.68798231  1
  Zn  Zn141  1  0.43748325  0.94044820  0.18760075  1
  Zn  Zn142  1  0.44307895  0.94013103  0.68998010  1
  Zn  Zn143  1  0.93919328  0.43173903  0.18346091  1
  Zn  Zn144  1  0.93868392  0.43380508  0.68338233  1
  Zn  Zn145  1  0.93518656  0.93691227  0.18957746  1
  Zn  Zn146  1  0.93707524  0.93056054  0.67499253  1
  Zn  Zn147  1  0.06348262  0.06000004  0.31511922  1
  Zn  Zn148  1  -0.07066113  0.05909389  0.82048211  1
  Zn  Zn149  1  0.05919625  0.56650156  0.31353829  1
  Zn  Zn150  1  0.05754898  0.56134946  0.81392533  1
  Zn  Zn151  1  0.56359185  0.06525416  0.30783794  1
  Zn  Zn152  1  0.56700059  0.06655954  0.81322411  1
  Zn  Zn153  1  0.55767104  0.56603710  0.31435745  1
  Zn  Zn154  1  0.56362791  0.55801586  0.81336174  1
  Zn  Zn155  1  0.43822849  0.19083799  0.43706995  1
  Zn  Zn156  1  0.43921931  0.19094386  0.93812029  1
  Zn  Zn157  1  0.44200391  0.68746130  0.43645429  1
  Zn  Zn158  1  0.43943089  0.68844773  0.93851963  1
  Zn  Zn159  1  0.94068278  0.18340998  0.44332681  1
  Zn  Zn160  1  0.94037534  0.19094087  0.94082622  1
  Zn  Zn161  1  0.93913326  0.68933500  0.43836633  1
  Zn  Zn162  1  0.94341691  0.68776338  0.93186063  1
  Zn  Zn163  1  0.06225828  0.31013122  0.06099346  1
  Zn  Zn164  1  0.06221786  0.31116421  0.56375850  1
  Zn  Zn165  1  0.06136796  0.80889279  0.06308788  1
  Zn  Zn166  1  0.06048043  0.81661983  0.56034743  1
  Zn  Zn167  1  0.56441956  0.31263045  0.06528747  1
  Zn  Zn168  1  0.56206862  0.31551998  0.56024025  1
  Zn  Zn169  1  0.56158972  0.81249321  0.06011217  1
  Zn  Zn170  1  0.56444154  0.81537368  0.56500707  1
  O  O171  1  0.11320760  0.12935455  0.11824608  1
  O  O172  1  0.12524688  0.11922342  0.63289851  1
  O  O173  1  0.12276262  0.61711015  0.11786220  1
  O  O174  1  0.12764745  0.61748562  0.61067533  1
  O  O175  1  0.61612118  0.11694890  0.12595578  1
  O  O176  1  0.62138377  0.11981407  0.62099602  1
  O  O177  1  0.61503091  0.61621199  0.11863167  1
  O  O178  1  0.61798858  0.61544467  0.62629412  1
  O  O179  1  0.38165919  0.38745184  0.37713665  1
  O  O180  1  0.36994238  0.38782514  0.88807283  1
  O  O181  1  0.38502764  0.88430897  0.38112734  1
  O  O182  1  0.38329751  0.88398400  0.88067568  1
  O  O183  1  0.88951940  0.36641433  0.38805322  1
  O  O184  1  0.87292656  0.37652191  0.87892507  1
  O  O185  1  0.87002868  0.88388405  0.37484848  1
  O  O186  1  0.88314011  0.85659764  0.89213662  1
  O  O187  1  0.26561397  -0.00482759  0.36589941  1
  O  O188  1  0.25977397  -0.00665402  0.85747326  1
  O  O189  1  0.25664404  0.49408584  0.36536691  1
  O  O190  1  0.25713904  0.49852896  0.86443694  1
  O  O191  1  0.75476406  0.00520575  0.36820629  1
  O  O192  1  0.74985333  0.01466651  0.88015104  1
  O  O193  1  0.75048510  0.51138628  0.39014955  1
  O  O194  1  0.75061904  0.51365969  0.87955801  1
  O  O195  1  0.24048208  0.49139889  0.13039667  1
  O  O196  1  0.24115216  0.49504983  0.63014513  1
  O  O197  1  0.25568118  0.99442288  0.13887588  1
  O  O198  1  0.26095449  0.98642085  0.63394327  1
  O  O199  1  0.73391374  0.50057722  0.12444862  1
  O  O200  1  0.73660888  0.50327169  0.62415129  1
  O  O201  1  0.74753041  0.99344122  0.13145776  1
  O  O202  1  0.74072027  1.00438358  0.62059377  1
  O  O203  1  0.00398950  0.36690950  0.25889695  1
  O  O204  1  0.01140736  0.37207915  0.74701256  1
  O  O205  1  0.00585343  0.86295819  0.24718104  1
  O  O206  1  0.01411335  0.86183445  0.74114525  1
  O  O207  1  0.49464177  0.37393238  0.26419085  1
  O  O208  1  0.50177913  0.36661163  0.74655903  1
  O  O209  1  0.49478979  0.86849703  0.25777849  1
  O  O210  1  0.50502643  0.87012188  0.76140646  1
  O  O211  1  0.48875489  0.12768932  0.24250306  1
  O  O212  1  0.49525618  0.13449958  0.74434770  1
  O  O213  1  0.49487760  0.63191991  0.24036083  1
  O  O214  1  0.49488228  0.63015193  0.74578336  1
  O  O215  1  1.00769883  0.13084371  0.24273617  1
  O  O216  1  1.00761530  0.11233833  0.74884340  1
  O  O217  1  0.99005146  0.63618313  0.24746962  1
  O  O218  1  0.98604748  0.63093882  0.75084728  1
  O  O219  1  0.36868671  0.25926563  0.00201102  1
  O  O220  1  0.36700557  0.25284341  0.50596278  1
  O  O221  1  0.37198253  0.76128680  -0.00405757  1
  O  O222  1  0.36982034  0.75373163  0.50344280  1
  O  O223  1  0.86501723  0.24942583  0.00932195  1
  O  O224  1  0.87044697  0.25429022  0.50759609  1
  O  O225  1  0.87280829  0.75206342  0.00971532  1
  O  O226  1  0.86634803  0.74830024  0.50604568  1
  O  O227  1  0.13427314  0.25506944  0.49281548  1
  O  O228  1  0.13480754  0.24166003  0.99936458  1
  O  O229  1  0.13094224  0.74602171  0.49378215  1
  O  O230  1  0.12263715  0.74466875  0.98809435  1
  O  O231  1  0.63378406  0.24568706  0.49659081  1
  O  O232  1  0.63686693  0.24755958  1.00171705  1
  O  O233  1  0.63006901  0.74386412  0.50281172  1
  O  O234  1  0.63064170  0.74302378  0.99313397  1
  O  O235  1  0.49891551  0.24281119  0.13003746  1
  O  O236  1  0.49507633  0.24582509  0.63092911  1
  O  O237  1  0.49780818  0.74219632  0.12852368  1
  O  O238  1  0.49617400  0.74159881  0.63210719  1
  O  O239  1  0.99762947  0.24187749  0.13457899  1
  O  O240  1  0.98977498  0.24638109  0.62580921  1
  O  O241  1  0.98998383  0.74769605  0.13331438  1
  O  O242  1  0.99381490  0.74898649  0.63251494  1
  O  O243  1  0.00601772  0.25269689  0.37118944  1
  O  O244  1  0.00485773  0.24980692  0.86772290  1
  O  O245  1  0.01003243  0.74837382  0.36797621  1
  O  O246  1  0.00677850  0.76122575  0.85750570  1
  O  O247  1  0.51030053  0.25779199  0.37432222  1
  O  O248  1  0.50480659  0.24679029  0.86271655  1
  O  O249  1  0.49993947  0.76045797  0.36652283  1
  O  O250  1  0.50819034  0.75680109  0.86983538  1
  O  O251  1  0.25357994  0.13714461  0.50656022  1
  O  O252  1  0.24352573  0.13646360  1.01108726  1
  O  O253  1  0.24239291  0.63732914  0.50476207  1
  O  O254  1  0.23440638  0.62774807  1.00151004  1
  O  O255  1  0.74373148  0.13118840  0.49194982  1
  O  O256  1  0.74914829  0.13567480  0.99632667  1
  O  O257  1  0.73600071  0.63482546  0.50377831  1
  O  O258  1  0.74494009  0.63160870  0.99369421  1
  O  O259  1  0.25519116  0.36976737  0.00770214  1
  O  O260  1  0.24922558  0.37343966  0.51287022  1
  O  O261  1  0.25864385  0.87619040  -0.00361029  1
  O  O262  1  0.25744770  0.87034530  0.50544699  1
  O  O263  1  0.75065108  0.35908391  0.00840165  1
  O  O264  1  0.76080640  0.36387353  0.49515821  1
  O  O265  1  0.75834109  0.86850373  0.00859310  1
  O  O266  1  0.74860890  0.86285724  0.49644672  1
  O  O267  1  0.13025748  0.49686851  0.24566732  1
  O  O268  1  0.13095103  0.49818174  0.74169677  1
  O  O269  1  0.13617799  0.98938797  0.26015710  1
  O  O270  1  0.13403177  0.99225430  0.74129279  1
  O  O271  1  0.62170930  0.50709328  0.23790165  1
  O  O272  1  0.62126505  0.48784547  0.74061191  1
  O  O273  1  0.63887598  1.00258931  0.24068379  1
  O  O274  1  0.61981486  0.99276572  0.73990921  1
  O  O275  1  0.36934105  0.00738304  0.25704333  1
  O  O276  1  0.37159738  0.00900980  0.75692608  1
  O  O277  1  0.36510397  0.50251290  0.25699235  1
  O  O278  1  0.36805972  0.50451204  0.75902392  1
  O  O279  1  0.86203688  -0.00473509  0.25765025  1
  O  O280  1  0.90990898  -0.04531919  0.78198142  1
  O  O281  1  0.88104689  0.51519043  0.24430267  1
  O  O282  1  0.87737730  0.51235308  0.74381254  1
  O  O283  1  0.11388607  0.36810347  0.37035196  1
  O  O284  1  0.13052684  0.37460317  0.85937587  1
  O  O285  1  0.13045789  0.85947887  0.36335971  1
  O  O286  1  0.11287073  0.87417580  0.85674423  1
  O  O287  1  0.61685165  0.36559006  0.38212673  1
  O  O288  1  0.63053503  0.37515754  0.85965707  1
  O  O289  1  0.61072953  0.87601236  0.37913599  1
  O  O290  1  0.61971448  0.87385395  0.87140396  1
  O  O291  1  0.38369616  0.12685649  0.13281860  1
  O  O292  1  0.38288607  0.13189698  0.63667416  1
  O  O293  1  0.38792642  0.62334745  0.12156787  1
  O  O294  1  0.38254384  0.63077986  0.63185677  1
  O  O295  1  0.89059621  0.13591389  0.11905419  1
  O  O296  1  0.87441271  0.13679648  0.62119443  1
  O  O297  1  0.87403611  0.63588047  0.13342206  1
  O  O298  1  0.86984965  0.63301278  0.63616074  1
  O  O299  1  0.25064373  0.26379183  0.12071395  1
  O  O300  1  0.25704103  0.26019525  0.61909056  1
  O  O301  1  0.25510186  0.75726559  0.11816596  1
  O  O302  1  0.25816673  0.76058399  0.61627927  1
  O  O303  1  0.75861876  0.24498715  0.11944786  1
  O  O304  1  0.75831748  0.24484239  0.61340418  1
  O  O305  1  0.75360713  0.75563689  0.12089812  1
  O  O306  1  0.75744987  0.74585057  0.61569096  1
  O  O307  1  0.24112589  0.25958561  0.38762274  1
  O  O308  1  0.25006412  0.25501465  0.88728680  1
  O  O309  1  0.24782567  0.75506718  0.38577206  1
  O  O310  1  0.23074019  0.76020373  0.87204208  1
  O  O311  1  0.74545181  0.24050141  0.38491588  1
  O  O312  1  0.74839463  0.24275250  0.88781866  1
  O  O313  1  0.74400035  0.74451313  0.38434206  1
  O  O314  1  0.74482403  0.74088581  0.88070190  1
  O  O315  1  0.00993644  0.11506830  0.00675632  1
  O  O316  1  -0.00355454  0.10222973  0.49949145  1
  O  O317  1  0.01219252  0.62412474  0.00198206  1
  O  O318  1  0.00708873  0.61321150  0.49498191  1
  O  O319  1  0.50015830  0.12893588  0.01404078  1
  O  O320  1  0.50676622  0.12270931  0.50665328  1
  O  O321  1  0.50703271  0.61791735  0.00546412  1
  O  O322  1  0.50983842  0.62743643  0.51255880  1
  O  O323  1  0.49618548  0.37720264  0.48872883  1
  O  O324  1  0.49016489  0.38304263  1.00586367  1
  O  O325  1  0.49488409  0.88167056  0.49475337  1
  O  O326  1  0.49456143  0.87198853  0.98472822  1
  O  O327  1  0.99683228  0.38411664  0.49473826  1
  O  O328  1  0.99955817  0.37680726  0.99767896  1
  O  O329  1  0.99694613  0.89394799  0.50790435  1
  O  O330  1  0.99395135  0.88026674  1.00160676  1
  O  O331  1  0.49352981  0.49415898  0.37847807  1
  O  O332  1  0.49264633  0.50344747  0.88875165  1
  O  O333  1  0.49418808  0.99581873  0.37846815  1
  O  O334  1  0.49084172  0.99404987  0.86869600  1
  O  O335  1  1.00550518  0.49026317  0.38424916  1
  O  O336  1  0.99630394  0.49161551  0.87494684  1
  O  O337  1  0.99101013  0.99891422  0.38026841  1
  O  O338  1  1.00027671  0.99047471  0.89448573  1
  O  O339  1  -0.00443654  0.00585506  0.11751619  1
  O  O340  1  0.00931320  0.00295982  0.62107380  1
  O  O341  1  0.01450760  0.50057477  0.12723080  1
  O  O342  1  0.01433100  0.49500489  0.61522605  1
  O  O343  1  0.51017202  0.00927404  0.13222617  1
  O  O344  1  0.50276423  0.00984297  0.61838987  1
  O  O345  1  0.50717650  0.50531292  0.11661788  1
  O  O346  1  0.50164289  0.51254790  0.62647450  1
  O  O347  1  0.24491035  0.38335913  0.24244266  1
  O  O348  1  0.24600051  0.38627116  0.73921890  1
  O  O349  1  0.24356400  0.88267201  0.24730324  1
  O  O350  1  0.24723159  0.88080933  0.74166586  1
  O  O351  1  0.76174175  0.37160178  0.25206264  1
  O  O352  1  0.73940417  0.36993354  0.74658637  1
  O  O353  1  0.75126759  0.87863145  0.23732681  1
  O  O354  1  0.73743631  0.87240229  0.75739727  1
  O  O355  1  0.26259125  0.11837863  0.24367360  1
  O  O356  1  0.26353451  0.11679830  0.74378600  1
  O  O357  1  0.25099053  0.61291374  0.24295504  1
  O  O358  1  0.25624937  0.61350495  0.74161595  1
  O  O359  1  0.74880524  0.11626415  0.26071664  1
  O  O360  1  0.74786294  0.12827727  0.76646379  1
  O  O361  1  0.76642961  0.63043688  0.25144732  1
  O  O362  1  0.76405665  0.63106584  0.75762780  1
  O  O363  1  0.38217608  0.11701933  0.36659993  1
  O  O364  1  0.38094015  0.12000829  0.86484844  1
  O  O365  1  0.38144821  0.61113226  0.37441798  1
  O  O366  1  0.37782475  0.61428858  0.87142269  1
  O  O367  1  0.86364499  0.11754944  0.38015670  1
  O  O368  1  0.86331388  0.12766397  0.87882943  1
  O  O369  1  0.87648101  0.63067818  0.35930102  1
  O  O370  1  0.86901588  0.62593978  0.86209195  1
  O  O371  1  0.13182561  0.38128630  0.13207271  1
  O  O372  1  0.13195039  0.38229923  0.63269238  1
  O  O373  1  0.12400272  0.86802795  0.14054431  1
  O  O374  1  0.13830669  0.86683109  0.63383260  1
  O  O375  1  0.62534933  0.38972669  0.12724643  1
  O  O376  1  0.62046532  0.38929042  0.63187812  1
  O  O377  1  0.63336687  0.88139925  0.11958517  1
  O  O378  1  0.61928085  0.88719458  0.63637025  1
  O  O379  1  0.11825757  0.25632554  0.25669683  1
  O  O380  1  0.12569272  0.25979312  0.75036534  1
  O  O381  1  0.11811177  0.75076708  0.25680419  1
  O  O382  1  0.12080306  0.75197737  0.74989718  1
  O  O383  1  0.62605162  0.24496296  0.26446272  1
  O  O384  1  0.61800456  0.26547898  0.74583931  1
  O  O385  1  0.60985095  0.74371804  0.25004516  1
  O  O386  1  0.62029368  0.75789924  0.75441728  1
  O  O387  1  0.37413634  0.24296266  0.24963750  1
  O  O388  1  0.38064647  0.24702809  0.74802206  1
  O  O389  1  0.38575243  0.74872948  0.24588246  1
  O  O390  1  0.37974984  0.74608958  0.74754349  1
  O  O391  1  0.89157354  0.24462522  0.24582666  1
  O  O392  1  0.87681505  0.25105550  0.73250930  1
  O  O393  1  0.88091469  0.74601194  0.24440077  1
  O  O394  1  0.88305926  0.74357868  0.74191569  1
  O  O395  1  0.37512582  0.49915604  0.49347305  1
  O  O396  1  0.37908174  0.49625870  0.99439621  1
  O  O397  1  0.38108190  0.99812666  0.49308000  1
  O  O398  1  0.36812645  0.99789160  0.98514313  1
  O  O399  1  0.88574338  0.49270184  0.50912981  1
  O  O400  1  0.87849707  0.49793840  0.99995050  1
  O  O401  1  0.87653873  0.99438567  0.48698694  1
  O  O402  1  0.88084924  0.98510386  1.00821161  1
  O  O403  1  0.12040069  0.00415013  0.00135039  1
  O  O404  1  0.11624271  -0.00202186  0.48623405  1
  O  O405  1  0.12612511  0.50679354  0.00749585  1
  O  O406  1  0.12201583  0.50791316  0.50412180  1
  O  O407  1  0.63078808  0.00302201  0.01715860  1
  O  O408  1  0.61978911  0.00659310  0.50752416  1
  O  O409  1  0.61809384  0.50298496  0.00316260  1
  O  O410  1  0.61992772  0.50732674  0.51593464  1
  O  O411  1  0.36637849  0.37845420  0.11474866  1
  O  O412  1  0.36645645  0.37110339  0.62431452  1
  O  O413  1  0.38095553  0.87966107  0.10623629  1
  O  O414  1  0.37336499  0.86950936  0.61936295  1
  O  O415  1  0.87591028  0.35721571  0.12441872  1
  O  O416  1  0.88020104  0.36363410  0.61164146  1
  O  O417  1  0.86761960  0.86330703  0.12086741  1
  O  O418  1  0.87155055  0.85826529  0.62059674  1
  O  O419  1  0.12592805  0.13952938  0.37114510  1
  O  O420  1  0.13037191  0.12396049  0.89204385  1
  O  O421  1  0.12454429  0.63472592  0.38633419  1
  O  O422  1  0.11897456  0.63651082  0.87931169  1
  O  O423  1  0.63073029  0.13138223  0.38209306  1
  O  O424  1  0.63606841  0.12898800  0.87907740  1
  O  O425  1  0.61899332  0.62923587  0.38902014  1
  O  O426  1  0.63233323  0.62905882  0.87695835  1
