# generated using pymatgen
data_V85Zn86O256
_symmetry_space_group_name_H-M   'P 1'
_cell_length_a   16.97449767
_cell_length_b   17.00283611
_cell_length_c   16.97837283
_cell_angle_alpha   89.86464616
_cell_angle_beta   90.15156497
_cell_angle_gamma   90.08055054
_symmetry_Int_Tables_number   1
_chemical_formula_structural   V85Zn86O256
_chemical_formula_sum   'V85 Zn86 O256'
_cell_volume   4900.17069910
_cell_formula_units_Z   1
loop_
 _symmetry_equiv_pos_site_id
 _symmetry_equiv_pos_as_xyz
  1  'x, y, z'
loop_
 _atom_site_type_symbol
 _atom_site_label
 _atom_site_symmetry_multiplicity
 _atom_site_fract_x
 _atom_site_fract_y
 _atom_site_fract_z
 _atom_site_occupancy
  V  V0  1  0.12146028  0.75173230  0.87083949  1
  V  V1  1  0.62358145  0.62463850  0.50336052  1
  V  V2  1  0.62319399  0.87947432  0.74318497  1
  V  V3  1  0.11775934  0.12340271  -0.00235257  1
  V  V4  1  0.24955346  0.62760504  0.37718996  1
  V  V5  1  0.25109300  0.12908196  0.36956634  1
  V  V6  1  0.62455756  0.62475291  -0.00134065  1
  V  V7  1  0.50301302  0.87360324  0.37555607  1
  V  V8  1  0.63306616  0.87085486  0.24496008  1
  V  V9  1  0.62558632  0.12656933  0.49947319  1
  V  V10  1  0.38127994  0.26476127  0.63052752  1
  V  V11  1  0.43700387  0.17628208  0.29465051  1
  V  V12  1  0.74812950  0.38759669  0.62820325  1
  V  V13  1  0.62414535  0.74939476  0.87502726  1
  V  V14  1  0.50347565  -0.00167873  -0.00045092  1
  V  V15  1  0.76338557  0.75534530  0.00890224  1
  V  V16  1  0.12934417  0.50004414  0.62437631  1
  V  V17  1  0.25120092  0.12545287  0.87683082  1
  V  V18  1  0.37782193  0.12910009  0.74959103  1
  V  V19  1  0.86871831  0.49662738  0.86370396  1
  V  V20  1  0.24956796  0.87739497  0.62402951  1
  V  V21  1  0.50362225  0.12039725  0.12508095  1
  V  V22  1  -0.00711502  0.74645563  0.24890040  1
  V  V23  1  0.12307531  0.87921856  0.74035182  1
  V  V24  1  0.75600661  0.86057163  0.62740756  1
  V  V25  1  0.49023335  0.75110360  0.74629162  1
  V  V26  1  0.24226382  0.36231061  0.12425180  1
  V  V27  1  0.38145281  0.00010447  0.36992637  1
  V  V28  1  0.25113803  0.75241423  0.50373200  1
  V  V29  1  0.87085898  0.12519925  0.75453850  1
  V  V30  1  0.49963667  0.87473971  0.87309059  1
  V  V31  1  0.49585563  0.62037352  0.12428532  1
  V  V32  1  0.50628970  -0.00018707  0.51015965  1
  V  V33  1  0.87482961  0.24824482  0.62078684  1
  V  V34  1  0.74712011  0.00291582  0.74439926  1
  V  V35  1  0.87313766  0.85977437  0.50045727  1
  V  V36  1  0.63366423  0.24678997  0.87176688  1
  V  V37  1  0.50028547  0.49452142  0.00148080  1
  V  V38  1  0.37364086  0.00345869  0.87636815  1
  V  V39  1  0.25356852  0.26565353  0.51048133  1
  V  V40  1  0.37134621  0.62680417  0.25111817  1
  V  V41  1  0.74719285  0.62237458  0.37327292  1
  V  V42  1  0.37352214  0.75081292  0.12287580  1
  V  V43  1  0.12326606  0.50161503  0.12292486  1
  V  V44  1  0.87213806  0.37688500  0.49561072  1
  V  V45  1  -0.00119214  0.50163007  0.50068992  1
  V  V46  1  -0.00785674  0.63031785  0.62166310  1
  V  V47  1  0.12102849  0.62596051  -0.00133721  1
  V  V48  1  0.11763414  0.37606454  0.25460377  1
  V  V49  1  0.13286667  0.11415313  0.50736737  1
  V  V50  1  0.13138883  0.00471747  0.12551446  1
  V  V51  1  0.37336422  0.87761498  -0.00000057  1
  V  V52  1  0.86999797  0.50310983  0.36709674  1
  V  V53  1  0.12741343  0.87508489  0.25463268  1
  V  V54  1  0.12959732  0.37589160  0.74543575  1
  V  V55  1  0.64230801  0.12193760  -0.00589053  1
  V  V56  1  -0.01783010  0.00799329  0.49182034  1
  V  V57  1  0.64261779  -0.01099976  0.12069541  1
  V  V58  1  0.12541526  0.25011397  0.87494737  1
  V  V59  1  -0.00013922  0.24903828  0.74932834  1
  V  V60  1  0.25143841  0.87762882  0.12510198  1
  V  V61  1  0.74901040  0.24639869  0.49446541  1
  V  V62  1  0.37750986  0.87425410  0.50742219  1
  V  V63  1  -0.00574315  0.37374570  0.87662668  1
  V  V64  1  -0.00398225  0.87565721  0.86815118  1
  V  V65  1  0.48692443  0.63173520  0.62248075  1
  V  V66  1  0.00615060  0.11641874  0.62565603  1
  V  V67  1  -0.01185809  0.74979067  0.74318800  1
  V  V68  1  0.49092968  0.49233458  0.50082691  1
  V  V69  1  0.24401038  0.00215958  0.74608058  1
  V  V70  1  0.75426577  0.26767453  0.01635532  1
  V  V71  1  0.74718256  0.61994588  0.86717731  1
  V  V72  1  0.24532609  0.75165526  -0.00044779  1
  V  V73  1  -0.01433643  -0.03172758  0.01694728  1
  V  V74  1  0.50593628  0.12690859  0.63384783  1
  V  V75  1  -0.01197100  0.49774770  -0.00126291  1
  V  V76  1  0.24847579  0.62207326  0.87022081  1
  V  V77  1  0.50112514  0.36850928  0.87102638  1
  V  V78  1  0.24805323  0.50204012  0.24961507  1
  V  V79  1  0.87036977  0.00075023  0.87928716  1
  V  V80  1  0.12226015  0.25338388  0.38276556  1
  V  V81  1  0.42159206  0.26819332  0.13308759  1
  V  V82  1  0.63090436  0.74993054  0.38119518  1
  V  V83  1  0.63487072  0.49807250  0.14198532  1
  V  V84  1  0.37047234  0.37800848  0.00133352  1
  Zn  Zn85  1  0.64146639  0.26943643  0.33755102  1
  Zn  Zn86  1  0.62641163  0.37779037  0.75340520  1
  Zn  Zn87  1  0.49943691  0.75035121  0.24938102  1
  Zn  Zn88  1  -0.00781030  0.62935258  0.12216874  1
  Zn  Zn89  1  0.76641373  -0.01061655  0.25904598  1
  Zn  Zn90  1  0.36865198  0.62771761  0.74726353  1
  Zn  Zn91  1  0.88621929  0.11196475  0.25924376  1
  Zn  Zn92  1  0.25609444  0.00517553  0.24931474  1
  Zn  Zn93  1  0.12395987  0.62992041  0.50133453  1
  Zn  Zn94  1  -0.01806161  0.88034720  0.36660978  1
  Zn  Zn95  1  0.37405530  0.49909220  0.87174838  1
  Zn  Zn96  1  0.85878200  0.62849985  0.23534603  1
  Zn  Zn97  1  -0.01108701  0.12279217  0.12218241  1
  Zn  Zn98  1  0.77383818  0.10483223  0.38110693  1
  Zn  Zn99  1  0.25557614  0.24466468  0.00369253  1
  Zn  Zn100  1  0.86429119  0.62486686  0.74089678  1
  Zn  Zn101  1  0.37139135  0.47650906  0.38991362  1
  Zn  Zn102  1  0.12297778  0.75367729  0.37647049  1
  Zn  Zn103  1  0.62265853  0.50769894  0.63311535  1
  Zn  Zn104  1  -0.00171382  0.37855762  0.37349121  1
  Zn  Zn105  1  -0.08878220  0.25390525  0.15843398  1
  Zn  Zn106  1  0.25435151  0.49563615  0.74550677  1
  Zn  Zn107  1  0.10463866  0.18977900  0.19652618  1
  Zn  Zn108  1  0.19052620  0.19071248  0.68735834  1
  Zn  Zn109  1  0.18167989  0.69034347  0.18682797  1
  Zn  Zn110  1  0.18115876  0.69067622  0.68424735  1
  Zn  Zn111  1  0.69625909  0.16540926  0.18930478  1
  Zn  Zn112  1  0.68773646  0.19189239  0.68876152  1
  Zn  Zn113  1  0.68354522  0.68824294  0.18699392  1
  Zn  Zn114  1  0.67800874  0.68892264  0.69002526  1
  Zn  Zn115  1  0.30450690  0.31246876  0.31137790  1
  Zn  Zn116  1  0.31248530  0.31176265  0.81336111  1
  Zn  Zn117  1  0.31240809  0.81311122  0.31448216  1
  Zn  Zn118  1  0.30876318  0.81394027  0.81437389  1
  Zn  Zn119  1  0.80977348  0.32436729  0.25142214  1
  Zn  Zn120  1  0.81114209  0.31095597  0.81223384  1
  Zn  Zn121  1  0.81098143  0.80871574  0.31691091  1
  Zn  Zn122  1  0.80988411  0.81230936  0.81917198  1
  Zn  Zn123  1  0.18842484  0.44321315  0.43971846  1
  Zn  Zn124  1  0.18360089  0.43799180  0.93562642  1
  Zn  Zn125  1  0.19087748  0.94280035  0.43679584  1
  Zn  Zn126  1  0.18136858  0.93846376  0.93468583  1
  Zn  Zn127  1  0.67709379  0.43683860  0.33372573  1
  Zn  Zn128  1  0.68548149  0.43592042  0.94297111  1
  Zn  Zn129  1  0.68901556  0.93358266  0.44803716  1
  Zn  Zn130  1  0.69114472  0.93285947  0.93336689  1
  Zn  Zn131  1  0.31755780  0.07160040  0.06692336  1
  Zn  Zn132  1  0.31638444  0.06306313  0.56258176  1
  Zn  Zn133  1  0.30827849  0.56126818  0.06166347  1
  Zn  Zn134  1  0.31251628  0.56464840  0.56438992  1
  Zn  Zn135  1  0.81936535  0.06900352  0.07342335  1
  Zn  Zn136  1  0.81193317  0.06133562  0.56891464  1
  Zn  Zn137  1  0.80892439  0.56557783  0.05826904  1
  Zn  Zn138  1  0.81120576  0.56754199  0.55421029  1
  Zn  Zn139  1  0.42326207  0.42261473  0.21878316  1
  Zn  Zn140  1  0.44235171  0.44570349  0.69231392  1
  Zn  Zn141  1  0.44453604  0.93765050  0.18927633  1
  Zn  Zn142  1  0.43381115  0.94178225  0.68888054  1
  Zn  Zn143  1  0.93390520  0.44249260  0.18307119  1
  Zn  Zn144  1  0.93989561  0.43651186  0.68538816  1
  Zn  Zn145  1  0.94000224  0.93333345  0.18273436  1
  Zn  Zn146  1  0.93252155  0.93990548  0.68419724  1
  Zn  Zn147  1  0.06044654  0.06012068  0.31785804  1
  Zn  Zn148  1  0.05903023  0.05991392  0.81498519  1
  Zn  Zn149  1  0.06277765  0.56460279  0.31602597  1
  Zn  Zn150  1  0.05898167  0.56264587  0.80903475  1
  Zn  Zn151  1  0.60424130  0.04735577  0.32661859  1
  Zn  Zn152  1  0.56398979  0.06382402  0.81361509  1
  Zn  Zn153  1  0.55280304  0.56525806  0.31754461  1
  Zn  Zn154  1  0.55990896  0.55795268  0.80956352  1
  Zn  Zn155  1  0.44338656  0.19760118  0.46027692  1
  Zn  Zn156  1  0.44445984  0.19116038  0.94570727  1
  Zn  Zn157  1  0.43414244  0.68994644  0.43794110  1
  Zn  Zn158  1  0.43523703  0.68816490  0.93683967  1
  Zn  Zn159  1  0.91565023  0.21599086  0.38556023  1
  Zn  Zn160  1  0.93078515  0.18864053  0.94028330  1
  Zn  Zn161  1  0.93834888  0.68889332  0.43165152  1
  Zn  Zn162  1  0.93402829  0.68449276  0.93188945  1
  Zn  Zn163  1  0.06387013  0.31379175  0.05599462  1
  Zn  Zn164  1  0.06102406  0.31199161  0.56166295  1
  Zn  Zn165  1  0.05141450  0.81628976  0.06836354  1
  Zn  Zn166  1  0.06031179  0.81655540  0.55981205  1
  Zn  Zn167  1  0.62106328  0.31620510  0.18125010  1
  Zn  Zn168  1  0.60381596  0.35180637  0.50643140  1
  Zn  Zn169  1  0.56286442  0.80842762  0.06194185  1
  Zn  Zn170  1  0.56555940  0.81059440  0.56554045  1
  O  O171  1  0.13857813  0.11239799  0.11301070  1
  O  O172  1  0.11715574  0.13240731  0.61975956  1
  O  O173  1  0.12108269  0.61841628  0.11510946  1
  O  O174  1  0.11185757  0.61774586  0.62295037  1
  O  O175  1  0.62272314  0.10399549  0.11069836  1
  O  O176  1  0.61025708  0.13120461  0.62607379  1
  O  O177  1  0.61369094  0.61863048  0.11891246  1
  O  O178  1  0.61374679  0.62896753  0.61820223  1
  O  O179  1  0.38334970  0.38897072  0.32312525  1
  O  O180  1  0.37978977  0.37181178  0.88626190  1
  O  O181  1  0.38220749  0.88196443  0.38522159  1
  O  O182  1  0.37861679  0.88229798  0.88139341  1
  O  O183  1  0.87604522  0.38599317  0.38749821  1
  O  O184  1  0.88643844  0.38020500  0.86775096  1
  O  O185  1  0.86691913  0.87324542  0.39525717  1
  O  O186  1  0.88665931  0.88339163  0.87085588  1
  O  O187  1  0.26602820  0.01165712  0.37954042  1
  O  O188  1  0.25446347  0.00702660  0.86962228  1
  O  O189  1  0.25504676  0.51004735  0.37107383  1
  O  O190  1  0.24778248  0.51016816  0.87207467  1
  O  O191  1  0.71153855  0.00687377  0.36831767  1
  O  O192  1  0.76522568  -0.00927071  0.86456276  1
  O  O193  1  0.75787119  0.50888958  0.37354041  1
  O  O194  1  0.75844234  0.50568510  0.88206295  1
  O  O195  1  0.23498739  0.49613594  0.12592972  1
  O  O196  1  0.23352822  0.50764947  0.62596932  1
  O  O197  1  0.25020420  0.99575473  0.12620225  1
  O  O198  1  0.25623458  0.98798715  0.63105795  1
  O  O199  1  0.73223265  0.51109057  0.12716505  1
  O  O200  1  0.75390588  0.48879020  0.61950797  1
  O  O201  1  0.74382573  0.99144642  0.12162971  1
  O  O202  1  0.75422113  0.98858966  0.64106369  1
  O  O203  1  0.01533477  0.38597750  0.25504093  1
  O  O204  1  0.00726231  0.36732436  0.75528724  1
  O  O205  1  0.01073339  0.86446830  0.25160540  1
  O  O206  1  0.00481765  0.87204834  0.75048843  1
  O  O207  1  0.48559585  0.33463038  0.18201512  1
  O  O208  1  0.49728181  0.37584432  0.76874788  1
  O  O209  1  0.50784199  0.87165484  0.26111363  1
  O  O210  1  0.50529468  0.87255618  0.75158935  1
  O  O211  1  0.49746785  0.11195452  0.24262669  1
  O  O212  1  0.48711629  0.11918508  0.74764251  1
  O  O213  1  0.48795456  0.62807111  0.24229366  1
  O  O214  1  0.49744463  0.63646463  0.74303621  1
  O  O215  1  1.01760610  0.12606102  0.24163062  1
  O  O216  1  0.99568072  0.12990362  0.74366507  1
  O  O217  1  1.00375790  0.64075580  0.25442388  1
  O  O218  1  0.99747396  0.63530615  0.74113222  1
  O  O219  1  0.38074104  0.26463608  0.01713186  1
  O  O220  1  0.36360797  0.25131812  0.51679178  1
  O  O221  1  0.36649757  0.75838432  0.00302542  1
  O  O222  1  0.36209975  0.76284090  0.49518169  1
  O  O223  1  0.85271781  0.24111270  0.00117594  1
  O  O224  1  0.86877517  0.25650812  0.50306884  1
  O  O225  1  0.86257497  0.74429714  -0.00447821  1
  O  O226  1  0.88023070  0.76169518  0.50355481  1
  O  O227  1  0.13968425  0.24572953  0.50196388  1
  O  O228  1  0.12944468  0.24066259  0.98885361  1
  O  O229  1  0.13717159  0.75439945  0.49731088  1
  O  O230  1  0.12529388  0.74217873  0.99497785  1
  O  O231  1  0.64451910  0.24102787  0.51864503  1
  O  O232  1  0.64374476  0.23291107  0.98911924  1
  O  O233  1  0.61638397  0.73943453  0.49164209  1
  O  O234  1  0.62155913  0.73635192  0.99336070  1
  O  O235  1  0.51627728  0.22159042  0.09990553  1
  O  O236  1  0.48133501  0.23933960  0.62395625  1
  O  O237  1  0.49219565  0.73722225  0.12324370  1
  O  O238  1  0.50154537  0.74596512  0.63584432  1
  O  O239  1  1.02182145  0.23924269  0.12668894  1
  O  O240  1  0.98973659  0.24196426  0.62683325  1
  O  O241  1  1.00757445  0.74463493  0.14419966  1
  O  O242  1  1.00502990  0.74227386  0.63136572  1
  O  O243  1  0.02018715  0.26158601  0.39435016  1
  O  O244  1  0.00281246  0.25676445  0.87142022  1
  O  O245  1  0.00418754  0.75850790  0.36624613  1
  O  O246  1  0.00326646  0.75587122  0.86459912  1
  O  O247  1  0.48394190  0.23586027  0.35960930  1
  O  O248  1  0.51683809  0.25919960  0.88855322  1
  O  O249  1  0.50304137  0.76249178  0.37607752  1
  O  O250  1  0.50435863  0.75680982  0.87091901  1
  O  O251  1  0.24697292  0.13179545  0.49718111  1
  O  O252  1  0.24379905  0.12395002  0.99154963  1
  O  O253  1  0.25065845  0.63639361  0.49484328  1
  O  O254  1  0.23675410  0.62941116  0.99385536  1
  O  O255  1  0.74302642  0.12845835  0.50535762  1
  O  O256  1  0.74187354  0.11143666  0.99713582  1
  O  O257  1  0.73487278  0.62244325  0.48964507  1
  O  O258  1  0.73893248  0.63021535  0.98770804  1
  O  O259  1  0.25441466  0.37395669  0.00479024  1
  O  O260  1  0.24972350  0.36390822  0.49921932  1
  O  O261  1  0.25199969  0.87185781  0.00465253  1
  O  O262  1  0.25721235  0.87406554  0.50580444  1
  O  O263  1  0.75058951  0.36636292  0.00540639  1
  O  O264  1  0.75967744  0.35963357  0.51314804  1
  O  O265  1  0.74480772  0.85356386  -0.00604981  1
  O  O266  1  0.75879700  0.87687949  0.51795529  1
  O  O267  1  0.12908305  0.49945513  0.24226504  1
  O  O268  1  0.12180276  0.49199127  0.74123389  1
  O  O269  1  0.13238330  0.99241595  0.24137043  1
  O  O270  1  0.13254399  0.99263800  0.75393857  1
  O  O271  1  0.61778568  0.50198470  0.24700935  1
  O  O272  1  0.61894719  0.49065436  0.74445458  1
  O  O273  1  0.62065693  0.98505154  0.23239461  1
  O  O274  1  0.63444927  0.99087657  0.75851905  1
  O  O275  1  0.37617209  -0.00775612  0.26559717  1
  O  O276  1  0.36534766  0.00851956  0.75830886  1
  O  O277  1  0.36321583  0.52047557  0.23375508  1
  O  O278  1  0.36996368  0.50835992  0.75441326  1
  O  O279  1  0.87940406  -0.00758195  0.24841989  1
  O  O280  1  0.86983120  0.00771210  0.75649948  1
  O  O281  1  0.88704639  0.50938828  0.26637527  1
  O  O282  1  0.88141792  0.50247338  0.76067271  1
  O  O283  1  0.12794752  0.37311769  0.37052258  1
  O  O284  1  0.11346595  0.37054758  0.86804770  1
  O  O285  1  0.13479035  0.87817232  0.36011402  1
  O  O286  1  0.12454118  0.87019373  0.85507923  1
  O  O287  1  0.62084165  0.36218661  0.39707992  1
  O  O288  1  0.61787958  0.36497295  0.87959253  1
  O  O289  1  0.61842468  0.86593541  0.37351050  1
  O  O290  1  0.61808272  0.87009988  0.86411567  1
  O  O291  1  0.39506766  0.13881781  0.11903792  1
  O  O292  1  0.38054714  0.12770797  0.63634223  1
  O  O293  1  0.37690084  0.63320095  0.12561824  1
  O  O294  1  0.38280433  0.63190213  0.62717708  1
  O  O295  1  0.87727605  0.13869910  0.13856992  1
  O  O296  1  0.88364182  0.13113828  0.63372432  1
  O  O297  1  0.88135355  0.61249455  0.12699545  1
  O  O298  1  0.88669622  0.61954528  0.62483501  1
  O  O299  1  0.23527696  0.26316722  0.12191314  1
  O  O300  1  0.26000954  0.24982632  0.61661634  1
  O  O301  1  0.25253394  0.75639959  0.11724441  1
  O  O302  1  0.24612547  0.76514837  0.61824238  1
  O  O303  1  0.73335530  0.24864254  0.11513678  1
  O  O304  1  0.76566738  0.24891249  0.62073260  1
  O  O305  1  0.74578617  0.74049522  0.10746499  1
  O  O306  1  0.74906278  0.76239080  0.63442536  1
  O  O307  1  0.24877151  0.24612895  0.39039612  1
  O  O308  1  0.24463732  0.24084118  0.87788195  1
  O  O309  1  0.24837411  0.74463582  0.38337199  1
  O  O310  1  0.24002137  0.74553322  0.88084485  1
  O  O311  1  0.74882559  0.23689439  0.39400807  1
  O  O312  1  0.73794412  0.25754480  0.88209887  1
  O  O313  1  0.73550584  0.74511988  0.37888287  1
  O  O314  1  0.74118854  0.74046241  0.88068531  1
  O  O315  1  0.01298973  0.12441073  -0.00320382  1
  O  O316  1  0.01233201  0.11595239  0.51089219  1
  O  O317  1  0.00951238  0.61805866  -0.00579171  1
  O  O318  1  0.00136411  0.62054860  0.50484463  1
  O  O319  1  0.50998163  0.10756897  -0.00066001  1
  O  O320  1  0.50421507  0.11861912  0.51484060  1
  O  O321  1  0.50203611  0.61705010  0.00434401  1
  O  O322  1  0.50034599  0.62941210  0.50975231  1
  O  O323  1  0.49617227  0.39440334  0.51278913  1
  O  O324  1  0.48845261  0.38922061  0.99533522  1
  O  O325  1  0.49529860  0.88091299  0.49976876  1
  O  O326  1  0.49605731  0.88264648  0.99463326  1
  O  O327  1  0.98998069  0.38510526  0.50285778  1
  O  O328  1  1.00568181  0.38600274  0.98815506  1
  O  O329  1  0.98332407  0.88469440  0.50570565  1
  O  O330  1  1.03317095  0.87641821  0.96905415  1
  O  O331  1  0.49159584  0.50984006  0.39618965  1
  O  O332  1  0.49534255  0.49405350  0.88630642  1
  O  O333  1  0.50137584  0.98821789  0.38419395  1
  O  O334  1  0.49434761  0.99322730  0.88028727  1
  O  O335  1  0.99531163  0.50246995  0.38912124  1
  O  O336  1  0.99410685  0.49280545  0.87929115  1
  O  O337  1  1.01215347  0.98987587  0.39187769  1
  O  O338  1  0.98952352  0.99084864  0.88005787  1
  O  O339  1  0.01644868  0.00918311  0.11777993  1
  O  O340  1  -0.00398111  0.01240711  0.61960559  1
  O  O341  1  0.00931587  0.49997886  0.11441332  1
  O  O342  1  0.00501540  0.50682217  0.61538013  1
  O  O343  1  0.50386375  0.00288599  0.11411812  1
  O  O344  1  0.49274341  0.01136468  0.62003176  1
  O  O345  1  0.50006399  0.51355014  0.11940355  1
  O  O346  1  0.49651859  0.51549014  0.61776063  1
  O  O347  1  0.23726258  0.38498840  0.23953817  1
  O  O348  1  0.23324934  0.37595768  0.75780545  1
  O  O349  1  0.24653008  0.87589472  0.24055381  1
  O  O350  1  0.24385601  0.87968152  0.74199723  1
  O  O351  1  0.70601412  0.35276814  0.26190194  1
  O  O352  1  0.75239998  0.36891322  0.72995693  1
  O  O353  1  0.73677149  0.87172623  0.25493076  1
  O  O354  1  0.74399218  0.87838422  0.74398915  1
  O  O355  1  0.24350014  0.12395927  0.27025213  1
  O  O356  1  0.25617852  0.12038647  0.75617044  1
  O  O357  1  0.25186751  0.62405288  0.25662039  1
  O  O358  1  0.24644548  0.62888265  0.75839762  1
  O  O359  1  0.75709990  0.10716012  0.26090949  1
  O  O360  1  0.75971908  0.11704297  0.74424726  1
  O  O361  1  0.74632873  0.63490462  0.26701435  1
  O  O362  1  0.74613157  0.63003893  0.76246698  1
  O  O363  1  0.37801250  0.12205003  0.36919782  1
  O  O364  1  0.37190362  0.12501326  0.87094621  1
  O  O365  1  0.36404259  0.62903897  0.36458790  1
  O  O366  1  0.35709871  0.62711562  0.87828898  1
  O  O367  1  0.88798244  0.10904152  0.38216405  1
  O  O368  1  0.88291071  0.11645474  0.86130590  1
  O  O369  1  0.86212914  0.61884795  0.38028861  1
  O  O370  1  0.86413052  0.61515704  0.86869227  1
  O  O371  1  0.12656742  0.38497369  0.13036666  1
  O  O372  1  0.11606170  0.38527586  0.63412081  1
  O  O373  1  0.13192064  0.88631655  0.13109533  1
  O  O374  1  0.13137941  0.87562617  0.63350559  1
  O  O375  1  0.61811244  0.40399051  0.11270242  1
  O  O376  1  0.64344905  0.37802793  0.61674303  1
  O  O377  1  0.61778085  0.87697130  0.13366328  1
  O  O378  1  0.63569990  0.87263664  0.63646040  1
  O  O379  1  0.13803764  0.26537059  0.27116882  1
  O  O380  1  0.11906127  0.25577407  0.75439219  1
  O  O381  1  0.12028076  0.75989963  0.25351112  1
  O  O382  1  0.11403214  0.75927559  0.75287531  1
  O  O383  1  0.61058178  0.22191931  0.24088658  1
  O  O384  1  0.63063115  0.25558671  0.76617727  1
  O  O385  1  0.61883684  0.75496592  0.25891873  1
  O  O386  1  0.61267859  0.75988055  0.75741818  1
  O  O387  1  0.37268561  0.23608527  0.23875538  1
  O  O388  1  0.36551077  0.23961491  0.73993889  1
  O  O389  1  0.37376117  0.74153423  0.24261417  1
  O  O390  1  0.38689944  0.75188971  0.75843263  1
  O  O391  1  0.88352872  0.24348547  0.27638198  1
  O  O392  1  0.88000187  0.24264033  0.74294988  1
  O  O393  1  0.88833937  0.74950093  0.25508022  1
  O  O394  1  0.88574496  0.74944090  0.75462176  1
  O  O395  1  0.38351917  0.50323888  0.50175128  1
  O  O396  1  0.37793938  0.49102475  1.00028232  1
  O  O397  1  0.38709248  0.99582411  0.49081426  1
  O  O398  1  0.38317737  0.99688148  0.99551318  1
  O  O399  1  0.88108944  0.49368740  0.49537444  1
  O  O400  1  0.88567200  0.50426332  0.98757907  1
  O  O401  1  0.88056362  0.99356635  0.50624090  1
  O  O402  1  0.88654536  1.00982391  0.99317057  1
  O  O403  1  0.11691819  0.00431374  0.00598508  1
  O  O404  1  0.12629378  0.01235469  0.50201228  1
  O  O405  1  0.11763865  0.50801314  0.00470802  1
  O  O406  1  0.11619287  0.50266386  0.50733692  1
  O  O407  1  0.62048505  -0.00296441  0.00110045  1
  O  O408  1  0.61242623  0.00750088  0.50656641  1
  O  O409  1  0.61560497  0.51246282  0.00212024  1
  O  O410  1  0.60608723  0.51800542  0.50917180  1
  O  O411  1  0.35744644  0.37263427  0.11976114  1
  O  O412  1  0.37931559  0.36259842  0.63923088  1
  O  O413  1  0.37221098  0.87049485  0.11968234  1
  O  O414  1  0.36932615  0.87946006  0.61341640  1
  O  O415  1  0.86925667  0.35827528  0.15646738  1
  O  O416  1  0.87119945  0.36829850  0.61705954  1
  O  O417  1  0.94767617  0.88784039  0.08003220  1
  O  O418  1  0.86302075  0.87376858  0.62030641  1
  O  O419  1  0.13446914  0.13509156  0.38901572  1
  O  O420  1  0.13016375  0.12769046  0.88023830  1
  O  O421  1  0.13893808  0.62687338  0.37946858  1
  O  O422  1  0.13007643  0.63012966  0.87914896  1
  O  O423  1  0.61001138  0.13631950  0.39938708  1
  O  O424  1  0.62183290  0.13701952  0.88019056  1
  O  O425  1  0.62506237  0.63180736  0.38272587  1
  O  O426  1  0.62720288  0.62758077  0.88135430  1
