# generated using pymatgen
data_V85Zn86O256
_symmetry_space_group_name_H-M   'P 1'
_cell_length_a   16.95056389
_cell_length_b   16.95369116
_cell_length_c   16.95071876
_cell_angle_alpha   90.03705694
_cell_angle_beta   89.94702937
_cell_angle_gamma   90.01906654
_symmetry_Int_Tables_number   1
_chemical_formula_structural   V85Zn86O256
_chemical_formula_sum   'V85 Zn86 O256'
_cell_volume   4871.20307951
_cell_formula_units_Z   1
loop_
 _symmetry_equiv_pos_site_id
 _symmetry_equiv_pos_as_xyz
  1  'x, y, z'
loop_
 _atom_site_type_symbol
 _atom_site_label
 _atom_site_symmetry_multiplicity
 _atom_site_fract_x
 _atom_site_fract_y
 _atom_site_fract_z
 _atom_site_occupancy
  V  V0  1  0.37364088  0.23660565  0.62771451  1
  V  V1  1  0.86821468  0.24132240  0.62751994  1
  V  V2  1  0.00088009  0.62420973  0.62303364  1
  V  V3  1  0.75346301  0.87904433  0.62739520  1
  V  V4  1  0.88403328  0.87705603  0.49525569  1
  V  V5  1  0.12394252  0.62606318  0.00276046  1
  V  V6  1  0.88697322  0.13510689  0.24380210  1
  V  V7  1  0.62459166  0.24828653  0.87250271  1
  V  V8  1  0.87320062  0.37383446  0.49594247  1
  V  V9  1  0.25847274  0.50141895  0.25423936  1
  V  V10  1  0.12398815  0.24769898  0.87516704  1
  V  V11  1  0.24535518  0.11671877  0.85911974  1
  V  V12  1  0.13843996  0.88268950  0.75153455  1
  V  V13  1  -0.00385944  0.50120556  0.48600782  1
  V  V14  1  0.37517057  0.63758315  0.74902951  1
  V  V15  1  0.50500313  0.12317986  0.12381397  1
  V  V16  1  -0.00359243  0.50414828  -0.00128180  1
  V  V17  1  0.24831055  0.62494324  0.87587992  1
  V  V18  1  0.62022762  0.37201171  0.74639305  1
  V  V19  1  0.87960346  -0.00052542  0.37242019  1
  V  V20  1  0.50070605  -0.00319972  0.00240080  1
  V  V21  1  0.87767508  0.75065338  0.62640029  1
  V  V22  1  0.61696537  0.00445364  0.62446686  1
  V  V23  1  0.25623457  0.23729063  0.00044235  1
  V  V24  1  0.12285127  0.36579751  0.25469045  1
  V  V25  1  0.12674919  0.50419232  0.12992061  1
  V  V26  1  0.62835554  0.12322279  0.00042377  1
  V  V27  1  0.64130586  0.40082144  0.26979970  1
  V  V28  1  0.63071653  0.62619432  0.49962547  1
  V  V29  1  0.49867561  0.37306259  0.87303135  1
  V  V30  1  0.86585705  0.87783399  0.00466944  1
  V  V31  1  0.87034112  0.38350540  -0.00398731  1
  V  V32  1  0.12368320  0.50077691  0.62202270  1
  V  V33  1  0.49991294  0.63265267  0.62816149  1
  V  V34  1  0.24908512  0.37455683  0.62172245  1
  V  V35  1  0.37403545  0.37383275  -0.00250724  1
  V  V36  1  0.00023824  0.87676856  0.87437650  1
  V  V37  1  0.13154657  -0.01250501  0.12499267  1
  V  V38  1  0.12494471  0.75124929  0.87591686  1
  V  V39  1  0.37352456  0.37306257  0.50000340  1
  V  V40  1  0.75105773  0.25090361  0.00367296  1
  V  V41  1  0.37172886  0.75484517  0.60777476  1
  V  V42  1  0.00229993  -0.00050350  0.00639618  1
  V  V43  1  0.86726425  0.75266663  0.12961665  1
  V  V44  1  0.62847506  0.75448578  0.37220864  1
  V  V45  1  0.87803759  0.00345978  0.86908761  1
  V  V46  1  0.12875508  0.63031966  0.49580172  1
  V  V47  1  0.75408259  0.74694778  0.49815056  1
  V  V48  1  0.75284262  0.12720756  0.37815356  1
  V  V49  1  -0.00061009  0.35941911  0.37026826  1
  V  V50  1  0.85847573  0.61170452  0.26212059  1
  V  V51  1  0.51016092  0.25083696  0.24937342  1
  V  V52  1  0.37002915  -0.00069481  0.86480608  1
  V  V53  1  0.37325237  0.50010371  0.87050687  1
  V  V54  1  0.49745937  0.86908940  0.87332854  1
  V  V55  1  0.49939781  0.51135400  -0.00412668  1
  V  V56  1  -0.00579756  0.38190100  0.87082810  1
  V  V57  1  0.25842068  0.63592435  0.37392183  1
  V  V58  1  0.25252051  0.37603987  0.12588883  1
  V  V59  1  -0.00218223  0.75861177  0.25952496  1
  V  V60  1  0.87492192  0.61888148  0.75849205  1
  V  V61  1  0.12303985  0.37545290  0.75020693  1
  V  V62  1  0.74809721  0.37667464  0.12902135  1
  V  V63  1  0.49705319  0.62533159  0.14273659  1
  V  V64  1  0.38051820  0.25057038  0.12370197  1
  V  V65  1  -0.00417746  0.62512470  0.13302934  1
  V  V66  1  0.62350271  0.86960203  0.75041395  1
  V  V67  1  0.62736309  0.24396068  0.38574293  1
  V  V68  1  0.25363873  0.88037925  0.60854347  1
  V  V69  1  0.00919888  0.12630786  0.62842056  1
  V  V70  1  0.62290406  0.50069927  0.62599992  1
  V  V71  1  0.23682747  0.24500932  0.48846765  1
  V  V72  1  0.01119607  0.00507382  0.49901245  1
  V  V73  1  0.24781071  0.75488082  0.00933472  1
  V  V74  1  0.74905519  0.37295772  0.61841893  1
  V  V75  1  0.37235795  0.87602403  0.01483474  1
  V  V76  1  0.62380870  0.74148548  0.87409091  1
  V  V77  1  0.00188610  0.75159907  0.75034760  1
  V  V78  1  0.24945488  0.50114534  0.74776453  1
  V  V79  1  0.24108373  0.11834343  0.36814880  1
  V  V80  1  0.49700247  0.37336854  0.37454834  1
  V  V81  1  0.74375887  0.74499159  0.00152430  1
  V  V82  1  0.06688481  0.17235805  0.05681854  1
  V  V83  1  0.62652527  0.50370218  0.11524319  1
  V  V84  1  0.75577880  0.12616234  0.86818855  1
  Zn  Zn85  1  0.75566408  0.00279068  0.74911671  1
  Zn  Zn86  1  0.37637935  -0.00577884  0.37521404  1
  Zn  Zn87  1  0.49065643  0.00409418  0.49858202  1
  Zn  Zn88  1  0.88891715  0.25250279  0.12671610  1
  Zn  Zn89  1  0.75504140  -0.00428888  0.23861585  1
  Zn  Zn90  1  0.12307957  0.75963537  0.38372105  1
  Zn  Zn91  1  0.12172684  0.88115394  0.26420778  1
  Zn  Zn92  1  0.49498007  0.87982090  0.38198355  1
  Zn  Zn93  1  0.50008520  0.22167313  0.73404890  1
  Zn  Zn94  1  -0.00604496  0.24632105  0.75218514  1
  Zn  Zn95  1  0.75445330  0.49624142  0.75497653  1
  Zn  Zn96  1  0.26737763  -0.02064651  0.23797685  1
  Zn  Zn97  1  0.63230800  0.87615351  0.23908417  1
  Zn  Zn98  1  0.49794256  0.50069413  0.49951662  1
  Zn  Zn99  1  0.64594628  -0.01871516  0.11704390  1
  Zn  Zn100  1  0.38105761  0.50580246  0.37144840  1
  Zn  Zn101  1  0.62457601  0.12458093  0.50519276  1
  Zn  Zn102  1  0.74971256  0.61690765  0.88179075  1
  Zn  Zn103  1  0.36931059  0.74401421  0.13444082  1
  Zn  Zn104  1  0.38054999  0.12278988  0.25559938  1
  Zn  Zn105  1  0.48422374  0.75244454  0.26451696  1
  Zn  Zn106  1  0.13570504  0.00810483  0.62777907  1
  Zn  Zn107  1  0.19267482  0.18788642  0.19286280  1
  Zn  Zn108  1  0.18739502  0.19397441  0.68560048  1
  Zn  Zn109  1  0.18764731  0.69086409  0.19662608  1
  Zn  Zn110  1  0.18945922  0.69235620  0.68430094  1
  Zn  Zn111  1  0.69073503  0.18322361  0.19367896  1
  Zn  Zn112  1  0.69119165  0.18869825  0.68849584  1
  Zn  Zn113  1  0.68469409  0.68399442  0.18291782  1
  Zn  Zn114  1  0.69115143  0.69011128  0.68745485  1
  Zn  Zn115  1  0.31538270  0.30850013  0.31031788  1
  Zn  Zn116  1  0.31032410  0.30835958  0.80975467  1
  Zn  Zn117  1  0.31137096  0.81697434  0.30491952  1
  Zn  Zn118  1  0.31224459  0.81361147  0.81928656  1
  Zn  Zn119  1  0.81457049  0.30926992  0.31453483  1
  Zn  Zn120  1  0.81036842  0.31500050  0.80941704  1
  Zn  Zn121  1  0.81204839  0.81264823  0.31315651  1
  Zn  Zn122  1  0.81181395  0.81053286  0.81506269  1
  Zn  Zn123  1  0.18540474  0.43903420  0.43449948  1
  Zn  Zn124  1  0.18602702  0.43722849  0.93866521  1
  Zn  Zn125  1  0.18707693  0.93683231  0.43168345  1
  Zn  Zn126  1  0.18636542  0.93977836  0.94294905  1
  Zn  Zn127  1  0.68610712  0.43649907  0.44010592  1
  Zn  Zn128  1  0.68705220  0.44055947  0.93393502  1
  Zn  Zn129  1  0.69452392  0.93794102  0.43776278  1
  Zn  Zn130  1  0.68816340  0.93577175  0.93686758  1
  Zn  Zn131  1  0.31647809  0.06251907  0.06261526  1
  Zn  Zn132  1  0.30983305  0.06374776  0.55491228  1
  Zn  Zn133  1  0.31465123  0.56323377  0.06243567  1
  Zn  Zn134  1  0.31282988  0.56259410  0.55779922  1
  Zn  Zn135  1  0.81987433  0.06877038  0.06122547  1
  Zn  Zn136  1  0.81138493  0.06187576  0.55679660  1
  Zn  Zn137  1  0.81158448  0.56419970  0.06799585  1
  Zn  Zn138  1  0.81447839  0.55909263  0.56657677  1
  Zn  Zn139  1  0.44356149  0.43782697  0.18744917  1
  Zn  Zn140  1  0.43640402  0.43755548  0.68479857  1
  Zn  Zn141  1  0.45047816  0.93418434  0.20019486  1
  Zn  Zn142  1  0.43820287  0.93132245  0.68616217  1
  Zn  Zn143  1  0.93514560  0.43684153  0.18992451  1
  Zn  Zn144  1  0.93732338  0.43769303  0.68186860  1
  Zn  Zn145  1  0.93230327  0.94136016  0.18596425  1
  Zn  Zn146  1  0.94317648  0.93864574  0.68609655  1
  Zn  Zn147  1  0.06272240  0.06501898  0.31142570  1
  Zn  Zn148  1  0.06182818  0.06393531  0.81036268  1
  Zn  Zn149  1  0.06547336  0.56391493  0.31154146  1
  Zn  Zn150  1  0.06122112  0.56288271  0.81206134  1
  Zn  Zn151  1  0.56782008  0.05482428  0.30785381  1
  Zn  Zn152  1  0.56677095  0.05405775  0.81169729  1
  Zn  Zn153  1  0.58350705  0.55645528  0.31921016  1
  Zn  Zn154  1  0.56035468  0.56092501  0.80764816  1
  Zn  Zn155  1  0.43704087  0.17269242  0.44151658  1
  Zn  Zn156  1  0.45070554  0.16760009  0.90537055  1
  Zn  Zn157  1  0.44210425  0.68735839  0.43893010  1
  Zn  Zn158  1  0.43299367  0.69220314  0.93807891  1
  Zn  Zn159  1  0.93553620  0.18573860  0.44327753  1
  Zn  Zn160  1  0.93113054  0.19544752  0.93233568  1
  Zn  Zn161  1  0.93204353  0.68176902  0.43499479  1
  Zn  Zn162  1  0.93606507  0.69143176  0.94079072  1
  Zn  Zn163  1  0.06663839  0.33438798  0.05857535  1
  Zn  Zn164  1  0.05778731  0.31233769  0.56148664  1
  Zn  Zn165  1  0.05454444  0.81157761  0.06457535  1
  Zn  Zn166  1  0.06631282  0.81676373  0.56352722  1
  Zn  Zn167  1  0.56511499  0.31676493  0.05991246  1
  Zn  Zn168  1  0.55621074  0.30722185  0.56129780  1
  Zn  Zn169  1  0.56002504  0.80628813  0.06266922  1
  Zn  Zn170  1  0.56021755  0.81605879  0.56005126  1
  O  O171  1  0.12244300  0.12120420  0.12453184  1
  O  O172  1  0.11352158  0.12716903  0.62644756  1
  O  O173  1  0.11601761  0.62241153  0.12279118  1
  O  O174  1  0.12109002  0.62000644  0.61946274  1
  O  O175  1  0.61513028  0.13169911  0.11598122  1
  O  O176  1  0.63450677  0.10750907  0.63134656  1
  O  O177  1  0.61159698  0.61587351  0.12172727  1
  O  O178  1  0.61815094  0.62051968  0.62487879  1
  O  O179  1  0.38576600  0.37174349  0.38010239  1
  O  O180  1  0.38069448  0.37905596  0.87510195  1
  O  O181  1  0.37890986  0.87662579  0.36999378  1
  O  O182  1  0.38172149  0.87867949  0.88438835  1
  O  O183  1  0.88554703  0.37227710  0.38201537  1
  O  O184  1  0.88222081  0.37198820  0.88210865  1
  O  O185  1  0.87558233  0.88402711  0.38610281  1
  O  O186  1  0.88156378  0.88026107  0.88296034  1
  O  O187  1  0.24849848  0.01187913  0.36974636  1
  O  O188  1  0.25183481  0.00956845  0.87668849  1
  O  O189  1  0.25253974  0.50554552  0.36680566  1
  O  O190  1  0.25304884  0.50553772  0.86951034  1
  O  O191  1  0.76588171  0.00871040  0.37719755  1
  O  O192  1  0.76022703  0.00863465  0.87680349  1
  O  O193  1  0.68280542  0.47808728  0.33634254  1
  O  O194  1  0.74542425  0.50538577  0.86734119  1
  O  O195  1  0.24632274  0.49725984  0.13160492  1
  O  O196  1  0.24377512  0.49514056  0.62773506  1
  O  O197  1  0.23496933  1.00584235  0.12339208  1
  O  O198  1  0.25186314  0.98516047  0.62300395  1
  O  O199  1  0.73851551  0.49021324  0.11677613  1
  O  O200  1  0.74208839  0.49015380  0.63154811  1
  O  O201  1  0.75831050  1.00096598  0.12130812  1
  O  O202  1  0.75336065  0.98882709  0.62900191  1
  O  O203  1  0.00486220  0.37860768  0.26288363  1
  O  O204  1  0.00363741  0.37703640  0.75660430  1
  O  O205  1  -0.00492542  0.86010971  0.24512050  1
  O  O206  1  0.00797309  0.86793464  0.75495296  1
  O  O207  1  0.51146906  0.37093679  0.25858092  1
  O  O208  1  0.50887837  0.37585852  0.75513053  1
  O  O209  1  0.51577859  0.86480111  0.25986529  1
  O  O210  1  0.51039569  0.87707543  0.76109123  1
  O  O211  1  0.50402744  0.13488983  0.23775594  1
  O  O212  1  0.49249486  0.13389104  0.80004207  1
  O  O213  1  0.50632502  0.62369687  0.24358959  1
  O  O214  1  0.48895788  0.61944456  0.73636854  1
  O  O215  1  0.98530055  0.12816641  0.25466888  1
  O  O216  1  0.99797949  0.12680814  0.73468794  1
  O  O217  1  0.99383168  0.62904050  0.24161277  1
  O  O218  1  0.99262398  0.63037803  0.74523721  1
  O  O219  1  0.36818974  0.25631129  0.00299890  1
  O  O220  1  0.36574846  0.25931436  0.50878191  1
  O  O221  1  0.36459884  0.75778383  0.00464782  1
  O  O222  1  0.37259023  0.74711107  0.51018579  1
  O  O223  1  0.86690803  0.26292763  0.00325245  1
  O  O224  1  0.87953890  0.26501923  0.51347512  1
  O  O225  1  0.87026591  0.75874117  0.00894672  1
  O  O226  1  0.87294971  0.75558389  0.50554812  1
  O  O227  1  0.13955329  0.25726839  0.50274878  1
  O  O228  1  0.12772264  0.24344231  1.00045431  1
  O  O229  1  0.11687285  0.73367279  0.50272263  1
  O  O230  1  0.12818401  0.74627676  0.99668286  1
  O  O231  1  0.62300094  0.24811982  0.48910979  1
  O  O232  1  0.63371148  0.24748912  0.99172799  1
  O  O233  1  0.63578308  0.74342121  0.50123909  1
  O  O234  1  0.63462456  0.75249264  0.98804276  1
  O  O235  1  0.50019558  0.24728675  0.12854560  1
  O  O236  1  0.48115211  0.25043216  0.62477611  1
  O  O237  1  0.49784093  0.72926606  0.12167386  1
  O  O238  1  0.48550678  0.74464317  0.62376524  1
  O  O239  1  1.01040375  0.24239010  0.10610085  1
  O  O240  1  0.99060955  0.24063535  0.62529924  1
  O  O241  1  0.98795716  0.74189391  0.13188411  1
  O  O242  1  0.99746541  0.74459389  0.63141063  1
  O  O243  1  -0.00008379  0.26155022  0.38067038  1
  O  O244  1  0.00497231  0.26145598  0.87327277  1
  O  O245  1  -0.00347298  0.74341778  0.36115942  1
  O  O246  1  0.00628837  0.75637873  0.87182714  1
  O  O247  1  0.50625225  0.25227478  0.36542851  1
  O  O248  1  0.50718973  0.26763951  0.88528926  1
  O  O249  1  0.51885375  0.74703906  0.38032603  1
  O  O250  1  0.50681960  0.76155284  0.88190661  1
  O  O251  1  0.24672334  0.13869586  0.48776882  1
  O  O252  1  0.24940765  0.13572425  0.99890734  1
  O  O253  1  0.24011643  0.61702054  0.48580498  1
  O  O254  1  0.24348650  0.62852270  0.99376881  1
  O  O255  1  0.74741734  0.12427831  0.48455480  1
  O  O256  1  0.74982621  0.13641691  0.99263095  1
  O  O257  1  0.74350139  0.63442734  0.51523030  1
  O  O258  1  0.75930506  0.64017964  0.99828812  1
  O  O259  1  0.25359413  0.36678651  0.00547949  1
  O  O260  1  0.25480617  0.36837575  0.50036542  1
  O  O261  1  0.25822380  0.86560264  -0.00361948  1
  O  O262  1  0.24596198  0.87286202  0.51118714  1
  O  O263  1  0.75467783  0.37003030  0.00432498  1
  O  O264  1  0.75679483  0.38137638  0.50931489  1
  O  O265  1  0.76205787  0.86389310  -0.00919204  1
  O  O266  1  0.76354797  0.86871108  0.50921364  1
  O  O267  1  0.13402588  0.49375721  0.24499768  1
  O  O268  1  0.13001547  0.49618872  0.74373841  1
  O  O269  1  0.11352499  0.99904824  0.23012768  1
  O  O270  1  0.11847406  0.98681556  0.74536135  1
  O  O271  1  0.60200033  0.49242696  0.22238966  1
  O  O272  1  0.62317783  0.49168570  0.73781725  1
  O  O273  1  0.63395904  1.00113711  0.23539650  1
  O  O274  1  0.63267170  0.98850025  0.74364790  1
  O  O275  1  0.37745832  0.00580269  0.24978636  1
  O  O276  1  0.37954865  -0.00860176  0.76622735  1
  O  O277  1  0.36258188  0.49205061  0.25091464  1
  O  O278  1  0.36790240  0.50805941  0.75276758  1
  O  O279  1  0.87846198  0.01161414  0.25820165  1
  O  O280  1  0.87754241  -0.00688410  0.76572632  1
  O  O281  1  0.87350370  0.51334751  0.24465993  1
  O  O282  1  0.87740583  0.51576436  0.74335789  1
  O  O283  1  0.10967637  0.37922046  0.36827028  1
  O  O284  1  0.11700054  0.36885312  0.87225695  1
  O  O285  1  0.11522458  0.87191092  0.37840754  1
  O  O286  1  0.12080339  0.87154532  0.86940812  1
  O  O287  1  0.61198602  0.36004783  0.37734381  1
  O  O288  1  0.61831017  0.37064683  0.86437379  1
  O  O289  1  0.63200808  0.85769114  0.38357248  1
  O  O290  1  0.61845704  0.86825636  0.86891568  1
  O  O291  1  0.39094414  0.13363408  0.12091024  1
  O  O292  1  0.36279146  0.13871035  0.62649829  1
  O  O293  1  0.39352700  0.61948165  0.12180171  1
  O  O294  1  0.37801271  0.63519745  0.62842052  1
  O  O295  1  0.87762515  0.13346517  0.13780948  1
  O  O296  1  0.87481891  0.13893776  0.62086369  1
  O  O297  1  0.88126206  0.63311288  0.13191561  1
  O  O298  1  0.88300667  0.63183180  0.63226374  1
  O  O299  1  0.25839218  0.25455103  0.11836774  1
  O  O300  1  0.25565697  0.25680954  0.61483672  1
  O  O301  1  0.24819415  0.73864597  0.11190169  1
  O  O302  1  0.26483460  0.75828700  0.62777979  1
  O  O303  1  0.74624706  0.25746094  0.11327006  1
  O  O304  1  0.75929236  0.25690666  0.62472872  1
  O  O305  1  0.76027116  0.74565531  0.11804985  1
  O  O306  1  0.75641982  0.76126115  0.61868215  1
  O  O307  1  0.25008744  0.24881528  0.38430679  1
  O  O308  1  0.24463760  0.24124275  0.88195036  1
  O  O309  1  0.24423865  0.73612743  0.37227798  1
  O  O310  1  0.24367650  0.74306281  0.88629632  1
  O  O311  1  0.73816997  0.24338681  0.37047572  1
  O  O312  1  0.74621908  0.24631152  0.88179465  1
  O  O313  1  0.74561173  0.74914906  0.39226028  1
  O  O314  1  0.74162883  0.74442237  0.88209211  1
  O  O315  1  0.00123602  0.12038474  -0.00452317  1
  O  O316  1  -0.00654982  0.11765057  0.51584359  1
  O  O317  1  0.00194684  0.62329841  0.01136868  1
  O  O318  1  0.00279847  0.61710546  0.50347373  1
  O  O319  1  0.50729167  0.11589361  0.00004945  1
  O  O320  1  0.51059656  0.11955739  0.50372785  1
  O  O321  1  0.49576740  0.61234318  -0.00800358  1
  O  O322  1  0.50879666  0.62270478  0.51309504  1
  O  O323  1  0.49057630  0.37434945  0.49240464  1
  O  O324  1  0.49278968  0.38482767  0.99208087  1
  O  O325  1  0.50798644  0.88865089  0.49779942  1
  O  O326  1  0.49200342  0.87995909  0.99479328  1
  O  O327  1  0.99470361  0.38122796  0.48973210  1
  O  O328  1  0.99014757  0.38353292  0.99117981  1
  O  O329  1  0.98921970  0.88606299  0.51358919  1
  O  O330  1  0.99191847  0.88233899  0.99335950  1
  O  O331  1  0.50104089  0.48903677  0.37814150  1
  O  O332  1  0.49566829  0.49077958  0.87691148  1
  O  O333  1  0.49990621  1.00084093  0.37645986  1
  O  O334  1  0.49414794  0.98781839  0.88719000  1
  O  O335  1  1.00213509  0.49667252  0.38426189  1
  O  O336  1  1.00464520  0.48950849  0.88181129  1
  O  O337  1  0.98932155  1.01086358  0.38592768  1
  O  O338  1  0.99646615  0.99760289  0.88423459  1
  O  O339  1  0.00361307  -0.00035907  0.11111723  1
  O  O340  1  0.00034047  0.01397888  0.62036439  1
  O  O341  1  0.00473856  0.50721348  0.12064133  1
  O  O342  1  0.00639056  0.50514409  0.61524114  1
  O  O343  1  0.50013030  0.00844491  0.11223620  1
  O  O344  1  0.51575153  -0.00250944  0.63210769  1
  O  O345  1  0.50099390  0.50836910  0.11229715  1
  O  O346  1  0.50712755  0.50712031  0.62182297  1
  O  O347  1  0.24407852  0.38067235  0.24602456  1
  O  O348  1  0.24276650  0.38117061  0.74418954  1
  O  O349  1  0.23407106  0.87254174  0.24576724  1
  O  O350  1  0.24062530  0.86965832  0.75010173  1
  O  O351  1  0.74525710  0.36828114  0.23860827  1
  O  O352  1  0.73605575  0.37316509  0.73912734  1
  O  O353  1  0.74629198  0.88141071  0.25926723  1
  O  O354  1  0.74599820  0.87554321  0.74343215  1
  O  O355  1  0.25708194  0.12643250  0.26028889  1
  O  O356  1  0.24700757  0.12790271  0.76108002  1
  O  O357  1  0.24377082  0.61554473  0.26519750  1
  O  O358  1  0.25509792  0.62067574  0.75485700  1
  O  O359  1  0.76256093  0.12360218  0.26126672  1
  O  O360  1  0.75082056  0.12497074  0.76435872  1
  O  O361  1  0.76035839  0.62485758  0.24497303  1
  O  O362  1  0.76758283  0.62703189  0.74799008  1
  O  O363  1  0.35910701  0.13072484  0.37200585  1
  O  O364  1  0.35273070  0.11244577  0.88401513  1
  O  O365  1  0.36253055  0.62280762  0.38411195  1
  O  O366  1  0.36991555  0.62065616  0.86648595  1
  O  O367  1  0.87018542  0.12324845  0.36953084  1
  O  O368  1  0.86842806  0.11649025  0.88065075  1
  O  O369  1  0.87015245  0.62159710  0.36243304  1
  O  O370  1  0.87868700  0.63026035  0.86072866  1
  O  O371  1  0.13338136  0.38651997  0.13183934  1
  O  O372  1  0.12835490  0.38053122  0.62917407  1
  O  O373  1  0.12066100  0.88696342  0.12131567  1
  O  O374  1  0.14197023  0.87151592  0.63357051  1
  O  O375  1  0.63498508  0.38148713  0.12881478  1
  O  O376  1  0.62769769  0.37896807  0.62647239  1
  O  O377  1  0.62535211  0.86964525  0.12251220  1
  O  O378  1  0.63466356  0.88083602  0.63345054  1
  O  O379  1  0.12710647  0.26728563  0.24101969  1
  O  O380  1  0.12102732  0.25960194  0.75584905  1
  O  O381  1  0.10398712  0.74848325  0.24914617  1
  O  O382  1  0.12012705  0.75499350  0.75702941  1
  O  O383  1  0.61857688  0.25815730  0.25556123  1
  O  O384  1  0.61811801  0.25526817  0.75259176  1
  O  O385  1  0.63293242  0.74122657  0.27000680  1
  O  O386  1  0.63130157  0.76218819  0.75628756  1
  O  O387  1  0.39150800  0.25265089  0.24013688  1
  O  O388  1  0.37402374  0.25635481  0.73139915  1
  O  O389  1  0.37365504  0.74206408  0.24639314  1
  O  O390  1  0.37135565  0.73895293  0.75060277  1
  O  O391  1  0.87636165  0.24090365  0.24574104  1
  O  O392  1  0.87637764  0.25818876  0.73203425  1
  O  O393  1  0.88155071  0.74180846  0.24562133  1
  O  O394  1  0.88264108  0.74337711  0.74580933  1
  O  O395  1  0.37504127  0.48510723  0.49698558  1
  O  O396  1  0.37845526  0.49368255  0.98873530  1
  O  O397  1  0.37512438  1.00425753  0.49157847  1
  O  O398  1  0.38094288  0.99212532  0.99475456  1
  O  O399  1  0.88384655  0.48667952  0.50719492  1
  O  O400  1  0.87914579  0.49020525  1.00528926  1
  O  O401  1  0.88282241  0.99277767  0.49472013  1
  O  O402  1  0.88321692  0.99366424  0.99154293  1
  O  O403  1  0.11663291  0.00159909  0.01170154  1
  O  O404  1  0.11335887  -0.00319704  0.50668813  1
  O  O405  1  0.11830626  0.50631588  0.00806164  1
  O  O406  1  0.11615421  0.50822592  0.50346207  1
  O  O407  1  0.61802727  0.00493269  -0.00079800  1
  O  O408  1  0.63602400  -0.00118509  0.52028224  1
  O  O409  1  0.61219737  0.49180958  0.00660005  1
  O  O410  1  0.62652988  0.50768868  0.51307755  1
  O  O411  1  0.37241376  0.37063857  0.11839064  1
  O  O412  1  0.36592128  0.37391671  0.61635478  1
  O  O413  1  0.38389781  0.87337584  0.11595516  1
  O  O414  1  0.36519779  0.86352477  0.62895773  1
  O  O415  1  0.86741447  0.37170304  0.11799391  1
  O  O416  1  0.86565585  0.36927158  0.61924051  1
  O  O417  1  0.88112926  0.86541684  0.11469865  1
  O  O418  1  0.87067988  0.86929540  0.62253192  1
  O  O419  1  0.14064415  0.12883645  0.36687008  1
  O  O420  1  0.13557892  0.13048948  0.87276266  1
  O  O421  1  0.13221294  0.62775113  0.38239697  1
  O  O422  1  0.12728592  0.63057075  0.88237148  1
  O  O423  1  0.63558614  0.13111020  0.37154762  1
  O  O424  1  0.63813906  0.12792148  0.88343968  1
  O  O425  1  0.62656926  0.63354460  0.39457532  1
  O  O426  1  0.62191098  0.63894852  0.86354111  1
