# generated using pymatgen
data_V85Zn86O256
_symmetry_space_group_name_H-M   'P 1'
_cell_length_a   16.95055268
_cell_length_b   16.94904219
_cell_length_c   16.94831875
_cell_angle_alpha   89.95413689
_cell_angle_beta   89.94849235
_cell_angle_gamma   89.89789663
_symmetry_Int_Tables_number   1
_chemical_formula_structural   V85Zn86O256
_chemical_formula_sum   'V85 Zn86 O256'
_cell_volume   4869.16670611
_cell_formula_units_Z   1
loop_
 _symmetry_equiv_pos_site_id
 _symmetry_equiv_pos_as_xyz
  1  'x, y, z'
loop_
 _atom_site_type_symbol
 _atom_site_label
 _atom_site_symmetry_multiplicity
 _atom_site_fract_x
 _atom_site_fract_y
 _atom_site_fract_z
 _atom_site_occupancy
  V  V0  1  0.50252676  0.87480235  0.87705265  1
  V  V1  1  0.87994051  0.73430836  0.62642525  1
  V  V2  1  0.37486865  0.87262461  -0.00037067  1
  V  V3  1  0.61665429  0.11895865  0.49408489  1
  V  V4  1  0.75281452  0.87041178  0.62351806  1
  V  V5  1  0.88432929  0.87355838  -0.00349131  1
  V  V6  1  0.74468856  -0.00009867  0.23939134  1
  V  V7  1  0.88439019  -0.00490596  0.87273455  1
  V  V8  1  0.75550786  0.50084951  0.25821183  1
  V  V9  1  0.62844576  0.49761278  0.12482024  1
  V  V10  1  0.24860083  0.76177954  0.52058348  1
  V  V11  1  0.73565416  0.37689937  0.62528995  1
  V  V12  1  0.11849171  0.75618288  0.87748510  1
  V  V13  1  0.39041366  -0.01039674  0.37988103  1
  V  V14  1  0.75589564  0.74752187  0.00048725  1
  V  V15  1  -0.00318173  0.48030916  0.00315729  1
  V  V16  1  0.24867383  0.00261944  0.25483356  1
  V  V17  1  0.74181012  0.49795729  0.74499675  1
  V  V18  1  0.24266261  0.39143089  0.12229396  1
  V  V19  1  0.62266955  0.87648341  0.24449900  1
  V  V20  1  0.12360626  0.12552154  0.00632348  1
  V  V21  1  0.74846034  0.24970674  0.49760534  1
  V  V22  1  0.50499426  0.62458860  0.62501754  1
  V  V23  1  0.11767073  0.26022120  0.87681342  1
  V  V24  1  0.62349302  -0.00232057  0.62033468  1
  V  V25  1  0.87255839  0.00016292  0.37348638  1
  V  V26  1  0.24998867  0.25442044  -0.00150924  1
  V  V27  1  0.37860597  0.37856295  -0.00280069  1
  V  V28  1  -0.00261331  0.26071441  0.75396837  1
  V  V29  1  0.88097651  0.37329977  0.48643964  1
  V  V30  1  0.76580168  0.62122398  0.86990081  1
  V  V31  1  0.23988334  0.50888672  0.24815311  1
  V  V32  1  0.62796956  0.24643194  0.89232285  1
  V  V33  1  0.75123962  -0.00105461  0.74848078  1
  V  V34  1  0.24836685  0.88213172  0.12537703  1
  V  V35  1  0.25840535  0.63189425  0.37603816  1
  V  V36  1  0.24753401  0.12848171  0.87689442  1
  V  V37  1  0.74807862  0.12484441  0.88633702  1
  V  V38  1  0.37657531  0.00121358  0.87630216  1
  V  V39  1  0.12457384  0.00005204  0.62578475  1
  V  V40  1  0.24504436  0.50169799  0.74258581  1
  V  V41  1  0.74878088  0.12344194  0.37269917  1
  V  V42  1  0.37403562  0.12656355  0.75063086  1
  V  V43  1  0.37192779  0.25694569  0.13803079  1
  V  V44  1  0.25164152  0.12267113  0.38549920  1
  V  V45  1  0.12304759  0.61942788  0.51558752  1
  V  V46  1  0.50610685  0.37688812  0.86867129  1
  V  V47  1  -0.00171714  0.00240641  0.50223708  1
  V  V48  1  0.37230425  0.74603981  0.13158417  1
  V  V49  1  0.87475658  0.25432555  0.62317340  1
  V  V50  1  0.50101416  0.12172681  0.62327862  1
  V  V51  1  0.88174249  0.47914949  0.87016807  1
  V  V52  1  -0.00134026  0.00203995  0.00527432  1
  V  V53  1  0.24722688  0.74926141  0.00172640  1
  V  V54  1  0.00199040  0.87895434  0.37466694  1
  V  V55  1  0.00732662  0.49364727  0.50615495  1
  V  V56  1  0.37508481  0.63004664  0.74469399  1
  V  V57  1  0.37280676  0.24936427  0.62577861  1
  V  V58  1  0.24774669  -0.01009851  0.75039501  1
  V  V59  1  0.87408858  0.24957934  0.10562547  1
  V  V60  1  0.51192274  0.25165643  0.74757373  1
  V  V61  1  -0.00312195  0.62161976  0.12929105  1
  V  V62  1  0.12232379  0.87688163  0.25046145  1
  V  V63  1  0.62841508  0.74613399  0.87244995  1
  V  V64  1  0.87310599  0.12714147  0.75013150  1
  V  V65  1  0.49743476  0.37447002  0.37195724  1
  V  V66  1  0.87586089  0.87219986  0.50118859  1
  V  V67  1  0.37684045  0.50959318  0.36669688  1
  V  V68  1  0.75645563  0.74212519  0.49110121  1
  V  V69  1  0.49727423  0.75024589  0.25353532  1
  V  V70  1  0.62640895  0.74959485  0.37368487  1
  V  V71  1  0.49982115  0.74896970  0.74679439  1
  V  V72  1  0.12584271  0.74776156  0.37834047  1
  V  V73  1  0.63189355  0.61950778  0.49772544  1
  V  V74  1  0.75499787  0.37188889  0.11186584  1
  V  V75  1  0.50002732  0.50383829  0.50465055  1
  V  V76  1  0.49973887  0.62414171  0.12801747  1
  V  V77  1  0.10989558  0.87809377  0.75289870  1
  V  V78  1  0.37349052  0.37828183  0.50203079  1
  V  V79  1  0.12003348  0.61974936  0.00696336  1
  V  V80  1  0.87923851  0.12823242  0.23634032  1
  V  V81  1  -0.00390725  0.73321882  0.74919369  1
  V  V82  1  0.24360764  0.24869678  0.50010671  1
  V  V83  1  0.62863969  0.62467041  -0.00185287  1
  V  V84  1  0.25093284  0.62523378  0.87643748  1
  Zn  Zn85  1  0.88790202  0.50402440  0.37255441  1
  Zn  Zn86  1  0.62821083  0.87258445  0.74826330  1
  Zn  Zn87  1  -0.00157525  0.12698536  0.62646361  1
  Zn  Zn88  1  0.39031633  0.87425819  0.51292503  1
  Zn  Zn89  1  0.50278926  0.50152300  -0.00279288  1
  Zn  Zn90  1  0.51781609  0.12221227  0.12486892  1
  Zn  Zn91  1  0.37565047  0.12111500  0.25049284  1
  Zn  Zn92  1  0.62481239  0.37565131  0.25002073  1
  Zn  Zn93  1  0.11730902  0.00762237  0.13170646  1
  Zn  Zn94  1  0.12119436  0.12854564  0.50142167  1
  Zn  Zn95  1  0.62047061  0.25039803  0.37487230  1
  Zn  Zn96  1  0.86484784  0.63373449  0.25719976  1
  Zn  Zn97  1  0.10965936  0.37051472  0.27720515  1
  Zn  Zn98  1  0.50244666  0.24966450  0.25035471  1
  Zn  Zn99  1  0.24391271  0.38196302  0.62465561  1
  Zn  Zn100  1  0.74827179  0.87875958  0.11769633  1
  Zn  Zn101  1  0.87721423  0.75099121  0.12729213  1
  Zn  Zn102  1  -0.00176005  0.74804670  0.25001818  1
  Zn  Zn103  1  -0.00102893  0.25897411  0.25704883  1
  Zn  Zn104  1  0.52349948  0.00651263  0.00726699  1
  Zn  Zn105  1  0.11237815  0.38852546  0.74824581  1
  Zn  Zn106  1  0.37913948  0.50227641  0.87291885  1
  Zn  Zn107  1  0.19150262  0.19194641  0.19152358  1
  Zn  Zn108  1  0.18403341  0.18724177  0.68833047  1
  Zn  Zn109  1  0.18474786  0.68802539  0.19041204  1
  Zn  Zn110  1  0.18317766  0.68850267  0.69222470  1
  Zn  Zn111  1  0.68748385  0.19639202  0.19197231  1
  Zn  Zn112  1  0.69000101  0.18499562  0.68465873  1
  Zn  Zn113  1  0.68788198  0.68558443  0.18566541  1
  Zn  Zn114  1  0.69071699  0.68195438  0.68515147  1
  Zn  Zn115  1  0.28599062  0.32683440  0.32308264  1
  Zn  Zn116  1  0.31467423  0.31503863  0.81239089  1
  Zn  Zn117  1  0.31231840  0.81447795  0.31559462  1
  Zn  Zn118  1  0.31114231  0.81143872  0.81004417  1
  Zn  Zn119  1  0.80751425  0.31235870  0.30599375  1
  Zn  Zn120  1  0.80371508  0.31230889  0.81132769  1
  Zn  Zn121  1  0.81276109  0.81368999  0.31061341  1
  Zn  Zn122  1  0.81771210  0.81096173  0.81152358  1
  Zn  Zn123  1  0.18788924  0.44100660  0.43681843  1
  Zn  Zn124  1  0.18546605  0.44093189  0.93549214  1
  Zn  Zn125  1  0.18784114  0.94023289  0.43820228  1
  Zn  Zn126  1  0.18641848  0.93907098  0.93812940  1
  Zn  Zn127  1  0.68634322  0.43617167  0.44000764  1
  Zn  Zn128  1  0.68698643  0.43655407  0.93338841  1
  Zn  Zn129  1  0.68419817  0.93331653  0.43316719  1
  Zn  Zn130  1  0.69544576  0.93137002  0.92979965  1
  Zn  Zn131  1  0.37475634  0.06651590  0.06244992  1
  Zn  Zn132  1  0.32945276  0.02846833  0.57785399  1
  Zn  Zn133  1  0.31720613  0.56469859  0.05905455  1
  Zn  Zn134  1  0.31538830  0.57277807  0.56073452  1
  Zn  Zn135  1  0.69027799  0.06548940  0.06076876  1
  Zn  Zn136  1  0.81020472  0.06356255  0.56108122  1
  Zn  Zn137  1  0.81964193  0.55766810  0.06131705  1
  Zn  Zn138  1  0.81757804  0.55646541  0.55958829  1
  Zn  Zn139  1  0.43504957  0.44118021  0.18808801  1
  Zn  Zn140  1  0.43495114  0.43975336  0.68850526  1
  Zn  Zn141  1  0.43693127  0.93465577  0.19143171  1
  Zn  Zn142  1  0.43967723  0.93348264  0.68921081  1
  Zn  Zn143  1  0.93904302  0.43264504  0.18517595  1
  Zn  Zn144  1  0.93079152  0.44119533  0.68337432  1
  Zn  Zn145  1  0.93203142  0.93888222  0.18403373  1
  Zn  Zn146  1  0.93712837  0.93357313  0.68581337  1
  Zn  Zn147  1  0.04801013  0.09556887  0.32790965  1
  Zn  Zn148  1  0.06074662  0.07079413  0.81482830  1
  Zn  Zn149  1  0.06164118  0.56152385  0.32096418  1
  Zn  Zn150  1  0.06227856  0.56220063  0.82238770  1
  Zn  Zn151  1  0.56009625  0.06612807  0.30162129  1
  Zn  Zn152  1  0.56475347  0.06283324  0.81272825  1
  Zn  Zn153  1  0.56663517  0.56519196  0.31317311  1
  Zn  Zn154  1  0.56702417  0.56267405  0.81225999  1
  Zn  Zn155  1  0.43077401  0.18471844  0.43516629  1
  Zn  Zn156  1  0.43967303  0.19279423  0.93893693  1
  Zn  Zn157  1  0.44881618  0.71744627  0.45516133  1
  Zn  Zn158  1  0.43797393  0.68768332  0.93863382  1
  Zn  Zn159  1  0.93763680  0.19033924  0.43233301  1
  Zn  Zn160  1  0.93870820  0.18376805  0.93725242  1
  Zn  Zn161  1  0.94264223  0.68066066  0.43453898  1
  Zn  Zn162  1  0.94103701  0.68445734  0.93728193  1
  Zn  Zn163  1  0.07398196  0.30067121  0.09569678  1
  Zn  Zn164  1  0.06356787  0.31799694  0.56965515  1
  Zn  Zn165  1  0.06009987  0.81202126  0.06487501  1
  Zn  Zn166  1  0.06496671  0.81369654  0.56714523  1
  Zn  Zn167  1  0.55954931  0.31412366  0.06456577  1
  Zn  Zn168  1  0.55934889  0.30887897  0.55647627  1
  Zn  Zn169  1  0.56456088  0.81232406  0.06244047  1
  Zn  Zn170  1  0.56714040  0.81138713  0.56243606  1
  O  O171  1  0.14093504  0.12209261  0.10884147  1
  O  O172  1  0.11779354  0.11461353  0.62488590  1
  O  O173  1  0.12268651  0.62829042  0.11129770  1
  O  O174  1  0.12792445  0.62573525  0.61387836  1
  O  O175  1  0.62939617  0.12789789  0.12867129  1
  O  O176  1  0.62306785  0.11675552  0.61513861  1
  O  O177  1  0.61987064  0.61814929  0.11690773  1
  O  O178  1  0.61343415  0.62824398  0.61585352  1
  O  O179  1  0.37972687  0.38842434  0.38347864  1
  O  O180  1  0.38523472  0.37683739  0.88109468  1
  O  O181  1  0.37027359  0.88701663  0.38019001  1
  O  O182  1  0.38228527  0.87996822  0.87653485  1
  O  O183  1  0.86894534  0.37277176  0.38510340  1
  O  O184  1  0.87092353  0.38108258  0.87563295  1
  O  O185  1  0.88250873  0.88070345  0.38108042  1
  O  O186  1  0.87177061  0.88536666  0.88031346  1
  O  O187  1  0.25763304  0.00573340  0.37153417  1
  O  O188  1  0.25223007  0.00864994  0.86732285  1
  O  O189  1  0.25890341  0.51387493  0.36920157  1
  O  O190  1  0.25218259  0.51449744  0.86900474  1
  O  O191  1  0.75409992  0.00529888  0.36969552  1
  O  O192  1  0.76016609  0.00631784  0.86409363  1
  O  O193  1  0.74665003  0.49384109  0.35924739  1
  O  O194  1  0.75964271  0.50178567  0.86748542  1
  O  O195  1  0.25906705  0.50026004  0.13257893  1
  O  O196  1  0.25694718  0.50617703  0.64019745  1
  O  O197  1  0.25352809  0.98615354  0.13364639  1
  O  O198  1  0.23540602  1.01386070  0.64324906  1
  O  O199  1  0.74630130  0.49012859  0.12788076  1
  O  O200  1  0.75691717  0.49275583  0.63752887  1
  O  O201  1  0.75268469  0.99896869  0.13741832  1
  O  O202  1  0.74303087  0.99390830  0.62861903  1
  O  O203  1  0.00022223  0.37486222  0.25582211  1
  O  O204  1  -0.00599048  0.36415981  0.74788152  1
  O  O205  1  0.01084746  0.88032212  0.25318787  1
  O  O206  1  0.00783221  0.87021204  0.75411105  1
  O  O207  1  0.49948865  0.37838418  0.26032767  1
  O  O208  1  0.49389428  0.36709178  0.76022578  1
  O  O209  1  0.50913450  0.86239548  0.24462848  1
  O  O210  1  0.50080444  0.86658186  0.75990904  1
  O  O211  1  0.49039142  0.13286566  0.24169364  1
  O  O212  1  0.49422914  0.13251490  0.74521374  1
  O  O213  1  0.50712437  0.63066076  0.23402688  1
  O  O214  1  0.49553934  0.62878106  0.74609847  1
  O  O215  1  0.97778989  0.10725792  0.23394411  1
  O  O216  1  0.98472149  0.13256661  0.74942495  1
  O  O217  1  1.00938230  0.62029055  0.23530299  1
  O  O218  1  1.00687419  0.63513118  0.74992562  1
  O  O219  1  0.36782496  0.26472173  0.00319439  1
  O  O220  1  0.37234859  0.25848886  0.50945539  1
  O  O221  1  0.36682586  0.75531764  0.00557579  1
  O  O222  1  0.34922469  0.74881423  0.50519536  1
  O  O223  1  0.87048442  0.24321530  0.00713136  1
  O  O224  1  0.87094972  0.25254203  0.50492068  1
  O  O225  1  0.87148409  0.75585365  -0.00347502  1
  O  O226  1  0.87297534  0.75161377  0.50560954  1
  O  O227  1  0.14085420  0.24758171  0.50834495  1
  O  O228  1  0.12997780  0.24505196  0.99660836  1
  O  O229  1  0.12963981  0.74258848  0.49759994  1
  O  O230  1  0.12838710  0.74526988  0.99369298  1
  O  O231  1  0.63075608  0.23848618  0.49564711  1
  O  O232  1  0.61923103  0.24613965  0.99035116  1
  O  O233  1  0.63798906  0.73997969  0.49316024  1
  O  O234  1  0.63550225  0.74578998  0.99249490  1
  O  O235  1  0.48022169  0.25585887  0.12638726  1
  O  O236  1  0.49132131  0.24491280  0.62994965  1
  O  O237  1  0.49309975  0.74418955  0.13098783  1
  O  O238  1  0.50578662  0.74327713  0.64187005  1
  O  O239  1  0.97465810  0.24982877  0.12480908  1
  O  O240  1  0.98921086  0.24721112  0.63312565  1
  O  O241  1  0.99964778  0.73820679  0.12747045  1
  O  O242  1  0.99444700  0.75423927  0.63958647  1
  O  O243  1  0.01627479  0.20425178  0.35662841  1
  O  O244  1  0.00663313  0.24592820  0.86784685  1
  O  O245  1  0.01338473  0.75889689  0.37668676  1
  O  O246  1  0.00669389  0.74532720  0.86281062  1
  O  O247  1  0.49328013  0.26255405  0.37547526  1
  O  O248  1  0.51064080  0.25348319  0.86725178  1
  O  O249  1  0.50945407  0.73487847  0.35648399  1
  O  O250  1  0.50516690  0.75459629  0.86684252  1
  O  O251  1  0.25512334  0.12916248  0.49434842  1
  O  O252  1  0.24739038  0.13223736  0.98513668  1
  O  O253  1  0.23887629  0.63388412  0.49639622  1
  O  O254  1  0.24328535  0.62910949  0.99364638  1
  O  O255  1  0.74165830  0.12704785  0.48932621  1
  O  O256  1  0.75789738  0.12029637  0.98425798  1
  O  O257  1  0.74264186  0.62955850  0.50716007  1
  O  O258  1  0.74956072  0.62820455  0.99132005  1
  O  O259  1  0.25940733  0.37933242  0.00308208  1
  O  O260  1  0.26236510  0.36863165  0.50508579  1
  O  O261  1  0.25065899  0.86807718  0.00862067  1
  O  O262  1  0.24107449  0.86190344  0.50162429  1
  O  O263  1  0.74650649  0.37828611  0.01316205  1
  O  O264  1  0.75725689  0.37008663  0.50567695  1
  O  O265  1  0.76288990  0.86259989  -0.00396882  1
  O  O266  1  0.75589255  0.86357359  0.50369549  1
  O  O267  1  0.13885824  0.49836779  0.25749092  1
  O  O268  1  0.14076646  0.50452494  0.75864830  1
  O  O269  1  0.13656753  0.99464800  0.24966265  1
  O  O270  1  0.12635614  0.99510684  0.75006121  1
  O  O271  1  0.63174870  0.49931569  0.23815014  1
  O  O272  1  0.64257144  0.49835628  0.75408539  1
  O  O273  1  0.63199307  0.98731148  0.25688050  1
  O  O274  1  0.63504954  0.99847746  0.74267749  1
  O  O275  1  0.36024992  -0.00445366  0.25822896  1
  O  O276  1  0.36621971  0.00391597  0.76231189  1
  O  O277  1  0.37115939  0.50450102  0.26386587  1
  O  O278  1  0.36868313  0.51484573  0.75324853  1
  O  O279  1  0.86363474  0.00602314  0.25358076  1
  O  O280  1  0.87219084  0.00661900  0.75267082  1
  O  O281  1  0.86228095  0.49809987  0.25089759  1
  O  O282  1  0.86829900  0.49516352  0.76480958  1
  O  O283  1  0.17964500  0.35988564  0.36306799  1
  O  O284  1  0.13067828  0.36316471  0.86796399  1
  O  O285  1  0.12099524  0.87125575  0.36875075  1
  O  O286  1  0.12872532  0.86244848  0.87099453  1
  O  O287  1  0.60668524  0.37735119  0.38043951  1
  O  O288  1  0.61931262  0.35925998  0.87712054  1
  O  O289  1  0.62878147  0.85730388  0.36525092  1
  O  O290  1  0.61766608  0.86561044  0.86986778  1
  O  O291  1  0.35180958  0.15244804  0.13351239  1
  O  O292  1  0.38297407  0.12673164  0.63101417  1
  O  O293  1  0.38388196  0.63827799  0.11826593  1
  O  O294  1  0.39023212  0.62566272  0.63277743  1
  O  O295  1  0.85801968  0.14022680  0.13631407  1
  O  O296  1  0.87052890  0.13694775  0.63086813  1
  O  O297  1  0.88450172  0.62723526  0.12857462  1
  O  O298  1  0.87444042  0.63554446  0.62139113  1
  O  O299  1  0.25709472  0.27238436  0.11702638  1
  O  O300  1  0.26299148  0.24401479  0.62021669  1
  O  O301  1  0.25560875  0.75677408  0.12378789  1
  O  O302  1  0.24132601  0.75456256  0.62011994  1
  O  O303  1  0.75859883  0.26552663  0.13084324  1
  O  O304  1  0.75481700  0.25573847  0.61788153  1
  O  O305  1  0.75217890  0.74613907  0.10847574  1
  O  O306  1  0.75879700  0.75213983  0.61747122  1
  O  O307  1  0.26940880  0.23082272  0.38897483  1
  O  O308  1  0.24453830  0.24645096  0.87845943  1
  O  O309  1  0.23898926  0.74790326  0.37909091  1
  O  O310  1  0.24240912  0.74109995  0.87821667  1
  O  O311  1  0.74809867  0.23985724  0.38019676  1
  O  O312  1  0.73457909  0.24199962  0.87017122  1
  O  O313  1  0.74697498  0.75076046  0.38605000  1
  O  O314  1  0.75066635  0.73980320  0.87983366  1
  O  O315  1  0.01131461  0.11506512  -0.00445555  1
  O  O316  1  -0.00252872  0.11188241  0.50406806  1
  O  O317  1  0.00604917  0.62124289  0.00930810  1
  O  O318  1  0.01842250  0.61944360  0.50030741  1
  O  O319  1  0.47492582  0.11573206  0.01066907  1
  O  O320  1  0.51112730  0.12959538  0.50420246  1
  O  O321  1  0.50839498  0.62653002  0.00925196  1
  O  O322  1  0.50586108  0.62284137  0.50776382  1
  O  O323  1  0.48951621  0.38414087  0.49719103  1
  O  O324  1  0.49478153  0.37544658  0.98760905  1
  O  O325  1  0.48820164  0.82313120  0.48830853  1
  O  O326  1  0.49518440  0.87190156  0.98815036  1
  O  O327  1  0.99267706  0.37710304  0.50132395  1
  O  O328  1  1.00929087  0.38412393  1.01120964  1
  O  O329  1  0.99676625  0.88463742  0.49692813  1
  O  O330  1  0.99145940  0.87933669  0.99850442  1
  O  O331  1  0.49304537  0.50071129  0.38498291  1
  O  O332  1  0.50266689  0.49076114  0.87492094  1
  O  O333  1  0.48788352  0.99746655  0.36133241  1
  O  O334  1  0.49218737  0.99202798  0.87520493  1
  O  O335  1  1.00419694  0.49925517  0.39498175  1
  O  O336  1  0.98823014  0.49645572  0.88140149  1
  O  O337  1  0.99462408  0.99884521  0.38343592  1
  O  O338  1  0.98907416  1.00581398  0.87908895  1
  O  O339  1  0.00114940  -0.00490857  0.10955656  1
  O  O340  1  0.00337199  0.00147148  0.61863798  1
  O  O341  1  -0.00860590  0.50577039  0.10892964  1
  O  O342  1  -0.00654478  0.49743058  0.60815070  1
  O  O343  1  0.46864528  0.00835448  0.11362584  1
  O  O344  1  0.51752384  0.00526688  0.63378992  1
  O  O345  1  0.50790214  0.50721774  0.12291181  1
  O  O346  1  0.49590332  0.50634700  0.61260306  1
  O  O347  1  0.25912070  0.39272325  0.22897221  1
  O  O348  1  0.25864978  0.39667804  0.75231058  1
  O  O349  1  0.23921688  0.87895643  0.24622511  1
  O  O350  1  0.23821052  0.88596023  0.75870213  1
  O  O351  1  0.74641623  0.38669774  0.23963568  1
  O  O352  1  0.75205962  0.38568876  0.73922787  1
  O  O353  1  0.74283365  0.88396026  0.24852296  1
  O  O354  1  0.75173595  0.87929096  0.74175252  1
  O  O355  1  0.25028705  0.11863690  0.26192872  1
  O  O356  1  0.25362898  0.12129617  0.76148450  1
  O  O357  1  0.24761742  0.62234136  0.26132950  1
  O  O358  1  0.25612871  0.62200936  0.75591634  1
  O  O359  1  0.75318861  0.11803693  0.26050136  1
  O  O360  1  0.75985323  0.12004312  0.75299647  1
  O  O361  1  0.74883577  0.60560191  0.24027581  1
  O  O362  1  0.74984205  0.61111600  0.75639409  1
  O  O363  1  0.36755824  0.11118051  0.37111529  1
  O  O364  1  0.36902315  0.11926477  0.86978345  1
  O  O365  1  0.36313241  0.62415471  0.38739645  1
  O  O366  1  0.36677520  0.62613886  0.86965199  1
  O  O367  1  0.86387626  0.11644648  0.36807250  1
  O  O368  1  0.86754528  0.11932725  0.86581677  1
  O  O369  1  0.88004104  0.61895056  0.36888343  1
  O  O370  1  0.86730279  0.61642345  0.87711103  1
  O  O371  1  0.14477428  0.39340991  0.10863848  1
  O  O372  1  0.13410304  0.36589814  0.64006778  1
  O  O373  1  0.13181637  0.87658020  0.13334866  1
  O  O374  1  0.11947969  0.88996730  0.63789882  1
  O  O375  1  0.63218553  0.38246960  0.12428466  1
  O  O376  1  0.63648271  0.37056773  0.61494062  1
  O  O377  1  0.63086376  0.86616398  0.13864584  1
  O  O378  1  0.63272637  0.88037117  0.62508881  1
  O  O379  1  0.11151843  0.26797574  0.20801739  1
  O  O380  1  0.11132774  0.24398627  0.76112509  1
  O  O381  1  0.12226492  0.75949419  0.26002214  1
  O  O382  1  0.11456072  0.75725649  0.75645592  1
  O  O383  1  0.62037100  0.25942501  0.25880114  1
  O  O384  1  0.61331041  0.24573888  0.74714092  1
  O  O385  1  0.62222796  0.75232497  0.25593346  1
  O  O386  1  0.61936326  0.74762292  0.75577639  1
  O  O387  1  0.36628126  0.26508459  0.23984829  1
  O  O388  1  0.38188758  0.24583051  0.74323357  1
  O  O389  1  0.38260868  0.75524009  0.24231018  1
  O  O390  1  0.38255295  0.73894225  0.75494373  1
  O  O391  1  0.87533701  0.23448808  0.25310023  1
  O  O392  1  0.87606285  0.24499328  0.74393375  1
  O  O393  1  0.88023522  0.75026443  0.24644090  1
  O  O394  1  0.88888351  0.74981975  0.74391922  1
  O  O395  1  0.37929652  0.49641551  0.49429485  1
  O  O396  1  0.38056062  0.49113051  0.99510612  1
  O  O397  1  0.38548114  1.00186653  0.48198237  1
  O  O398  1  0.35749809  0.98734021  0.98182451  1
  O  O399  1  0.88258992  0.48761316  0.49587917  1
  O  O400  1  0.88768691  0.49780001  0.98642916  1
  O  O401  1  0.87998023  0.99389416  0.49642965  1
  O  O402  1  0.88522800  0.99028018  0.98795872  1
  O  O403  1  0.11679640  0.00756392  -0.00179377  1
  O  O404  1  0.11645489  -0.00060497  0.51067345  1
  O  O405  1  0.10752287  0.51021243  -0.01452547  1
  O  O406  1  0.12519858  0.51027474  0.50142329  1
  O  O407  1  0.63273371  -0.00745045  -0.00276688  1
  O  O408  1  0.62999386  0.00582604  0.50742477  1
  O  O409  1  0.62576996  0.50548508  0.00929570  1
  O  O410  1  0.61606805  0.51166016  0.49482575  1
  O  O411  1  0.37098615  0.37430514  0.11474774  1
  O  O412  1  0.37260333  0.36685096  0.61966874  1
  O  O413  1  0.36678527  0.86304942  0.11987787  1
  O  O414  1  0.36275371  0.91938645  0.61357397  1
  O  O415  1  0.86278011  0.36436079  0.12304694  1
  O  O416  1  0.86602841  0.36293898  0.61764369  1
  O  O417  1  0.87051494  0.87203213  0.11157711  1
  O  O418  1  0.87056956  0.86613010  0.61786236  1
  O  O419  1  0.14775476  0.11291124  0.38508943  1
  O  O420  1  0.13192844  0.13507125  0.88275922  1
  O  O421  1  0.13458843  0.63464932  0.38343597  1
  O  O422  1  0.13094082  0.63641485  0.88429966  1
  O  O423  1  0.63028062  0.12198503  0.37996426  1
  O  O424  1  0.63173758  0.13710625  0.87073398  1
  O  O425  1  0.62528028  0.63550555  0.38455846  1
  O  O426  1  0.63588115  0.62812877  0.88063645  1
