# generated using pymatgen
data_V85Zn86O256
_symmetry_space_group_name_H-M   'P 1'
_cell_length_a   16.95338516
_cell_length_b   16.95794042
_cell_length_c   16.96857528
_cell_angle_alpha   89.95358366
_cell_angle_beta   89.98837329
_cell_angle_gamma   90.01644319
_symmetry_Int_Tables_number   1
_chemical_formula_structural   V85Zn86O256
_chemical_formula_sum   'V85 Zn86 O256'
_cell_volume   4878.37008774
_cell_formula_units_Z   1
loop_
 _symmetry_equiv_pos_site_id
 _symmetry_equiv_pos_as_xyz
  1  'x, y, z'
loop_
 _atom_site_type_symbol
 _atom_site_label
 _atom_site_symmetry_multiplicity
 _atom_site_fract_x
 _atom_site_fract_y
 _atom_site_fract_z
 _atom_site_occupancy
  V  V0  1  -0.00353072  0.50793842  0.50785060  1
  V  V1  1  0.87476814  0.12657111  0.75062233  1
  V  V2  1  0.12750952  0.12588791  0.49610779  1
  V  V3  1  -0.00115521  0.87304031  0.87685976  1
  V  V4  1  0.88294879  0.61470381  0.77062611  1
  V  V5  1  0.13055895  0.63555068  0.49762595  1
  V  V6  1  0.87236218  -0.00039068  0.87371503  1
  V  V7  1  0.62518685  0.87715551  0.24325840  1
  V  V8  1  0.50165744  0.87341393  0.88446246  1
  V  V9  1  0.37926462  0.37101373  0.50808511  1
  V  V10  1  0.49511923  0.25145280  0.74480664  1
  V  V11  1  0.12746206  0.49615088  0.12440341  1
  V  V12  1  0.37355704  0.00251605  0.37373786  1
  V  V13  1  0.00169121  0.62711605  0.12456398  1
  V  V14  1  0.50139446  0.37480787  0.37607117  1
  V  V15  1  0.24831122  0.12207906  0.87195539  1
  V  V16  1  0.12945411  0.87264613  0.24434536  1
  V  V17  1  0.62373098  0.63395093  0.49918230  1
  V  V18  1  0.25826224  0.24431479  0.50581180  1
  V  V19  1  0.24681764  0.24777100  -0.00109451  1
  V  V20  1  0.62976862  0.36669114  0.75476890  1
  V  V21  1  0.37444613  0.76571130  0.12098380  1
  V  V22  1  0.24492972  0.37256967  0.12850972  1
  V  V23  1  0.00552027  0.75207828  0.25282457  1
  V  V24  1  0.81520253  0.81775755  -0.05829214  1
  V  V25  1  0.74948908  0.64162008  0.37641017  1
  V  V26  1  0.63182836  0.25100823  0.37926772  1
  V  V27  1  0.87016307  0.75230287  0.11890972  1
  V  V28  1  0.62398468  0.75360698  0.37420920  1
  V  V29  1  0.49985347  0.24753384  0.24792480  1
  V  V30  1  0.50669424  0.36919782  0.87990738  1
  V  V31  1  0.75203847  0.87534726  0.11625672  1
  V  V32  1  0.50068859  0.00159579  0.50180928  1
  V  V33  1  0.62611120  0.37683379  0.25068963  1
  V  V34  1  0.12536215  0.37218744  0.74664195  1
  V  V35  1  0.13494371  -0.00663604  0.62491639  1
  V  V36  1  0.62462926  0.01159467  0.12002854  1
  V  V37  1  0.75138374  0.50460395  0.76380262  1
  V  V38  1  0.00713172  0.86839200  0.38083232  1
  V  V39  1  -0.00455895  0.00189772  -0.00018646  1
  V  V40  1  0.12708660  0.74969800  0.87493824  1
  V  V41  1  0.25308720  0.76497354  0.00396821  1
  V  V42  1  0.51553711  0.75974823  0.75161585  1
  V  V43  1  0.37274206  0.12632753  0.74300350  1
  V  V44  1  0.87682603  0.37423142  0.00063633  1
  V  V45  1  -0.01272474  0.12635263  0.13563825  1
  V  V46  1  0.36261099  0.87434893  0.50321255  1
  V  V47  1  0.38020363  0.24491818  0.12490115  1
  V  V48  1  0.11978034  0.50756395  0.62969243  1
  V  V49  1  0.37590725  0.37625645  -0.00014318  1
  V  V50  1  0.87488623  0.50440625  0.37635354  1
  V  V51  1  0.37991818  0.62790709  0.75040826  1
  V  V52  1  0.87302734  0.63268980  0.24929717  1
  V  V53  1  0.19556886  0.44172248  0.29292007  1
  V  V54  1  0.36679602  0.75960849  0.62747923  1
  V  V55  1  0.64106537  0.62994257  -0.00538136  1
  V  V56  1  0.62242024  0.50701098  0.12601038  1
  V  V57  1  0.75763565  0.12490858  0.36985989  1
  V  V58  1  0.49976977  0.50346460  0.50006535  1
  V  V59  1  0.49889246  0.74183295  0.24251990  1
  V  V60  1  0.74955044  0.50441567  0.25141557  1
  V  V61  1  0.49973863  0.51052966  0.00249560  1
  V  V62  1  0.25376905  0.49980218  0.74886929  1
  V  V63  1  0.74519985  -0.00499294  0.74561055  1
  V  V64  1  0.25356980  0.62508917  0.87617151  1
  V  V65  1  0.38014841  0.12557969  0.24485444  1
  V  V66  1  0.50137117  0.63070796  0.62598400  1
  V  V67  1  0.50079690  0.87688650  0.37219510  1
  V  V68  1  0.63200251  0.12774827  0.50293654  1
  V  V69  1  0.75745362  0.36864043  0.12819971  1
  V  V70  1  0.62737780  -0.01212366  0.62664582  1
  V  V71  1  -0.00476418  0.37635022  0.87382061  1
  V  V72  1  0.86788515  0.24795995  0.61003628  1
  V  V73  1  0.49094268  0.00822915  0.00261539  1
  V  V74  1  0.62881925  0.49946542  0.62571671  1
  V  V75  1  0.86060683  0.87209211  0.50833087  1
  V  V76  1  0.00077548  -0.00369977  0.50088829  1
  V  V77  1  0.25174315  -0.00308722  0.23993693  1
  V  V78  1  0.13185887  0.87186783  0.74762294  1
  V  V79  1  0.00081591  0.12378092  0.62198331  1
  V  V80  1  0.37544893  0.49801521  0.36878068  1
  V  V81  1  0.13030727  0.62458759  0.00202570  1
  V  V82  1  0.87431851  0.73275646  0.61953858  1
  V  V83  1  0.74007437  0.13454041  0.87484218  1
  V  V84  1  0.36856107  0.61810739  0.23858482  1
  Zn  Zn85  1  0.25534671  -0.00630151  0.74861755  1
  Zn  Zn86  1  0.24858688  0.13036510  0.37066925  1
  Zn  Zn87  1  0.00706870  0.38422203  0.36831557  1
  Zn  Zn88  1  0.00108806  0.25010011  0.74717276  1
  Zn  Zn89  1  0.49957709  0.12895950  0.62473374  1
  Zn  Zn90  1  -0.00414328  0.50011732  -0.00309545  1
  Zn  Zn91  1  0.00237924  0.74172741  0.74681864  1
  Zn  Zn92  1  0.86856986  0.37922168  0.49863281  1
  Zn  Zn93  1  0.63716866  0.75273802  0.87786590  1
  Zn  Zn94  1  0.12023645  0.12453669  0.00136259  1
  Zn  Zn95  1  0.74784318  0.25140273  0.00174138  1
  Zn  Zn96  1  0.74889572  0.36993063  0.62261646  1
  Zn  Zn97  1  0.37838865  0.50084685  0.87460115  1
  Zn  Zn98  1  0.25820631  0.36769104  0.63108175  1
  Zn  Zn99  1  0.87887536  0.00069659  0.37260962  1
  Zn  Zn100  1  0.75781833  0.00674259  0.24229639  1
  Zn  Zn101  1  0.12463023  -0.00149957  0.12117834  1
  Zn  Zn102  1  0.12304124  0.24831296  0.87170130  1
  Zn  Zn103  1  0.24723671  0.64370542  0.37550184  1
  Zn  Zn104  1  0.61420610  0.13781259  -0.00244736  1
  Zn  Zn105  1  0.37162115  -0.00733635  0.87542539  1
  Zn  Zn106  1  0.00150698  0.26852565  0.23956501  1
  Zn  Zn107  1  0.18075042  0.18226059  0.18646958  1
  Zn  Zn108  1  0.18841526  0.18775800  0.68116592  1
  Zn  Zn109  1  0.19273710  0.68730341  0.18775880  1
  Zn  Zn110  1  0.18902821  0.68658312  0.68664157  1
  Zn  Zn111  1  0.68963497  0.18918875  0.19144809  1
  Zn  Zn112  1  0.68678842  0.18326512  0.68763703  1
  Zn  Zn113  1  0.68706354  0.68923931  0.18255645  1
  Zn  Zn114  1  0.69269376  0.68137070  0.68658239  1
  Zn  Zn115  1  0.13289465  0.26506217  0.36047292  1
  Zn  Zn116  1  0.31413532  0.31113766  0.81503618  1
  Zn  Zn117  1  0.31168327  0.81301486  0.31043612  1
  Zn  Zn118  1  0.31723966  0.81218767  0.81508975  1
  Zn  Zn119  1  0.81849634  0.31361737  0.30908712  1
  Zn  Zn120  1  0.81774518  0.31320036  0.80887226  1
  Zn  Zn121  1  0.82488093  0.83808544  0.30264278  1
  Zn  Zn122  1  0.79176663  0.79324035  0.76300884  1
  Zn  Zn123  1  0.19430452  0.44259691  0.45900835  1
  Zn  Zn124  1  0.18584874  0.43581403  0.93470232  1
  Zn  Zn125  1  0.18665512  0.93867020  0.43010549  1
  Zn  Zn126  1  0.18262689  0.94059134  0.93451397  1
  Zn  Zn127  1  0.69181200  0.44142125  0.43920824  1
  Zn  Zn128  1  0.68699373  0.43493542  0.94209449  1
  Zn  Zn129  1  0.68641927  0.94162140  0.43558286  1
  Zn  Zn130  1  0.67720073  0.94742647  0.93041855  1
  Zn  Zn131  1  0.31237821  0.06360761  0.06117644  1
  Zn  Zn132  1  0.31464869  0.06115093  0.56476207  1
  Zn  Zn133  1  0.31042470  0.56084732  0.06456726  1
  Zn  Zn134  1  0.31348944  0.56490730  0.56428906  1
  Zn  Zn135  1  0.81399233  0.06136122  0.05586325  1
  Zn  Zn136  1  0.81183740  0.06042976  0.55906834  1
  Zn  Zn137  1  0.81481164  0.55586121  0.06167291  1
  Zn  Zn138  1  0.80308208  0.56187682  0.56026318  1
  Zn  Zn139  1  0.43817454  0.43421415  0.18528108  1
  Zn  Zn140  1  0.44365978  0.44003202  0.69007775  1
  Zn  Zn141  1  0.44120467  0.93912708  0.18435355  1
  Zn  Zn142  1  0.44121643  0.93803919  0.69105848  1
  Zn  Zn143  1  0.93892053  0.44100249  0.18856978  1
  Zn  Zn144  1  0.93798481  0.43607362  0.68636479  1
  Zn  Zn145  1  0.93617074  0.93876816  0.18674030  1
  Zn  Zn146  1  0.93911500  0.93446890  0.68803500  1
  Zn  Zn147  1  0.06459682  0.06023150  0.31209846  1
  Zn  Zn148  1  0.06360730  0.06031380  0.81054328  1
  Zn  Zn149  1  0.06052457  0.57106545  0.31842075  1
  Zn  Zn150  1  0.06455915  0.55846508  0.81704247  1
  Zn  Zn151  1  0.56548106  0.06347841  0.31135453  1
  Zn  Zn152  1  0.55976693  0.06010650  0.81137142  1
  Zn  Zn153  1  0.55966192  0.56551129  0.31258119  1
  Zn  Zn154  1  0.56479041  0.56238554  0.81712587  1
  Zn  Zn155  1  0.43993712  0.18775887  0.43496203  1
  Zn  Zn156  1  0.43227022  0.18832436  0.93038399  1
  Zn  Zn157  1  0.40876834  0.70340276  0.42333093  1
  Zn  Zn158  1  0.43873726  0.69080869  0.93856348  1
  Zn  Zn159  1  0.93416614  0.20784523  0.40312163  1
  Zn  Zn160  1  0.93468897  0.19228948  0.93982991  1
  Zn  Zn161  1  0.94055353  0.68884396  0.44139644  1
  Zn  Zn162  1  0.94436263  0.68365795  0.93630573  1
  Zn  Zn163  1  0.05934486  0.30694733  0.06461771  1
  Zn  Zn164  1  0.04059837  0.29664750  0.52929971  1
  Zn  Zn165  1  0.06174858  0.81460819  0.06144023  1
  Zn  Zn166  1  0.05796548  0.80792096  0.56892999  1
  Zn  Zn167  1  0.56727380  0.31437296  0.06364534  1
  Zn  Zn168  1  0.56526343  0.31328547  0.56422112  1
  Zn  Zn169  1  0.56152592  0.81260437  0.06003316  1
  Zn  Zn170  1  0.55749082  0.81446355  0.56004510  1
  O  O171  1  0.11244303  0.11566487  0.11948572  1
  O  O172  1  0.11662429  0.11176184  0.62251914  1
  O  O173  1  0.12514724  0.61961900  0.11831440  1
  O  O174  1  0.13068424  0.61402778  0.62010730  1
  O  O175  1  0.63145246  0.11392010  0.12586229  1
  O  O176  1  0.62048528  0.12169088  0.61515173  1
  O  O177  1  0.62803734  0.61367019  0.11638305  1
  O  O178  1  0.62228577  0.62218239  0.61718472  1
  O  O179  1  0.38746240  0.38798146  0.38841316  1
  O  O180  1  0.38027658  0.37687978  0.88847419  1
  O  O181  1  0.38352439  0.88898169  0.37928836  1
  O  O182  1  0.39352676  0.87583057  0.87098181  1
  O  O183  1  0.86806214  0.39911477  0.37634971  1
  O  O184  1  0.88468383  0.37332911  0.88040698  1
  O  O185  1  0.88944142  0.86723514  0.39604165  1
  O  O186  1  0.88040526  0.87676438  0.87637522  1
  O  O187  1  0.26043389  0.00305821  0.36378351  1
  O  O188  1  0.25184772  0.00786074  0.87225255  1
  O  O189  1  0.25852211  0.49224992  0.36725159  1
  O  O190  1  0.25259481  0.50565410  0.86488651  1
  O  O191  1  0.74652499  0.01531480  0.37123301  1
  O  O192  1  0.75443407  0.01099642  0.86761566  1
  O  O193  1  0.75272399  0.51692126  0.36809715  1
  O  O194  1  0.74605726  0.49537434  0.86156319  1
  O  O195  1  0.23734979  0.49030258  0.12253753  1
  O  O196  1  0.24691327  0.49956868  0.63863740  1
  O  O197  1  0.25085509  1.00139004  0.13617781  1
  O  O198  1  0.23791982  0.99978150  0.62683681  1
  O  O199  1  0.74305938  0.49503603  0.13516152  1
  O  O200  1  0.73655730  0.50342594  0.63503475  1
  O  O201  1  0.74346839  0.99234583  0.12205771  1
  O  O202  1  0.73883805  1.00932006  0.63203739  1
  O  O203  1  0.00511052  0.38319155  0.25459284  1
  O  O204  1  0.00766414  0.37355849  0.75542860  1
  O  O205  1  0.00676547  0.86849835  0.25877196  1
  O  O206  1  0.00710119  0.87374642  0.76249249  1
  O  O207  1  0.50672743  0.36987757  0.25686098  1
  O  O208  1  0.50758667  0.37110599  0.75915771  1
  O  O209  1  0.51023258  0.86829180  0.24941516  1
  O  O210  1  0.50216457  0.86648538  0.75982454  1
  O  O211  1  0.48862704  0.12880220  0.25345858  1
  O  O212  1  0.49205171  0.13541701  0.75396282  1
  O  O213  1  0.49206015  0.63750122  0.25213253  1
  O  O214  1  0.49628353  0.63170131  0.74761250  1
  O  O215  1  0.99536666  0.10715447  0.23533790  1
  O  O216  1  0.99299471  0.12296478  0.73851437  1
  O  O217  1  0.99445656  0.63475571  0.24450290  1
  O  O218  1  0.98670763  0.61630047  0.75534439  1
  O  O219  1  0.36732050  0.25568174  0.00508206  1
  O  O220  1  0.37294887  0.25923446  0.49537333  1
  O  O221  1  0.36911143  0.74533620  0.01372869  1
  O  O222  1  0.39307265  0.76395700  0.52147233  1
  O  O223  1  0.86579609  0.26656619  -0.00307183  1
  O  O224  1  0.87858672  0.25119907  0.50843731  1
  O  O225  1  0.87543626  0.75175518  0.00200283  1
  O  O226  1  0.87400666  0.75529552  0.51293320  1
  O  O227  1  0.13608258  0.23001035  0.52032031  1
  O  O228  1  0.13834672  0.24905636  0.99883522  1
  O  O229  1  0.12468968  0.73395851  0.51201736  1
  O  O230  1  0.13361653  0.74297516  0.99845536  1
  O  O231  1  0.61792808  0.24113781  0.49067770  1
  O  O232  1  0.63330197  0.24803289  1.00572068  1
  O  O233  1  0.61702936  0.74473216  0.48917143  1
  O  O234  1  0.62320723  0.73328189  1.00227292  1
  O  O235  1  0.48680266  0.26075816  0.13041781  1
  O  O236  1  0.50379630  0.25111530  0.64061023  1
  O  O237  1  0.48741593  0.75428942  0.12965241  1
  O  O238  1  0.49986756  0.74761095  0.63662874  1
  O  O239  1  0.99774319  0.23192098  0.12557421  1
  O  O240  1  0.99098085  0.23680166  0.62072421  1
  O  O241  1  0.98939612  0.74722846  0.12780985  1
  O  O242  1  0.97929025  0.75176160  0.63173935  1
  O  O243  1  0.02723261  0.27383130  0.41290035  1
  O  O244  1  0.00375500  0.25991065  0.87119754  1
  O  O245  1  -0.00236457  0.75510885  0.36408281  1
  O  O246  1  0.00921225  0.75603762  0.87310780  1
  O  O247  1  0.51024482  0.25598412  0.36875107  1
  O  O248  1  0.49589092  0.26378443  0.86739687  1
  O  O249  1  0.50001632  0.75933541  0.36255560  1
  O  O250  1  0.50257372  0.75990841  0.87087801  1
  O  O251  1  0.24652650  0.12673752  0.50031555  1
  O  O252  1  0.24933498  0.13192795  0.99119949  1
  O  O253  1  0.23504837  0.61468183  0.49770001  1
  O  O254  1  0.24244282  0.62905697  0.99641401  1
  O  O255  1  0.73657841  0.12129775  0.49071370  1
  O  O256  1  0.75205406  0.12625263  0.98231745  1
  O  O257  1  0.73355276  0.62493926  0.49021736  1
  O  O258  1  0.73948491  0.62062097  1.00209017  1
  O  O259  1  0.25729083  0.36877288  0.00544581  1
  O  O260  1  0.26300399  0.36680267  0.50855250  1
  O  O261  1  0.24463551  0.86366562  -0.00574537  1
  O  O262  1  0.26399253  0.88229367  0.49477689  1
  O  O263  1  0.75626418  0.37769692  0.01228259  1
  O  O264  1  0.75547798  0.38652974  0.51058011  1
  O  O265  1  0.74766522  0.87790193  -0.00020182  1
  O  O266  1  0.76255709  0.87846285  0.49602149  1
  O  O267  1  0.13007210  0.50909895  0.24396565  1
  O  O268  1  0.13507361  0.49746870  0.74724162  1
  O  O269  1  0.13649360  0.99099445  0.25034340  1
  O  O270  1  0.12619580  0.98990078  0.74126259  1
  O  O271  1  0.62835859  0.49894765  0.24449409  1
  O  O272  1  0.63398742  0.49582413  0.74595551  1
  O  O273  1  0.62491319  0.99181563  0.23883388  1
  O  O274  1  0.63079623  1.00816222  0.73691017  1
  O  O275  1  0.37318158  0.00353453  0.25464199  1
  O  O276  1  0.37452438  0.00881554  0.75356249  1
  O  O277  1  0.38108768  0.50554249  0.25488545  1
  O  O278  1  0.37036249  0.50673622  0.75126375  1
  O  O279  1  0.86033082  -0.04120175  0.26684307  1
  O  O280  1  0.86974068  0.01044829  0.75098596  1
  O  O281  1  0.86944322  0.51507406  0.25644097  1
  O  O282  1  0.86293501  0.50683497  0.74429687  1
  O  O283  1  0.13843569  0.39116045  0.36854829  1
  O  O284  1  0.12225601  0.37154912  0.86219094  1
  O  O285  1  0.11403312  0.87581071  0.36576602  1
  O  O286  1  0.11790553  0.86809707  0.86749049  1
  O  O287  1  0.62290803  0.36984473  0.37097121  1
  O  O288  1  0.61778012  0.37912313  0.86782040  1
  O  O289  1  0.62130252  0.87260576  0.36405926  1
  O  O290  1  0.60953465  0.87074360  0.87768504  1
  O  O291  1  0.37345585  0.13444833  0.13071490  1
  O  O292  1  0.37984464  0.12073349  0.63834882  1
  O  O293  1  0.37342828  0.62520441  0.13554402  1
  O  O294  1  0.38303058  0.63622108  0.62922135  1
  O  O295  1  0.88729268  0.11644897  0.12349875  1
  O  O296  1  0.88053315  0.13052099  0.62641097  1
  O  O297  1  0.87945548  0.63318072  0.12758021  1
  O  O298  1  0.87106127  0.63164229  0.62322386  1
  O  O299  1  0.25770841  0.25463529  0.11805370  1
  O  O300  1  0.25641710  0.25075031  0.61446028  1
  O  O301  1  0.26386342  0.74760582  0.11702468  1
  O  O302  1  0.26858368  0.74873050  0.62939011  1
  O  O303  1  0.75051562  0.26581507  0.13291411  1
  O  O304  1  0.76478723  0.24563279  0.62705337  1
  O  O305  1  0.76225574  0.75559850  0.12347067  1
  O  O306  1  0.77257619  0.75557938  0.64864729  1
  O  O307  1  0.24058019  0.24604333  0.39904648  1
  O  O308  1  0.24913487  0.24299024  0.88365001  1
  O  O309  1  0.30179701  0.74179545  0.39304631  1
  O  O310  1  0.24751164  0.74331185  0.88283279  1
  O  O311  1  0.73825258  0.24093806  0.37071795  1
  O  O312  1  0.75361059  0.23592584  0.86848730  1
  O  O313  1  0.74630801  0.74433208  0.36525919  1
  O  O314  1  0.75666139  0.76543719  0.87199594  1
  O  O315  1  -0.00164426  0.11699096  0.00339020  1
  O  O316  1  0.00871893  0.11376232  0.50757933  1
  O  O317  1  0.01456020  0.62447274  0.00620301  1
  O  O318  1  0.01395524  0.61731682  0.49700761  1
  O  O319  1  0.49722743  0.11248640  -0.00937927  1
  O  O320  1  0.50724950  0.11451395  0.49815007  1
  O  O321  1  0.50416823  0.61232568  -0.00421203  1
  O  O322  1  0.51011867  0.62108504  0.50431245  1
  O  O323  1  0.49901160  0.38218900  0.49605325  1
  O  O324  1  0.49405573  0.38139432  0.99552135  1
  O  O325  1  0.49481394  0.88881366  0.49330888  1
  O  O326  1  0.50161489  0.88526431  0.99111038  1
  O  O327  1  0.98929095  0.39776688  0.50040144  1
  O  O328  1  0.99338517  0.37254030  0.99401731  1
  O  O329  1  1.00202957  0.87959782  0.49577233  1
  O  O330  1  1.00502341  0.88092614  0.98461435  1
  O  O331  1  0.49783437  0.49385562  0.38013212  1
  O  O332  1  0.49933302  0.48835031  0.88401247  1
  O  O333  1  0.49595991  0.99665220  0.38050049  1
  O  O334  1  0.50032705  0.99124781  0.88567433  1
  O  O335  1  0.98920355  0.50686550  0.38357780  1
  O  O336  1  1.00975734  0.48170267  0.88039882  1
  O  O337  1  0.99980501  0.99185806  0.38757778  1
  O  O338  1  0.99267719  0.99289452  0.87709545  1
  O  O339  1  -0.00286057  0.00091920  0.11306489  1
  O  O340  1  0.00444884  0.00446882  0.61614134  1
  O  O341  1  0.01364672  0.50951874  0.12257346  1
  O  O342  1  0.00798204  0.50214101  0.62180958  1
  O  O343  1  0.50791177  -0.00440038  0.10941856  1
  O  O344  1  0.50778188  0.00301209  0.61709749  1
  O  O345  1  0.51090996  0.49204642  0.11470568  1
  O  O346  1  0.51207854  0.51007135  0.62389350  1
  O  O347  1  0.25213484  0.37318173  0.23518596  1
  O  O348  1  0.24701533  0.38255598  0.75095817  1
  O  O349  1  0.24132942  0.88136041  0.25506954  1
  O  O350  1  0.23624195  0.87327931  0.75785508  1
  O  O351  1  0.74718766  0.38314041  0.24780401  1
  O  O352  1  0.74503319  0.38407039  0.74605821  1
  O  O353  1  0.73339229  0.86839223  0.23589259  1
  O  O354  1  0.75101649  0.89635118  0.75402318  1
  O  O355  1  0.26314689  0.11701210  0.25079671  1
  O  O356  1  0.25592059  0.12426586  0.75470587  1
  O  O357  1  0.26292803  0.63016312  0.25784605  1
  O  O358  1  0.25861646  0.61890656  0.75533831  1
  O  O359  1  0.75076362  0.12363489  0.26453188  1
  O  O360  1  0.75648177  0.11994202  0.75831185  1
  O  O361  1  0.75413358  0.62500141  0.25558317  1
  O  O362  1  0.76056509  0.61129604  0.75310708  1
  O  O363  1  0.37569721  0.11465409  0.36808635  1
  O  O364  1  0.36213053  0.12286458  0.86512891  1
  O  O365  1  0.38095486  0.60596178  0.36552481  1
  O  O366  1  0.37126419  0.62460365  0.86903341  1
  O  O367  1  0.85871629  0.11886752  0.39170927  1
  O  O368  1  0.87022265  0.12115509  0.86461945  1
  O  O369  1  0.86638771  0.62532507  0.37184528  1
  O  O370  1  0.87847797  0.61676071  0.86930326  1
  O  O371  1  0.13340643  0.38209417  0.11764767  1
  O  O372  1  0.12945040  0.38992874  0.63972718  1
  O  O373  1  0.11776682  0.87884465  0.13971027  1
  O  O374  1  0.11652991  0.88150002  0.63562800  1
  O  O375  1  0.63372886  0.38741452  0.13333022  1
  O  O376  1  0.62435393  0.38488134  0.63544444  1
  O  O377  1  0.63319907  0.88088433  0.12511181  1
  O  O378  1  0.62365924  0.88875768  0.61775420  1
  O  O379  1  0.11320325  0.23838591  0.25425317  1
  O  O380  1  0.12299085  0.25916360  0.74600291  1
  O  O381  1  0.11374419  0.75436344  0.24213114  1
  O  O382  1  0.12242677  0.75345499  0.75383816  1
  O  O383  1  0.61882709  0.25586720  0.25715143  1
  O  O384  1  0.62175231  0.26277762  0.74680569  1
  O  O385  1  0.61549309  0.75439376  0.25093083  1
  O  O386  1  0.61837487  0.74116523  0.75547189  1
  O  O387  1  0.38185974  0.23959155  0.24016152  1
  O  O388  1  0.38376588  0.24256181  0.75444689  1
  O  O389  1  0.38057893  0.74401700  0.23502020  1
  O  O390  1  0.38541770  0.74849543  0.74059577  1
  O  O391  1  0.90422201  0.24581551  0.29785578  1
  O  O392  1  0.87847066  0.23659928  0.73951831  1
  O  O393  1  0.88466180  0.75182511  0.23943687  1
  O  O394  1  0.88257436  0.72487407  0.74823762  1
  O  O395  1  0.38238010  0.49754387  0.49382296  1
  O  O396  1  0.38203190  0.49270459  1.00138118  1
  O  O397  1  0.38222181  0.99685663  0.49360440  1
  O  O398  1  0.38752669  1.00140908  0.99880848  1
  O  O399  1  0.88064559  0.51239006  0.49254748  1
  O  O400  1  0.87926216  0.48469453  1.00236972  1
  O  O401  1  0.88301385  0.98694908  0.50029177  1
  O  O402  1  0.88547562  0.99963402  0.98744683  1
  O  O403  1  0.10967134  0.00112655  -0.00210012  1
  O  O404  1  0.12023791  0.00203506  0.50703363  1
  O  O405  1  0.12638285  0.50817428  0.00708030  1
  O  O406  1  0.11682236  0.50637706  0.51323811  1
  O  O407  1  0.61371471  0.00986411  0.00522194  1
  O  O408  1  0.61841185  0.00718272  0.50515045  1
  O  O409  1  0.61972418  0.50786461  0.00716434  1
  O  O410  1  0.61880110  0.50820908  0.50841760  1
  O  O411  1  0.36673712  0.36965196  0.11478216  1
  O  O412  1  0.38134823  0.38412781  0.61168363  1
  O  O413  1  0.37354387  0.86422849  0.12758927  1
  O  O414  1  0.37788570  0.86816773  0.62052663  1
  O  O415  1  0.86636199  0.38235678  0.11962191  1
  O  O416  1  0.87621476  0.35573971  0.62782614  1
  O  O417  1  0.86011334  0.86892708  0.12118169  1
  O  O418  1  0.87815534  0.87094596  0.61154346  1
  O  O419  1  0.12752840  0.11814420  0.38924436  1
  O  O420  1  0.13577162  0.12707917  0.87397271  1
  O  O421  1  0.13110728  0.62611760  0.39057030  1
  O  O422  1  0.13138314  0.63031386  0.88322166  1
  O  O423  1  0.63171327  0.13272160  0.38047462  1
  O  O424  1  0.63781837  0.12283429  0.87305316  1
  O  O425  1  0.62913541  0.63380199  0.37982632  1
  O  O426  1  0.62601299  0.62751128  0.89062532  1
