# generated using pymatgen
data_V85Zn86O256
_symmetry_space_group_name_H-M   'P 1'
_cell_length_a   16.93077094
_cell_length_b   16.94047849
_cell_length_c   16.92828783
_cell_angle_alpha   89.98901480
_cell_angle_beta   90.03755263
_cell_angle_gamma   89.94926786
_symmetry_Int_Tables_number   1
_chemical_formula_structural   V85Zn86O256
_chemical_formula_sum   'V85 Zn86 O256'
_cell_volume   4855.28995124
_cell_formula_units_Z   1
loop_
 _symmetry_equiv_pos_site_id
 _symmetry_equiv_pos_as_xyz
  1  'x, y, z'
loop_
 _atom_site_type_symbol
 _atom_site_label
 _atom_site_symmetry_multiplicity
 _atom_site_fract_x
 _atom_site_fract_y
 _atom_site_fract_z
 _atom_site_occupancy
  V  V0  1  0.62494728  0.88539890  0.25152883  1
  V  V1  1  -0.00048053  0.62089893  0.62034150  1
  V  V2  1  0.12691716  0.48687962  0.13271582  1
  V  V3  1  -0.00071765  0.25040051  0.74631632  1
  V  V4  1  0.12549246  0.62499702  0.00308061  1
  V  V5  1  -0.00453185  0.49338830  0.50292990  1
  V  V6  1  0.13009459  0.12595631  0.49008363  1
  V  V7  1  0.25515617  0.62236909  0.37193764  1
  V  V8  1  0.37546977  0.26746517  0.12505749  1
  V  V9  1  0.87215803  0.50553432  0.87710299  1
  V  V10  1  0.85986959  0.12374100  0.25325917  1
  V  V11  1  0.12842729  0.24972539  0.87115947  1
  V  V12  1  0.86854070  0.25362193  0.12686855  1
  V  V13  1  0.25586624  0.61038605  0.87208261  1
  V  V14  1  0.62563259  0.62491386  0.49718958  1
  V  V15  1  0.36596218  0.12174245  0.74825058  1
  V  V16  1  0.26640015  0.00439666  0.25824272  1
  V  V17  1  0.87368922  0.00268776  0.87436399  1
  V  V18  1  0.75453379  0.37323817  0.61933732  1
  V  V19  1  0.62886548  0.00413475  0.12588023  1
  V  V20  1  0.74932178  0.87472503  0.12921527  1
  V  V21  1  -0.00373089  0.12426690  0.12749854  1
  V  V22  1  0.74666981  0.88165293  0.62143495  1
  V  V23  1  0.62502271  0.37254731  0.25875800  1
  V  V24  1  0.87414583  0.49145519  0.37655122  1
  V  V25  1  -0.00091573  0.37607919  0.87346544  1
  V  V26  1  0.12575060  0.88016432  0.75076163  1
  V  V27  1  0.74579810  0.13337032  0.87353827  1
  V  V28  1  0.00034354  0.00095530  0.49049179  1
  V  V29  1  0.87312799  0.12799261  0.74653472  1
  V  V30  1  0.62232666  0.12842417  -0.00326751  1
  V  V31  1  0.49783141  0.25607693  0.26262482  1
  V  V32  1  0.49766289  0.48892326  0.48913958  1
  V  V33  1  0.87401010  0.62504205  0.75240189  1
  V  V34  1  0.87959578  0.87596870  0.49296388  1
  V  V35  1  0.49589151  0.74670958  0.23671657  1
  V  V36  1  0.37419446  0.74878519  0.62653475  1
  V  V37  1  0.49344223  -0.00077006  0.50724592  1
  V  V38  1  0.62749160  0.62266562  0.00677301  1
  V  V39  1  0.75000504  0.49637559  0.23636185  1
  V  V40  1  0.00286997  0.62755182  0.12893317  1
  V  V41  1  0.74382265  0.25444812  0.00031484  1
  V  V42  1  0.50376222  0.62837232  0.62464992  1
  V  V43  1  0.87412536  0.25101310  0.61293800  1
  V  V44  1  0.62200423  0.75031693  0.37151359  1
  V  V45  1  0.62838779  0.11410517  0.49104949  1
  V  V46  1  0.87014883  0.37681557  0.00307426  1
  V  V47  1  0.25002909  0.25341749  0.00680522  1
  V  V48  1  -0.00038723  0.75108970  0.74957684  1
  V  V49  1  0.37751848  0.25696740  0.62583130  1
  V  V50  1  0.00896672  0.37391987  0.37201031  1
  V  V51  1  0.74385515  0.00429222  0.74541924  1
  V  V52  1  0.62408070  0.87672942  0.75094064  1
  V  V53  1  0.87519887  0.75186971  0.62420454  1
  V  V54  1  0.25084835  0.88024869  0.63094886  1
  V  V55  1  0.73965198  0.25042078  0.48454982  1
  V  V56  1  0.13127375  0.38702389  0.74367089  1
  V  V57  1  0.86010507  0.00148708  0.37020947  1
  V  V58  1  0.11898953  0.87709952  0.25787625  1
  V  V59  1  0.12616170  0.00322730  0.62685535  1
  V  V60  1  0.11792506  0.74816872  0.37823450  1
  V  V61  1  0.62646662  0.49687330  0.62416338  1
  V  V62  1  0.12899517  0.75109952  0.87955967  1
  V  V63  1  0.37000469  -0.00714161  0.87206055  1
  V  V64  1  0.48856177  0.87606542  0.37486145  1
  V  V65  1  0.50819032  0.24398420  0.76178355  1
  V  V66  1  0.50056591  0.38903919  0.87929646  1
  V  V67  1  0.75126159  0.62343796  0.37282319  1
  V  V68  1  -0.00022756  0.00049350  0.00105286  1
  V  V69  1  0.63195647  0.74031119  0.87315270  1
  V  V70  1  0.49015985  0.12958714  0.12674754  1
  V  V71  1  0.25384374  0.48457525  0.25118635  1
  V  V72  1  0.24444898  0.75200665  0.50014531  1
  V  V73  1  0.74997609  0.75096609  0.49783119  1
  V  V74  1  0.12744266  -0.00012568  0.12995481  1
  V  V75  1  0.12433568  0.12492912  -0.00032083  1
  V  V76  1  0.17308886  0.56891976  0.55284070  1
  V  V77  1  0.25705038  0.86997727  0.12540394  1
  V  V78  1  0.00599061  0.25204504  0.24955171  1
  V  V79  1  0.74954065  0.50219747  0.75371747  1
  V  V80  1  0.87617098  0.62517468  0.25023956  1
  V  V81  1  0.87317330  0.87555055  0.00215823  1
  V  V82  1  0.37386502  0.62699286  0.23290040  1
  V  V83  1  0.60698421  0.49622760  0.12335604  1
  V  V84  1  -0.00010111  0.87642191  0.87561476  1
  Zn  Zn85  1  0.47969989  0.51448074  0.00084076  1
  Zn  Zn86  1  -0.00362769  0.75509242  0.25686988  1
  Zn  Zn87  1  0.24778033  0.11931966  0.87238706  1
  Zn  Zn88  1  0.38429761  0.87042776  0.00663053  1
  Zn  Zn89  1  0.00005471  0.12544978  0.62104580  1
  Zn  Zn90  1  0.26161195  0.74422879  0.00702704  1
  Zn  Zn91  1  0.25284763  0.24957003  0.49583750  1
  Zn  Zn92  1  0.37024111  0.87798335  0.49620005  1
  Zn  Zn93  1  -0.00005254  0.49911518  0.00251253  1
  Zn  Zn94  1  0.37241216  0.37523635  0.48578858  1
  Zn  Zn95  1  0.75395480  0.74547680  -0.00325907  1
  Zn  Zn96  1  0.24573408  0.37708179  0.62295967  1
  Zn  Zn97  1  0.87450635  0.75014539  0.12558454  1
  Zn  Zn98  1  0.50708098  0.12119917  0.62873970  1
  Zn  Zn99  1  0.36525430  0.38378849  -0.00875322  1
  Zn  Zn100  1  0.50407156  0.87441595  0.88073218  1
  Zn  Zn101  1  0.63100703  0.36623078  0.75749117  1
  Zn  Zn102  1  0.49816129  0.00150999  -0.00113136  1
  Zn  Zn103  1  0.37947255  0.61389712  0.76117506  1
  Zn  Zn104  1  0.13403727  0.24762069  0.36895945  1
  Zn  Zn105  1  0.49875100  0.75094553  0.75163816  1
  Zn  Zn106  1  0.28689893  0.12169347  0.37461732  1
  Zn  Zn107  1  0.19274177  0.18410770  0.18881266  1
  Zn  Zn108  1  0.18868241  0.18915830  0.68315017  1
  Zn  Zn109  1  0.18540792  0.68836000  0.19276285  1
  Zn  Zn110  1  0.19019762  0.69238564  0.69533443  1
  Zn  Zn111  1  0.68218726  0.19075649  0.18655561  1
  Zn  Zn112  1  0.68418188  0.18518632  0.67776125  1
  Zn  Zn113  1  0.68551781  0.68881097  0.18445355  1
  Zn  Zn114  1  0.68990140  0.68812394  0.68748365  1
  Zn  Zn115  1  0.31516987  0.30337020  0.31515294  1
  Zn  Zn116  1  0.31431564  0.31355593  0.81094181  1
  Zn  Zn117  1  0.30822337  0.80905189  0.30838642  1
  Zn  Zn118  1  0.31325264  0.80691697  0.81226462  1
  Zn  Zn119  1  0.81378984  0.31668569  0.30780413  1
  Zn  Zn120  1  0.81291596  0.31523152  0.81081558  1
  Zn  Zn121  1  0.81135568  0.81410493  0.31172393  1
  Zn  Zn122  1  0.81082224  0.81511084  0.81227229  1
  Zn  Zn123  1  0.19586194  0.42836902  0.43045909  1
  Zn  Zn124  1  0.18382908  0.43667434  0.94036952  1
  Zn  Zn125  1  0.18892529  0.93816700  0.43725519  1
  Zn  Zn126  1  0.19127759  0.93834142  0.93992730  1
  Zn  Zn127  1  0.68984367  0.43677587  0.43685777  1
  Zn  Zn128  1  0.68303944  0.43731633  0.93688688  1
  Zn  Zn129  1  0.68174887  0.93904048  0.43526592  1
  Zn  Zn130  1  0.68721401  0.93989307  0.93776614  1
  Zn  Zn131  1  0.31105224  0.06086102  0.05898138  1
  Zn  Zn132  1  0.31420583  0.06542255  0.56438396  1
  Zn  Zn133  1  0.30625981  0.55609532  0.06295687  1
  Zn  Zn134  1  0.34543479  0.53289137  0.60774046  1
  Zn  Zn135  1  0.80887543  0.06345869  0.06446026  1
  Zn  Zn136  1  0.80840915  0.06669724  0.55758675  1
  Zn  Zn137  1  0.81014088  0.56702477  0.06004400  1
  Zn  Zn138  1  0.81431809  0.56195536  0.56169964  1
  Zn  Zn139  1  0.43724272  0.43985604  0.30753993  1
  Zn  Zn140  1  0.44619080  0.43138557  0.69674680  1
  Zn  Zn141  1  0.44369834  0.93845928  0.18581558  1
  Zn  Zn142  1  0.43666747  0.93823087  0.68842980  1
  Zn  Zn143  1  0.93963428  0.43752103  0.18746708  1
  Zn  Zn144  1  0.93771930  0.43498007  0.68713828  1
  Zn  Zn145  1  0.93685236  0.93868279  0.19112973  1
  Zn  Zn146  1  0.93668745  0.94109718  0.68368710  1
  Zn  Zn147  1  0.05534329  0.06142899  0.31103945  1
  Zn  Zn148  1  0.06091876  0.06526028  0.80982268  1
  Zn  Zn149  1  0.06709263  0.56256204  0.31562252  1
  Zn  Zn150  1  0.06076291  0.56388678  0.81453744  1
  Zn  Zn151  1  0.50183760  0.08257771  0.33226830  1
  Zn  Zn152  1  0.55902803  0.06135654  0.81509768  1
  Zn  Zn153  1  0.56312571  0.56717952  0.30662650  1
  Zn  Zn154  1  0.56560692  0.56424080  0.81058416  1
  Zn  Zn155  1  0.44284528  0.19121809  0.44359794  1
  Zn  Zn156  1  0.43247691  0.18559386  0.93723467  1
  Zn  Zn157  1  0.43510779  0.68759898  0.43929095  1
  Zn  Zn158  1  0.44188538  0.69206077  0.94083059  1
  Zn  Zn159  1  0.93727905  0.18505354  0.43498262  1
  Zn  Zn160  1  0.93666317  0.18969657  0.93715911  1
  Zn  Zn161  1  0.93826463  0.68264320  0.43929507  1
  Zn  Zn162  1  0.93974044  0.68822843  0.93994845  1
  Zn  Zn163  1  0.05729244  0.31066046  0.06045229  1
  Zn  Zn164  1  0.06391060  0.31206736  0.55918167  1
  Zn  Zn165  1  0.06414241  0.81307753  0.06649872  1
  Zn  Zn166  1  0.06248744  0.81419764  0.56184371  1
  Zn  Zn167  1  0.56030493  0.31944316  0.06456661  1
  Zn  Zn168  1  0.56611964  0.30752587  0.56657838  1
  Zn  Zn169  1  0.56483996  0.81262986  0.05798621  1
  Zn  Zn170  1  0.56369073  0.81554891  0.56174624  1
  O  O171  1  0.11937456  0.11391123  0.12251605  1
  O  O172  1  0.12536670  0.11718399  0.61450489  1
  O  O173  1  0.11985880  0.62103231  0.12091434  1
  O  O174  1  0.12055093  0.62693314  0.62284273  1
  O  O175  1  0.62188672  0.12030819  0.11503404  1
  O  O176  1  0.62016697  0.13078932  0.60385153  1
  O  O177  1  0.62889118  0.61091110  0.12015813  1
  O  O178  1  0.62254723  0.61954771  0.61830587  1
  O  O179  1  0.37330039  0.37835262  0.37325468  1
  O  O180  1  0.39419838  0.36579795  0.87408580  1
  O  O181  1  0.38484725  0.86658311  0.37481140  1
  O  O182  1  0.37780404  0.88541656  0.86676157  1
  O  O183  1  0.88370988  0.38767655  0.36993168  1
  O  O184  1  0.87946514  0.38446035  0.87966548  1
  O  O185  1  0.87114606  0.88655220  0.38092259  1
  O  O186  1  0.87982525  0.88262280  0.88056248  1
  O  O187  1  0.25173320  -0.00162928  0.36182678  1
  O  O188  1  0.26296022  -0.00012704  0.87479123  1
  O  O189  1  0.23862824  0.50806283  0.35805026  1
  O  O190  1  0.24207858  0.51241025  0.87685186  1
  O  O191  1  0.76127980  -0.00077811  0.37697539  1
  O  O192  1  0.75540110  0.01192656  0.86831228  1
  O  O193  1  0.75798252  0.50472924  0.36734109  1
  O  O194  1  0.75787298  0.49478678  0.86427808  1
  O  O195  1  0.23545479  0.50230716  0.13823457  1
  O  O196  1  0.23175709  0.50692152  0.60720084  1
  O  O197  1  0.24333610  0.99408483  0.13412428  1
  O  O198  1  0.24050294  0.99054632  0.61943589  1
  O  O199  1  0.75133711  0.50116465  0.13537534  1
  O  O200  1  0.74410103  0.49349090  0.62632135  1
  O  O201  1  0.73697857  0.99454385  0.12363960  1
  O  O202  1  0.75608803  0.99358669  0.63280150  1
  O  O203  1  -0.00623014  0.36423893  0.25798433  1
  O  O204  1  0.00607103  0.36795693  0.75472627  1
  O  O205  1  0.01373953  0.87322682  0.24589327  1
  O  O206  1  0.00330616  0.87178434  0.75546496  1
  O  O207  1  0.51193722  0.36839208  0.24813005  1
  O  O208  1  0.50663993  0.36125869  0.76094951  1
  O  O209  1  0.50522890  0.86775783  0.25707313  1
  O  O210  1  0.51710265  0.87470295  0.74522364  1
  O  O211  1  0.51608807  0.14782064  0.23742762  1
  O  O212  1  0.49408037  0.13250122  0.74940618  1
  O  O213  1  0.48236399  0.63055410  0.25388567  1
  O  O214  1  0.50267360  0.62735651  0.73496967  1
  O  O215  1  0.98785767  0.13085384  0.24402238  1
  O  O216  1  0.99196039  0.13263570  0.74451722  1
  O  O217  1  0.99281398  0.62515371  0.24546208  1
  O  O218  1  0.99587558  0.62933997  0.73923346  1
  O  O219  1  0.36463575  0.24909160  0.00646734  1
  O  O220  1  0.38160580  0.25397867  0.51557413  1
  O  O221  1  0.37197919  0.75904748  -0.00621193  1
  O  O222  1  0.36053692  0.75352883  0.50591947  1
  O  O223  1  0.86673318  0.25643369  0.00544637  1
  O  O224  1  0.86376412  0.24126755  0.50866990  1
  O  O225  1  0.87505514  0.76151945  0.00107780  1
  O  O226  1  0.87049563  0.75804459  0.50107733  1
  O  O227  1  0.12648580  0.23856103  0.49699820  1
  O  O228  1  0.12617656  0.24373715  0.99351757  1
  O  O229  1  0.13545921  0.75545692  0.49520881  1
  O  O230  1  0.12488394  0.74280958  0.99484848  1
  O  O231  1  0.63516205  0.24467479  0.49629122  1
  O  O232  1  0.63784879  0.24643377  1.00827891  1
  O  O233  1  0.63103798  0.74533595  0.49265907  1
  O  O234  1  0.62888207  0.74338666  0.98906368  1
  O  O235  1  0.49185969  0.24666549  0.12438382  1
  O  O236  1  0.49206598  0.25032687  0.63740464  1
  O  O237  1  0.50641095  0.75348122  0.13814146  1
  O  O238  1  0.49520085  0.74437648  0.62385254  1
  O  O239  1  0.98858664  0.24475264  0.12968046  1
  O  O240  1  0.98949039  0.25034925  0.62652735  1
  O  O241  1  0.99933069  0.73841692  0.12964523  1
  O  O242  1  0.99497615  0.74326072  0.62829752  1
  O  O243  1  -0.00395678  0.25830334  0.36642065  1
  O  O244  1  0.00870578  0.25464816  0.86979529  1
  O  O245  1  0.01303008  0.74450866  0.37850349  1
  O  O246  1  0.00970694  0.75511391  0.87093710  1
  O  O247  1  0.50218018  0.25498064  0.36076829  1
  O  O248  1  0.49971040  0.24723712  0.86336274  1
  O  O249  1  0.50620819  0.75625630  0.37214083  1
  O  O250  1  0.51717121  0.75429179  0.86888431  1
  O  O251  1  0.24396123  0.12263196  0.49326025  1
  O  O252  1  0.24061773  0.13329591  0.99757584  1
  O  O253  1  0.23824845  0.62846829  0.49624857  1
  O  O254  1  0.23725281  0.62728901  0.99262641  1
  O  O255  1  0.73817305  0.13501035  0.49632850  1
  O  O256  1  0.74524074  0.13375668  0.99225039  1
  O  O257  1  0.74603651  0.62958865  0.49303371  1
  O  O258  1  0.73677066  0.62786599  0.99883525  1
  O  O259  1  0.24510196  0.35764060  -0.00492719  1
  O  O260  1  0.25404470  0.36944520  0.50568487  1
  O  O261  1  0.24706679  0.87593702  0.01888607  1
  O  O262  1  0.24987035  0.86828275  0.51110139  1
  O  O263  1  0.76089991  0.36765140  -0.00795484  1
  O  O264  1  0.74526315  0.36234163  0.50606474  1
  O  O265  1  0.75695246  0.87719754  0.01049007  1
  O  O266  1  0.75753857  0.87332061  0.50499770  1
  O  O267  1  0.13351102  0.50260106  0.23935098  1
  O  O268  1  0.11778721  0.48485098  0.75295093  1
  O  O269  1  0.12675961  0.99469156  0.24488000  1
  O  O270  1  0.11751490  0.99634715  0.73561077  1
  O  O271  1  0.62977785  0.49627180  0.23985673  1
  O  O272  1  0.63437663  0.49972639  0.74068094  1
  O  O273  1  0.61963201  0.98654606  0.24261393  1
  O  O274  1  0.63695753  0.99495536  0.75495164  1
  O  O275  1  0.36493147  -0.00498188  0.24892562  1
  O  O276  1  0.37916634  0.00856006  0.75895645  1
  O  O277  1  0.36073175  0.51224718  0.24927066  1
  O  O278  1  0.37260717  0.51067584  0.71562272  1
  O  O279  1  0.87671981  0.00635923  0.26264802  1
  O  O280  1  0.86486177  0.00649536  0.75348095  1
  O  O281  1  0.86919199  0.50748379  0.25426308  1
  O  O282  1  0.87009072  0.50363308  0.75740747  1
  O  O283  1  0.11268537  0.36929905  0.37438717  1
  O  O284  1  0.11910551  0.36771298  0.86683612  1
  O  O285  1  0.13082998  0.86556387  0.36774590  1
  O  O286  1  0.11984882  0.87107531  0.87287193  1
  O  O287  1  0.62624025  0.38389475  0.35758819  1
  O  O288  1  0.60983122  0.37564387  0.87294777  1
  O  O289  1  0.62010584  0.86824779  0.36657339  1
  O  O290  1  0.62790445  0.86975643  0.86535647  1
  O  O291  1  0.38836605  0.12509953  0.11978719  1
  O  O292  1  0.38165046  0.13204451  0.63323382  1
  O  O293  1  0.36632184  0.62750315  0.13493190  1
  O  O294  1  0.38745181  0.64121593  0.61459876  1
  O  O295  1  0.87820835  0.13095068  0.13012041  1
  O  O296  1  0.87328202  0.13338130  0.62967902  1
  O  O297  1  0.88380479  0.62483161  0.13230762  1
  O  O298  1  0.88239893  0.63171126  0.62968972  1
  O  O299  1  0.26172405  0.24282561  0.11922834  1
  O  O300  1  0.26652755  0.24941225  0.62358318  1
  O  O301  1  0.24089601  0.76707896  0.12749178  1
  O  O302  1  0.25503934  0.75446781  0.61967325  1
  O  O303  1  0.76154213  0.24695663  0.11576891  1
  O  O304  1  0.75517230  0.25726532  0.61692751  1
  O  O305  1  0.75254928  0.76014485  0.12090946  1
  O  O306  1  0.75742294  0.75671905  0.61778719  1
  O  O307  1  0.24937670  0.23523729  0.37529152  1
  O  O308  1  0.23781578  0.24744713  0.87858035  1
  O  O309  1  0.24282039  0.74458087  0.38373798  1
  O  O310  1  0.23568876  0.74802656  0.87757632  1
  O  O311  1  0.75603344  0.25602842  0.38722039  1
  O  O312  1  0.75517884  0.24016137  0.88091015  1
  O  O313  1  0.74416572  0.74433348  0.37922482  1
  O  O314  1  0.73714770  0.75667138  0.87661459  1
  O  O315  1  0.00329475  0.12051180  0.00655115  1
  O  O316  1  0.00572131  0.11634739  0.50163106  1
  O  O317  1  0.00955930  0.62295877  0.00885196  1
  O  O318  1  -0.00179938  0.61518352  0.51241710  1
  O  O319  1  0.50869897  0.12662206  0.00654867  1
  O  O320  1  0.50538708  0.11037210  0.50614763  1
  O  O321  1  0.52018338  0.62225233  -0.01110539  1
  O  O322  1  0.50718513  0.61861463  0.50734834  1
  O  O323  1  0.50683709  0.38807906  0.50295097  1
  O  O324  1  0.50049217  0.37959593  0.98583397  1
  O  O325  1  0.49835095  0.88141812  0.49378546  1
  O  O326  1  0.50125580  0.88329734  0.99885640  1
  O  O327  1  1.00224169  0.38669878  0.49272811  1
  O  O328  1  0.98682134  0.37529438  0.99228448  1
  O  O329  1  0.98496014  0.88121776  0.50583585  1
  O  O330  1  0.99454460  0.88117726  0.99662104  1
  O  O331  1  0.50308687  0.50458573  0.38559003  1
  O  O332  1  0.49917372  0.49161456  0.87076541  1
  O  O333  1  0.50658826  0.98379894  0.39069794  1
  O  O334  1  0.48707830  0.99722222  0.87682828  1
  O  O335  1  0.99508595  0.49440220  0.37974630  1
  O  O336  1  0.99149561  0.49417370  0.87863010  1
  O  O337  1  0.99053616  0.99860278  0.38661707  1
  O  O338  1  0.99398024  0.99694982  0.88059890  1
  O  O339  1  0.00671692  0.00392926  0.12063205  1
  O  O340  1  0.00650529  0.00101062  0.61238033  1
  O  O341  1  0.00979700  0.51080587  0.12734408  1
  O  O342  1  -0.00613557  0.50648421  0.61608078  1
  O  O343  1  0.51165598  0.01039225  0.12538344  1
  O  O344  1  0.50282193  -0.00608169  0.61110863  1
  O  O345  1  0.50947834  0.50108624  0.12206538  1
  O  O346  1  0.51602488  0.50548185  0.61806142  1
  O  O347  1  0.25251987  0.38682403  0.25130192  1
  O  O348  1  0.23547184  0.37229221  0.74752262  1
  O  O349  1  0.24112353  0.88341253  0.24232101  1
  O  O350  1  0.24158857  0.86782827  0.73802604  1
  O  O351  1  0.73898089  0.38368346  0.25017530  1
  O  O352  1  0.74943748  0.38508928  0.74176495  1
  O  O353  1  0.74096644  0.87032766  0.23809773  1
  O  O354  1  0.74473753  0.88466273  0.74243306  1
  O  O355  1  0.24956074  0.10667402  0.25181756  1
  O  O356  1  0.26235141  0.12901268  0.75066871  1
  O  O357  1  0.25975781  0.62468312  0.25520193  1
  O  O358  1  0.24627898  0.62742450  0.76938366  1
  O  O359  1  0.76054520  0.13107103  0.24507342  1
  O  O360  1  0.75024343  0.12199031  0.75451600  1
  O  O361  1  0.75725667  0.61889915  0.25359756  1
  O  O362  1  0.75948152  0.61113836  0.74108173  1
  O  O363  1  0.39973986  0.12199807  0.36842342  1
  O  O364  1  0.37211473  0.11391052  0.86727217  1
  O  O365  1  0.35825949  0.62888316  0.37680930  1
  O  O366  1  0.35973188  0.62751920  0.87662697  1
  O  O367  1  0.87634193  0.11142799  0.36769717  1
  O  O368  1  0.86760327  0.12219229  0.86804566  1
  O  O369  1  0.87279573  0.61568840  0.36723664  1
  O  O370  1  0.88172909  0.61335189  0.87095771  1
  O  O371  1  0.11503945  0.38903252  0.12255371  1
  O  O372  1  0.12384995  0.37038581  0.63992100  1
  O  O373  1  0.13062305  0.88616321  0.13199134  1
  O  O374  1  0.13041386  0.88286632  0.62922976  1
  O  O375  1  0.62373014  0.39102548  0.13262445  1
  O  O376  1  0.63619637  0.38153662  0.62872260  1
  O  O377  1  0.63159162  0.88247248  0.12916297  1
  O  O378  1  0.64079187  0.86851261  0.63158647  1
  O  O379  1  0.10980004  0.24047478  0.24809781  1
  O  O380  1  0.11866520  0.25205216  0.75615873  1
  O  O381  1  0.12324192  0.75949621  0.26053741  1
  O  O382  1  0.11666404  0.75850065  0.75796481  1
  O  O383  1  0.61810852  0.26729017  0.24201136  1
  O  O384  1  0.61199529  0.24622417  0.74662730  1
  O  O385  1  0.61717371  0.75476039  0.25535436  1
  O  O386  1  0.62962758  0.75755674  0.75786994  1
  O  O387  1  0.39160951  0.25526228  0.23976176  1
  O  O388  1  0.38421411  0.24209108  0.74409591  1
  O  O389  1  0.38022887  0.73657981  0.25186898  1
  O  O390  1  0.37779382  0.74179450  0.74076211  1
  O  O391  1  0.87909378  0.24446748  0.24239321  1
  O  O392  1  0.87838385  0.24673123  0.73993903  1
  O  O393  1  0.87661870  0.73790482  0.25148644  1
  O  O394  1  0.87994727  0.74602163  0.74639189  1
  O  O395  1  0.39540707  0.49612626  0.50906005  1
  O  O396  1  0.36941501  0.49645204  0.99775009  1
  O  O397  1  0.38846154  0.99602111  0.50423864  1
  O  O398  1  0.37492623  0.99488156  0.98661621  1
  O  O399  1  0.88340883  0.50429584  0.48892156  1
  O  O400  1  0.87447395  0.49422652  0.99416591  1
  O  O401  1  0.87824985  0.99616050  0.49036486  1
  O  O402  1  0.87867298  0.99479716  0.99586118  1
  O  O403  1  0.12067730  0.00515713  0.00843036  1
  O  O404  1  0.11725259  0.00264814  0.50563155  1
  O  O405  1  0.12340236  0.50689967  0.01352209  1
  O  O406  1  0.11767870  0.50577656  0.49330795  1
  O  O407  1  0.62542498  0.01164149  0.00718831  1
  O  O408  1  0.61877485  0.00708456  0.50094024  1
  O  O409  1  0.62788291  0.50435846  0.01350137  1
  O  O410  1  0.62076694  0.50534756  0.50471095  1
  O  O411  1  0.37656452  0.36488177  0.11567627  1
  O  O412  1  0.37448273  0.36213476  0.62957950  1
  O  O413  1  0.36004693  0.88036323  0.12831707  1
  O  O414  1  0.36737594  0.86540878  0.62615271  1
  O  O415  1  0.87970320  0.36703976  0.11524060  1
  O  O416  1  0.86277312  0.36790097  0.62669811  1
  O  O417  1  0.86727742  0.87627175  0.12182512  1
  O  O418  1  0.86566216  0.87101263  0.61806395  1
  O  O419  1  0.11726960  0.12257468  0.38614295  1
  O  O420  1  0.12500344  0.13233171  0.87901745  1
  O  O421  1  0.13770511  0.63716377  0.36830620  1
  O  O422  1  0.12638068  0.63222603  0.88411142  1
  O  O423  1  0.60653613  0.12261429  0.39331728  1
  O  O424  1  0.63196536  0.12198564  0.88732774  1
  O  O425  1  0.63149579  0.63045156  0.37680688  1
  O  O426  1  0.62996810  0.63684356  0.87426659  1
