# generated using pymatgen
data_V85Zn86O256
_symmetry_space_group_name_H-M   'P 1'
_cell_length_a   16.94188507
_cell_length_b   16.94270786
_cell_length_c   16.94995090
_cell_angle_alpha   89.96519002
_cell_angle_beta   89.96005937
_cell_angle_gamma   89.97448710
_symmetry_Int_Tables_number   1
_chemical_formula_structural   V85Zn86O256
_chemical_formula_sum   'V85 Zn86 O256'
_cell_volume   4865.33523231
_cell_formula_units_Z   1
loop_
 _symmetry_equiv_pos_site_id
 _symmetry_equiv_pos_as_xyz
  1  'x, y, z'
loop_
 _atom_site_type_symbol
 _atom_site_label
 _atom_site_symmetry_multiplicity
 _atom_site_fract_x
 _atom_site_fract_y
 _atom_site_fract_z
 _atom_site_occupancy
  V  V0  1  0.36191754  0.24642203  0.12911803  1
  V  V1  1  0.86829618  0.49974286  0.87425799  1
  V  V2  1  0.12331031  0.75273484  0.87538556  1
  V  V3  1  0.26058494  0.12506340  0.37073490  1
  V  V4  1  0.12572369  0.88314041  0.73566552  1
  V  V5  1  0.49871974  -0.00651349  0.49423236  1
  V  V6  1  0.50011532  0.37339370  0.37576710  1
  V  V7  1  0.00413726  0.75008191  0.74799136  1
  V  V8  1  0.87209627  0.87759079  0.50197283  1
  V  V9  1  0.20908702  0.48951412  0.21553963  1
  V  V10  1  0.75195747  0.24823203  0.49629968  1
  V  V11  1  0.52575256  0.86576389  0.84412611  1
  V  V12  1  0.12822994  0.36856467  0.75400460  1
  V  V13  1  0.37366871  0.63454882  0.75016970  1
  V  V14  1  0.87158137  -0.00037593  0.88525177  1
  V  V15  1  0.50495661  0.12623799  0.62839413  1
  V  V16  1  0.61840757  0.75534388  0.37829440  1
  V  V17  1  0.62658194  0.37292978  0.24098627  1
  V  V18  1  0.86533905  0.25837557  0.12124008  1
  V  V19  1  0.74771610  0.62532030  0.37683449  1
  V  V20  1  0.12658398  0.25298171  0.37064280  1
  V  V21  1  0.87635284  0.24967010  0.62621481  1
  V  V22  1  0.62721411  0.25016963  0.37573837  1
  V  V23  1  0.24777933  0.62474669  0.87638898  1
  V  V24  1  0.12618351  0.12798735  -0.00988282  1
  V  V25  1  0.37926098  0.12069110  0.75820215  1
  V  V26  1  -0.00027431  0.87617914  0.88224425  1
  V  V27  1  0.62316678  0.62454759  0.50180620  1
  V  V28  1  0.24938367  0.49681183  0.75312278  1
  V  V29  1  0.87386613  0.12760468  0.25380848  1
  V  V30  1  0.63274198  -0.01288848  0.62502066  1
  V  V31  1  0.74732880  0.37477059  0.63201736  1
  V  V32  1  -0.00211800  0.12742870  0.12449110  1
  V  V33  1  0.74761260  0.00534610  0.25290114  1
  V  V34  1  0.61429057  0.00088317  0.12360761  1
  V  V35  1  0.38129206  0.24922668  0.63028341  1
  V  V36  1  0.63004503  0.12549870  0.49768770  1
  V  V37  1  0.49458212  0.63416899  0.62611564  1
  V  V38  1  0.59973833  0.35192626  0.76216707  1
  V  V39  1  0.37947567  0.87988286  -0.00582418  1
  V  V40  1  0.25895413  0.00673936  0.24818102  1
  V  V41  1  0.12972811  0.11970934  0.50267886  1
  V  V42  1  0.75041855  0.49414915  0.24551215  1
  V  V43  1  0.87080816  0.75494331  0.12298664  1
  V  V44  1  0.75117028  -0.01023855  0.74549273  1
  V  V45  1  0.00093091  0.75360681  0.25102726  1
  V  V46  1  0.38667880  0.50072195  0.87614977  1
  V  V47  1  0.87603161  0.12365682  0.75247189  1
  V  V48  1  0.87423289  0.75247092  0.62121475  1
  V  V49  1  0.00574283  0.24755127  0.75199825  1
  V  V50  1  0.49443925  0.74448427  0.25524379  1
  V  V51  1  0.87124819  0.62672800  0.25221450  1
  V  V52  1  0.00463636  0.62395852  0.62177606  1
  V  V53  1  0.00074255  0.36836853  0.87593828  1
  V  V54  1  0.74962337  0.87640601  0.12108958  1
  V  V55  1  0.00572519  -0.00065108  0.50280516  1
  V  V56  1  0.37285454  0.74292191  0.13142739  1
  V  V57  1  0.37605762  0.37997119  0.00725509  1
  V  V58  1  0.50360211  0.50646939  0.00216489  1
  V  V59  1  0.87124069  0.62242398  0.75129476  1
  V  V60  1  0.25231295  0.24939663  0.50062852  1
  V  V61  1  0.12923918  0.74372539  0.37909065  1
  V  V62  1  0.25106804  0.74559401  0.51066819  1
  V  V63  1  0.00199404  0.62237688  0.12485845  1
  V  V64  1  0.12279580  0.62289047  0.00138176  1
  V  V65  1  0.24829338  0.75084471  0.00337744  1
  V  V66  1  0.12789295  0.49990726  0.62159538  1
  V  V67  1  0.74990985  0.75354768  0.50068650  1
  V  V68  1  0.00210692  0.50148875  0.50059916  1
  V  V69  1  0.61816574  0.87586070  0.25432400  1
  V  V70  1  0.24842790  0.87443412  0.12654160  1
  V  V71  1  0.00334236  0.49582381  0.00015791  1
  V  V72  1  0.87099578  0.49780127  0.37690508  1
  V  V73  1  0.87235299  0.00242050  0.37540588  1
  V  V74  1  0.12481273  0.00306003  0.12573400  1
  V  V75  1  0.64598171  0.63392300  0.00242913  1
  V  V76  1  0.00343644  0.37494424  0.37258852  1
  V  V77  1  0.73843334  0.13203439  0.87635263  1
  V  V78  1  0.37648974  0.37968017  0.50239989  1
  V  V79  1  0.37431517  0.50628315  0.36040306  1
  V  V80  1  0.25076097  0.25701642  -0.01405127  1
  V  V81  1  0.25728419  -0.00426694  0.74222130  1
  V  V82  1  0.62127813  0.50281342  0.63362236  1
  V  V83  1  0.49202203  0.24385269  0.24774833  1
  V  V84  1  0.00504761  0.12387815  0.62493850  1
  Zn  Zn85  1  0.38546274  -0.00195544  0.36584945  1
  Zn  Zn86  1  0.25210761  0.37424770  0.62647105  1
  Zn  Zn87  1  0.86880208  0.37559770  0.00273128  1
  Zn  Zn88  1  0.49407354  -0.00005910  -0.01669313  1
  Zn  Zn89  1  0.87406892  0.37465130  0.50371048  1
  Zn  Zn90  1  0.12525636  0.87582855  0.25168079  1
  Zn  Zn91  1  0.74409930  0.49983133  0.75469503  1
  Zn  Zn92  1  0.25571604  0.11904993  0.87448281  1
  Zn  Zn93  1  0.66014189  0.74519174  0.87163427  1
  Zn  Zn94  1  0.24875604  0.61770787  0.36797484  1
  Zn  Zn95  1  0.72978445  0.26611417  0.00255815  1
  Zn  Zn96  1  0.61856661  0.12729238  0.00176533  1
  Zn  Zn97  1  0.49319547  0.12442205  0.12346883  1
  Zn  Zn98  1  0.37385566  0.76614406  0.63299242  1
  Zn  Zn99  1  0.49967791  0.50174442  0.50045884  1
  Zn  Zn100  1  0.81678279  0.81916088  -0.04219360  1
  Zn  Zn101  1  0.49978721  0.62420540  0.12798788  1
  Zn  Zn102  1  0.36549179  0.87593935  0.49698319  1
  Zn  Zn103  1  0.00188935  0.87561273  0.37426038  1
  Zn  Zn104  1  -0.00240103  -0.00142998  0.00234336  1
  Zn  Zn105  1  0.62755232  0.50012809  0.12367981  1
  Zn  Zn106  1  0.00460605  0.25631047  0.24377960  1
  Zn  Zn107  1  0.18577518  0.19196797  0.18533089  1
  Zn  Zn108  1  0.19326662  0.18412790  0.68750474  1
  Zn  Zn109  1  0.18739219  0.67929908  0.19386753  1
  Zn  Zn110  1  0.18536491  0.68495264  0.68968617  1
  Zn  Zn111  1  0.68485226  0.18591936  0.18704086  1
  Zn  Zn112  1  0.68929915  0.18377568  0.68840764  1
  Zn  Zn113  1  0.68493376  0.68724824  0.18635079  1
  Zn  Zn114  1  0.68909411  0.69449169  0.68677973  1
  Zn  Zn115  1  0.30768900  0.32459373  0.30877392  1
  Zn  Zn116  1  0.38259625  0.29836824  0.83107806  1
  Zn  Zn117  1  0.31337692  0.81870910  0.31783257  1
  Zn  Zn118  1  0.30607588  0.81684687  0.81406749  1
  Zn  Zn119  1  0.81602227  0.31386025  0.31216127  1
  Zn  Zn120  1  0.81205790  0.31259084  0.81411572  1
  Zn  Zn121  1  0.80931723  0.81696783  0.31209317  1
  Zn  Zn122  1  0.81578579  0.81281298  0.79740695  1
  Zn  Zn123  1  0.19018546  0.43681343  0.43747869  1
  Zn  Zn124  1  0.18781575  0.43593940  0.93783897  1
  Zn  Zn125  1  0.18977753  0.93239631  0.43304958  1
  Zn  Zn126  1  0.19010887  0.94121476  0.93405517  1
  Zn  Zn127  1  0.68559009  0.43583066  0.44208814  1
  Zn  Zn128  1  0.68413365  0.43795361  0.93686639  1
  Zn  Zn129  1  0.68954104  0.93821026  0.43775869  1
  Zn  Zn130  1  0.67968099  0.94267594  0.93468419  1
  Zn  Zn131  1  0.31257580  0.06604133  0.06043136  1
  Zn  Zn132  1  0.31481003  0.05908325  0.56856192  1
  Zn  Zn133  1  0.30992574  0.56244520  0.06552383  1
  Zn  Zn134  1  0.30893785  0.56855034  0.55852807  1
  Zn  Zn135  1  0.80627189  0.06519732  0.06406986  1
  Zn  Zn136  1  0.81426239  0.06557474  0.56262996  1
  Zn  Zn137  1  0.82072402  0.55664217  0.06676518  1
  Zn  Zn138  1  0.81124158  0.56255185  0.56497191  1
  Zn  Zn139  1  0.44059940  0.43222065  0.18306592  1
  Zn  Zn140  1  0.43588657  0.44520733  0.68672129  1
  Zn  Zn141  1  0.43509571  0.92833548  0.18809415  1
  Zn  Zn142  1  0.44018010  0.93663136  0.68038641  1
  Zn  Zn143  1  1.03409823  0.43109029  0.18065880  1
  Zn  Zn144  1  0.93804348  0.43494484  0.68911666  1
  Zn  Zn145  1  0.93655977  0.93845069  0.18701944  1
  Zn  Zn146  1  0.93930822  0.93816277  0.68784278  1
  Zn  Zn147  1  0.06427210  0.06585862  0.31387182  1
  Zn  Zn148  1  0.06394623  0.05742580  0.81255843  1
  Zn  Zn149  1  0.05674141  0.56857911  0.31634112  1
  Zn  Zn150  1  0.05967522  0.55950499  0.81247411  1
  Zn  Zn151  1  0.56588787  0.06821144  0.31347821  1
  Zn  Zn152  1  0.56125755  0.05207908  0.80840096  1
  Zn  Zn153  1  0.56184625  0.56146279  0.31362725  1
  Zn  Zn154  1  0.57898633  0.60761777  0.79980561  1
  Zn  Zn155  1  0.44017123  0.18626232  0.44219024  1
  Zn  Zn156  1  0.46834043  0.19320414  0.93507179  1
  Zn  Zn157  1  0.43459411  0.68753341  0.43887601  1
  Zn  Zn158  1  0.43921719  0.69286659  0.93792780  1
  Zn  Zn159  1  0.93883217  0.18702946  0.43717162  1
  Zn  Zn160  1  0.93484648  0.18646938  0.93946671  1
  Zn  Zn161  1  0.94072512  0.68583530  0.43736757  1
  Zn  Zn162  1  0.93357137  0.68532199  0.93578285  1
  Zn  Zn163  1  0.07150808  0.31096559  0.06071701  1
  Zn  Zn164  1  0.06521672  0.31346073  0.56182611  1
  Zn  Zn165  1  0.06147607  0.81223816  0.06443882  1
  Zn  Zn166  1  0.06262529  0.81076353  0.55522687  1
  Zn  Zn167  1  0.55503906  0.31331001  0.05795451  1
  Zn  Zn168  1  0.56424863  0.31405536  0.56755857  1
  Zn  Zn169  1  0.56196753  0.80842619  0.06369015  1
  Zn  Zn170  1  0.55866189  0.81465724  0.56559418  1
  O  O171  1  0.11691972  0.12171219  0.11796225  1
  O  O172  1  0.12133724  0.13137987  0.60990456  1
  O  O173  1  0.10828276  0.63204237  0.11954093  1
  O  O174  1  0.11241789  0.61574303  0.63039090  1
  O  O175  1  0.61926921  0.11297928  0.12861611  1
  O  O176  1  0.62135503  0.12140739  0.61504594  1
  O  O177  1  0.62244439  0.62239110  0.11583533  1
  O  O178  1  0.61820787  0.62090761  0.61767275  1
  O  O179  1  0.38441421  0.38084670  0.38210794  1
  O  O180  1  0.36376566  0.39299227  0.89195626  1
  O  O181  1  0.36953481  0.88742108  0.38339147  1
  O  O182  1  0.36479287  0.87262465  0.89497292  1
  O  O183  1  0.87995816  0.38330355  0.38328536  1
  O  O184  1  0.88487321  0.38258514  0.87266782  1
  O  O185  1  0.87879359  0.88409803  0.38131789  1
  O  O186  1  0.88292170  0.88329347  0.87474169  1
  O  O187  1  0.24599479  0.01023863  0.36390921  1
  O  O188  1  0.24237031  0.00311730  0.85378778  1
  O  O189  1  0.26951644  0.49954370  0.38437832  1
  O  O190  1  0.25198234  0.50809301  0.86849729  1
  O  O191  1  0.76343497  -0.00179765  0.36898448  1
  O  O192  1  0.75572223  0.00401814  0.86541179  1
  O  O193  1  0.75511936  0.50443497  0.37536304  1
  O  O194  1  0.76516652  0.49878454  0.87166621  1
  O  O195  1  0.23272723  0.49713111  0.11803282  1
  O  O196  1  0.24222413  0.50127090  0.63115234  1
  O  O197  1  0.24326661  0.99640814  0.12981161  1
  O  O198  1  0.24319721  1.00781326  0.64162631  1
  O  O199  1  0.75332886  0.50063974  0.14295483  1
  O  O200  1  0.74166211  0.49069826  0.62621985  1
  O  O201  1  0.74026230  0.99572478  0.13426873  1
  O  O202  1  0.74019123  1.00799115  0.62898600  1
  O  O203  1  -0.01218114  0.37181918  0.27014247  1
  O  O204  1  0.00847264  0.36807435  0.75557311  1
  O  O205  1  0.00051752  0.86403181  0.25050294  1
  O  O206  1  0.00932789  0.87164381  0.75755026  1
  O  O207  1  0.50635293  0.36562115  0.25861260  1
  O  O208  1  0.50231969  0.37456494  0.74511100  1
  O  O209  1  0.51244457  0.86542185  0.24954985  1
  O  O210  1  0.51075235  0.87073612  0.74558431  1
  O  O211  1  0.50033326  0.14103906  0.25169594  1
  O  O212  1  0.49490190  0.11256882  0.73552826  1
  O  O213  1  0.50792195  0.64060029  0.24953348  1
  O  O214  1  0.48113934  0.61720258  0.74015081  1
  O  O215  1  0.99226983  0.12715785  0.24262352  1
  O  O216  1  0.99858004  0.12869818  0.74595511  1
  O  O217  1  0.99120927  0.63509618  0.24389778  1
  O  O218  1  0.99554785  0.63016963  0.74061006  1
  O  O219  1  0.36587386  0.25989493  0.01211101  1
  O  O220  1  0.37079740  0.25877018  0.50628621  1
  O  O221  1  0.36572423  0.75820431  0.01005149  1
  O  O222  1  0.35989160  0.74897268  0.50023817  1
  O  O223  1  0.87215122  0.24772290  0.01424298  1
  O  O224  1  0.86839314  0.24941118  0.50673517  1
  O  O225  1  0.88625805  0.75022070  0.01856805  1
  O  O226  1  0.87398670  0.75766151  0.50304962  1
  O  O227  1  0.13561035  0.24471470  0.49374582  1
  O  O228  1  0.14118060  0.24306691  0.99796272  1
  O  O229  1  0.13067946  0.74841285  0.48632405  1
  O  O230  1  0.12867021  0.74451129  0.99587335  1
  O  O231  1  0.63212711  0.24520316  0.49793476  1
  O  O232  1  0.61975393  0.24151049  1.00508975  1
  O  O233  1  0.62878486  0.74768509  0.49500417  1
  O  O234  1  0.62786240  0.73797290  1.00204434  1
  O  O235  1  0.48439160  0.25171766  0.13359266  1
  O  O236  1  0.49232068  0.23978465  0.61875134  1
  O  O237  1  0.48955434  0.74938508  0.13589965  1
  O  O238  1  0.49592197  0.73817165  0.62113821  1
  O  O239  1  0.99055557  0.23677262  0.12460866  1
  O  O240  1  0.99610698  0.24447385  0.62892215  1
  O  O241  1  0.99374816  0.74635959  0.13439160  1
  O  O242  1  0.99518132  0.74045296  0.62361946  1
  O  O243  1  0.00954880  0.25861021  0.38019304  1
  O  O244  1  -0.00507986  0.26114259  0.87110205  1
  O  O245  1  0.00847727  0.74938499  0.36836673  1
  O  O246  1  0.00217541  0.75759321  0.86850246  1
  O  O247  1  0.50236555  0.25682892  0.37066542  1
  O  O248  1  0.48508510  0.26671445  0.86142151  1
  O  O249  1  0.51092920  0.74741013  0.37242205  1
  O  O250  1  0.49171800  0.77463560  0.87718900  1
  O  O251  1  0.24660473  0.12936379  0.49487024  1
  O  O252  1  0.24437085  0.13374904  0.99539452  1
  O  O253  1  0.24911422  0.63941834  0.49006760  1
  O  O254  1  0.24169345  0.63107923  0.99649854  1
  O  O255  1  0.74331528  0.13619647  0.50476565  1
  O  O256  1  0.74598313  0.12213544  0.98334061  1
  O  O257  1  0.74395357  0.63224947  0.49636251  1
  O  O258  1  0.74471764  0.62312473  1.01200905  1
  O  O259  1  0.25289352  0.36273663  -0.00262047  1
  O  O260  1  0.25896213  0.36566909  0.50270249  1
  O  O261  1  0.25168305  0.87165305  0.01147415  1
  O  O262  1  0.24356353  0.85196732  0.49378906  1
  O  O263  1  0.75577533  0.37557849  -0.00514911  1
  O  O264  1  0.74752465  0.36709112  0.51495494  1
  O  O265  1  0.74562401  0.88593625  0.01616248  1
  O  O266  1  0.76469517  0.87050736  0.49663407  1
  O  O267  1  0.10751950  0.49942979  0.24220286  1
  O  O268  1  0.12905059  0.49405343  0.74086384  1
  O  O269  1  0.13025200  1.00186320  0.23845136  1
  O  O270  1  0.12749476  0.98748109  0.74627939  1
  O  O271  1  0.63284192  0.49120337  0.25255643  1
  O  O272  1  0.62581789  0.51257652  0.73895240  1
  O  O273  1  0.63062281  0.99455453  0.24973141  1
  O  O274  1  0.63561692  1.00295603  0.73203437  1
  O  O275  1  0.36313415  -0.00052362  0.24618976  1
  O  O276  1  0.36556282  0.00451830  0.74279531  1
  O  O277  1  0.38282815  0.49551580  0.26232140  1
  O  O278  1  0.36511937  0.50575038  0.75867664  1
  O  O279  1  0.86880266  0.00546290  0.25698241  1
  O  O280  1  0.87091502  0.00667759  0.75589022  1
  O  O281  1  0.86575075  0.50620992  0.26780629  1
  O  O282  1  0.87772960  0.50642224  0.75639734  1
  O  O283  1  0.11645772  0.36663632  0.38352030  1
  O  O284  1  0.11748901  0.38005909  0.86159459  1
  O  O285  1  0.12087153  0.86084207  0.36965548  1
  O  O286  1  0.11805736  0.87056720  0.86761129  1
  O  O287  1  0.61310361  0.37106584  0.37284953  1
  O  O288  1  0.62683677  0.38316937  0.85321681  1
  O  O289  1  0.63210283  0.86648140  0.36740830  1
  O  O290  1  0.62834971  0.86272953  0.86888340  1
  O  O291  1  0.37298365  0.14246007  0.12447733  1
  O  O292  1  0.38624112  0.13112444  0.62868734  1
  O  O293  1  0.37109732  0.63965015  0.12479709  1
  O  O294  1  0.37963766  0.62631588  0.63240834  1
  O  O295  1  0.88023265  0.12544328  0.13504324  1
  O  O296  1  0.88339898  0.13027027  0.63201788  1
  O  O297  1  0.88222746  0.63369724  0.13359933  1
  O  O298  1  0.88750536  0.62907929  0.62743036  1
  O  O299  1  0.25856362  0.24864682  0.11685555  1
  O  O300  1  0.25860863  0.24902181  0.61244408  1
  O  O301  1  0.25098008  0.75645657  0.12615836  1
  O  O302  1  0.24735528  0.74288796  0.61308005  1
  O  O303  1  0.76177312  0.24388495  0.12468993  1
  O  O304  1  0.75496713  0.25559874  0.61886468  1
  O  O305  1  0.75929487  0.76223771  0.13582733  1
  O  O306  1  0.76563093  0.74451228  0.61734662  1
  O  O307  1  0.24753607  0.24715161  0.38200472  1
  O  O308  1  0.26709438  0.24620204  0.88734710  1
  O  O309  1  0.23739905  0.74273084  0.36745260  1
  O  O310  1  0.24145797  0.74492882  0.88235322  1
  O  O311  1  0.74617137  0.25873923  0.38968417  1
  O  O312  1  0.75336378  0.23369168  0.87419703  1
  O  O313  1  0.74074340  0.74563988  0.38001158  1
  O  O314  1  0.77410574  0.75142808  0.87953994  1
  O  O315  1  0.00727356  0.12309764  0.00721708  1
  O  O316  1  0.00916273  0.11834012  0.50271355  1
  O  O317  1  0.00268571  0.61841773  0.00622998  1
  O  O318  1  -0.00220374  0.61071115  0.50634996  1
  O  O319  1  0.49700287  0.11421677  0.00429625  1
  O  O320  1  0.51011692  0.11930472  0.50967416  1
  O  O321  1  0.49735499  0.61677024  0.00344866  1
  O  O322  1  0.50547268  0.62350311  0.50680043  1
  O  O323  1  0.49413542  0.37454003  0.49335256  1
  O  O324  1  0.48890908  0.39340106  1.00427836  1
  O  O325  1  0.50764435  0.89267657  0.49732090  1
  O  O326  1  0.48360336  0.87609351  1.00921212  1
  O  O327  1  0.99742335  0.38620627  0.49575829  1
  O  O328  1  0.99813362  0.37943463  0.99186120  1
  O  O329  1  0.99164189  0.88307830  0.49674193  1
  O  O330  1  1.00589244  0.87816960  0.98707663  1
  O  O331  1  0.49132388  0.49183619  0.37855617  1
  O  O332  1  0.48724119  0.51009902  0.88176858  1
  O  O333  1  0.50306700  1.01053378  0.39030983  1
  O  O334  1  0.50825211  0.97004080  0.87071513  1
  O  O335  1  0.99309745  0.49587167  0.38355894  1
  O  O336  1  0.99404942  0.48821559  0.87927473  1
  O  O337  1  0.99057337  1.00155353  0.38365801  1
  O  O338  1  0.99010947  0.99249464  0.87568397  1
  O  O339  1  0.00577094  0.00889509  0.12411500  1
  O  O340  1  -0.00533521  0.00730426  0.61048693  1
  O  O341  1  -0.01256319  0.51132554  0.11308957  1
  O  O342  1  0.00530510  0.50376414  0.61938752  1
  O  O343  1  0.50910899  -0.00097534  0.13474079  1
  O  O344  1  0.51640154  0.00615457  0.61403479  1
  O  O345  1  0.50172119  0.50543469  0.11842718  1
  O  O346  1  0.50636818  0.51132596  0.62208197  1
  O  O347  1  0.24565481  0.40385635  0.25578935  1
  O  O348  1  0.24302375  0.38868576  0.74811163  1
  O  O349  1  0.24659870  0.88399460  0.23834903  1
  O  O350  1  0.23757030  0.88386545  0.74850488  1
  O  O351  1  0.73895551  0.38301799  0.26137012  1
  O  O352  1  0.74740732  0.37522775  0.73973090  1
  O  O353  1  0.74130201  0.88706023  0.24438305  1
  O  O354  1  0.75929207  0.89029627  0.73943229  1
  O  O355  1  0.24414195  0.11899257  0.25858107  1
  O  O356  1  0.25970406  0.11565298  0.75209038  1
  O  O357  1  0.23675061  0.59004854  0.24878092  1
  O  O358  1  0.25304326  0.61441358  0.75458766  1
  O  O359  1  0.75629691  0.11261927  0.24811860  1
  O  O360  1  0.75690539  0.11819138  0.75914963  1
  O  O361  1  0.75217919  0.61839835  0.25832766  1
  O  O362  1  0.76964717  0.62046296  0.73743375  1
  O  O363  1  0.36333229  0.12297163  0.37964952  1
  O  O364  1  0.38195088  0.12321902  0.85929375  1
  O  O365  1  0.37753763  0.60900426  0.37459157  1
  O  O366  1  0.36689146  0.62191424  0.86933660  1
  O  O367  1  0.87956509  0.11975488  0.36217417  1
  O  O368  1  0.86878355  0.11714569  0.86968156  1
  O  O369  1  0.86900581  0.61958064  0.37204276  1
  O  O370  1  0.88754692  0.61263899  0.86190143  1
  O  O371  1  0.11479126  0.36645027  0.14299944  1
  O  O372  1  0.12699707  0.38223888  0.63514820  1
  O  O373  1  0.13042726  0.88448355  0.12616974  1
  O  O374  1  0.11569814  0.86998943  0.63824736  1
  O  O375  1  0.61848060  0.37661228  0.13904606  1
  O  O376  1  0.62753714  0.38283543  0.63945796  1
  O  O377  1  0.63032741  0.87959404  0.13498782  1
  O  O378  1  0.63171272  0.88854670  0.61649417  1
  O  O379  1  0.12250866  0.24241935  0.26712114  1
  O  O380  1  0.12231710  0.25860845  0.74408535  1
  O  O381  1  0.11604385  0.74923303  0.25693887  1
  O  O382  1  0.12201011  0.75935171  0.75495183  1
  O  O383  1  0.61877117  0.25569689  0.25669200  1
  O  O384  1  0.62217301  0.25531351  0.74645321  1
  O  O385  1  0.62077341  0.75794462  0.25927576  1
  O  O386  1  0.62056920  0.71289540  0.76925528  1
  O  O387  1  0.37629786  0.26194658  0.23798984  1
  O  O388  1  0.36459771  0.23860804  0.73403715  1
  O  O389  1  0.38350533  0.75722339  0.24573541  1
  O  O390  1  0.36024528  0.73899178  0.74872655  1
  O  O391  1  0.87567210  0.24170830  0.24243668  1
  O  O392  1  0.88317009  0.24310232  0.74519874  1
  O  O393  1  0.88104925  0.74732338  0.24614070  1
  O  O394  1  0.88649754  0.74279574  0.73703022  1
  O  O395  1  0.37651749  0.48708817  0.50224057  1
  O  O396  1  0.37832452  0.49813323  0.99646554  1
  O  O397  1  0.39336861  1.00682731  0.50186867  1
  O  O398  1  0.37355776  0.98438623  1.00757402  1
  O  O399  1  0.88071531  0.50024488  0.49226033  1
  O  O400  1  0.88696431  0.49974223  0.99073022  1
  O  O401  1  0.87956010  0.99601823  0.49377080  1
  O  O402  1  0.87473158  1.00498926  0.98859638  1
  O  O403  1  0.12659593  0.00850499  0.01154440  1
  O  O404  1  0.11732923  0.00671725  0.49201054  1
  O  O405  1  0.11047454  0.50601876  -0.00869370  1
  O  O406  1  0.11900789  0.49400760  0.51340583  1
  O  O407  1  0.61723164  0.00136935  0.01116536  1
  O  O408  1  0.62423219  0.00793191  0.50543873  1
  O  O409  1  0.61784136  0.50797409  0.00417316  1
  O  O410  1  0.62356137  0.50589505  0.51207927  1
  O  O411  1  0.37206636  0.36921195  0.11463788  1
  O  O412  1  0.37525522  0.36791948  0.61905446  1
  O  O413  1  0.36396302  0.86469125  0.11993830  1
  O  O414  1  0.37968951  0.87584373  0.61057562  1
  O  O415  1  0.87983824  0.35577417  0.12686345  1
  O  O416  1  0.86633567  0.36914532  0.62481235  1
  O  O417  1  0.86414347  0.86860556  0.13155816  1
  O  O418  1  0.88463761  0.86395292  0.61549184  1
  O  O419  1  0.13244035  0.13292479  0.38663094  1
  O  O420  1  0.12294989  0.12119784  0.88776385  1
  O  O421  1  0.12430437  0.63894305  0.37303751  1
  O  O422  1  0.12676964  0.63190544  0.87874819  1
  O  O423  1  0.62426459  0.13457926  0.38906265  1
  O  O424  1  0.63674306  0.11559058  0.87123145  1
  O  O425  1  0.62882095  0.63139626  0.38330578  1
  O  O426  1  0.63098925  0.62205465  0.90053540  1
