# generated using pymatgen
data_V85Zn86O256
_symmetry_space_group_name_H-M   'P 1'
_cell_length_a   17.00371960
_cell_length_b   17.02147910
_cell_length_c   17.02109595
_cell_angle_alpha   89.99780205
_cell_angle_beta   89.96604914
_cell_angle_gamma   89.97182367
_symmetry_Int_Tables_number   1
_chemical_formula_structural   V85Zn86O256
_chemical_formula_sum   'V85 Zn86 O256'
_cell_volume   4926.38808631
_cell_formula_units_Z   1
loop_
 _symmetry_equiv_pos_site_id
 _symmetry_equiv_pos_as_xyz
  1  'x, y, z'
loop_
 _atom_site_type_symbol
 _atom_site_label
 _atom_site_symmetry_multiplicity
 _atom_site_fract_x
 _atom_site_fract_y
 _atom_site_fract_z
 _atom_site_occupancy
  V  V0  1  0.74819410  0.12163856  0.87492736  1
  V  V1  1  0.50196711  0.75485745  0.75428184  1
  V  V2  1  0.75029768  0.74401233  -0.00041170  1
  V  V3  1  0.86815998  0.26556067  0.62891106  1
  V  V4  1  0.61632301  0.12396159  -0.00010370  1
  V  V5  1  0.37358096  0.12701031  0.24000703  1
  V  V6  1  0.12254926  0.37252625  0.25114287  1
  V  V7  1  0.12017708  0.87456916  0.24709792  1
  V  V8  1  0.85988566  0.62483782  0.75373864  1
  V  V9  1  0.87279755  0.50982888  0.37135480  1
  V  V10  1  0.24821986  -0.00274017  0.74995102  1
  V  V11  1  0.12355482  -0.00092287  0.12198389  1
  V  V12  1  0.75153083  0.36978472  0.12069933  1
  V  V13  1  0.12686695  0.12242152  0.49656899  1
  V  V14  1  0.63172270  0.63582582  0.50604948  1
  V  V15  1  0.00126123  0.37181271  0.38073072  1
  V  V16  1  -0.01198761  0.62480355  0.12969613  1
  V  V17  1  0.86990578  0.88036986  0.00073957  1
  V  V18  1  0.37734329  0.76017284  0.62661873  1
  V  V19  1  0.12308253  0.62345545  0.49784271  1
  V  V20  1  0.62446921  0.25061674  0.87258625  1
  V  V21  1  0.37829472  -0.00513983  0.87374854  1
  V  V22  1  0.37485179  0.50154637  0.87321832  1
  V  V23  1  0.62249045  0.37933036  0.25083791  1
  V  V24  1  0.37927542  0.36927781  0.50403456  1
  V  V25  1  0.62587766  0.74528398  0.87465129  1
  V  V26  1  0.24608716  0.49807365  0.25170110  1
  V  V27  1  0.00264386  0.36879631  0.87580178  1
  V  V28  1  0.75231549  0.50686912  0.24646915  1
  V  V29  1  0.37501769  0.50334627  0.37905433  1
  V  V30  1  -0.00494591  0.75141203  0.74977302  1
  V  V31  1  0.25373055  0.24866607  0.49936273  1
  V  V32  1  0.86434783  0.50341306  0.87237085  1
  V  V33  1  -0.00328943  0.12742298  0.62423615  1
  V  V34  1  0.12334397  0.12814185  -0.00643080  1
  V  V35  1  -0.00283428  0.50177562  -0.00183470  1
  V  V36  1  0.12070935  0.50203997  0.12585673  1
  V  V37  1  -0.00958661  0.49699051  0.50233231  1
  V  V38  1  0.81584953  0.32071079  0.45366058  1
  V  V39  1  0.87181980  -0.00128621  0.86941089  1
  V  V40  1  0.25547108  0.00236708  0.24190947  1
  V  V41  1  0.37232771  0.03157864  0.38785068  1
  V  V42  1  0.37216623  0.73773754  0.11904788  1
  V  V43  1  0.64406602  0.50086759  0.63084712  1
  V  V44  1  -0.00168369  0.62712454  0.62743472  1
  V  V45  1  0.64062529  0.37822370  0.75015100  1
  V  V46  1  0.37305262  0.37466773  -0.00323757  1
  V  V47  1  0.37739904  0.24945320  0.12106678  1
  V  V48  1  0.12059046  -0.00126842  0.62457945  1
  V  V49  1  0.12080864  0.75179444  0.87422799  1
  V  V50  1  0.49571514  0.25419800  0.25299825  1
  V  V51  1  -0.00346550  0.00031320  -0.00081708  1
  V  V52  1  0.12256964  0.75960743  0.37610335  1
  V  V53  1  0.49986339  0.37608802  0.87325141  1
  V  V54  1  0.38068064  0.62685907  0.74582335  1
  V  V55  1  0.12969468  0.24559037  0.37547260  1
  V  V56  1  0.25302200  0.36956544  0.62495164  1
  V  V57  1  0.54985605  0.67265400  0.17515506  1
  V  V58  1  0.24866958  0.62789657  0.37147374  1
  V  V59  1  0.86011649  -0.00376694  0.37326121  1
  V  V60  1  0.25214216  0.87116278  0.11993112  1
  V  V61  1  0.24725702  0.12944127  0.87293335  1
  V  V62  1  0.63492727  0.87972691  0.76138702  1
  V  V63  1  0.62815779  0.00037457  0.62688345  1
  V  V64  1  0.12382289  0.49928676  0.62548788  1
  V  V65  1  0.24608772  0.62653953  0.87333979  1
  V  V66  1  0.12580151  0.36691318  0.75420568  1
  V  V67  1  0.24638789  0.25016550  -0.00369162  1
  V  V68  1  0.37583391  0.13068945  0.74448855  1
  V  V69  1  0.49814517  0.51003843  0.51672951  1
  V  V70  1  0.49910979  0.25391469  0.74020252  1
  V  V71  1  0.24772557  0.49983340  0.74940678  1
  V  V72  1  0.74405603  0.88225579  0.13542676  1
  V  V73  1  0.61654072  0.00122663  0.13603106  1
  V  V74  1  0.61965086  0.62326525  -0.00805230  1
  V  V75  1  0.87060303  0.12398522  0.74786378  1
  V  V76  1  -0.00773716  0.74964515  0.25202528  1
  V  V77  1  0.50319376  -0.00840791  -0.00804085  1
  V  V78  1  -0.00293683  -0.01270218  0.48949222  1
  V  V79  1  0.24651885  0.37415218  0.12409666  1
  V  V80  1  0.87549172  0.36638694  0.00221389  1
  V  V81  1  0.87047594  0.75277971  0.61216793  1
  V  V82  1  -0.00634499  0.13127729  0.12667668  1
  V  V83  1  0.61672169  0.49545064  0.12210007  1
  V  V84  1  0.75326938  0.87472682  0.61553639  1
  Zn  Zn85  1  0.25297048  0.88165210  0.60796271  1
  Zn  Zn86  1  0.62130002  0.76759389  0.35855693  1
  Zn  Zn87  1  0.49481705  0.50465036  0.00099799  1
  Zn  Zn88  1  0.51420105  0.90400073  0.35477104  1
  Zn  Zn89  1  0.84554145  0.13186416  0.27202406  1
  Zn  Zn90  1  0.24822868  0.75178533  -0.00497722  1
  Zn  Zn91  1  0.00423974  0.24684854  0.75421614  1
  Zn  Zn92  1  0.12046547  0.62813350  0.00072974  1
  Zn  Zn93  1  0.25133805  0.74351731  0.50985577  1
  Zn  Zn94  1  0.87603520  0.75607747  0.12520321  1
  Zn  Zn95  1  -0.00229419  0.87549129  0.87468882  1
  Zn  Zn96  1  -0.00234555  0.24587961  0.24735244  1
  Zn  Zn97  1  0.12270904  0.87596352  0.74994310  1
  Zn  Zn98  1  0.50477678  0.38400327  0.37815245  1
  Zn  Zn99  1  0.37460096  0.61374372  0.23438384  1
  Zn  Zn100  1  0.37885768  0.86995590  -0.00507771  1
  Zn  Zn101  1  0.50162987  0.12368278  0.62380416  1
  Zn  Zn102  1  0.63069131  0.12463103  0.48456727  1
  Zn  Zn103  1  0.49153167  -0.00954333  0.51248862  1
  Zn  Zn104  1  0.74921310  0.24670880  0.00160122  1
  Zn  Zn105  1  0.75245588  0.63664860  0.38432152  1
  Zn  Zn106  1  0.64240735  0.25384559  0.38068659  1
  Zn  Zn107  1  0.18455352  0.18567859  0.18420170  1
  Zn  Zn108  1  0.18750385  0.18703706  0.68460846  1
  Zn  Zn109  1  0.18475316  0.68756734  0.18649045  1
  Zn  Zn110  1  0.18734110  0.68913527  0.68938431  1
  Zn  Zn111  1  0.67677007  0.18873246  0.19040388  1
  Zn  Zn112  1  0.71156413  0.16605827  0.65066994  1
  Zn  Zn113  1  0.72720063  0.71629429  0.22178104  1
  Zn  Zn114  1  0.68595392  0.68948628  0.68303834  1
  Zn  Zn115  1  0.31312846  0.31435772  0.31580605  1
  Zn  Zn116  1  0.31290178  0.31078619  0.81130173  1
  Zn  Zn117  1  0.43588559  0.78565700  0.29214540  1
  Zn  Zn118  1  0.30938768  0.81422817  0.81031048  1
  Zn  Zn119  1  0.81819477  0.31523961  0.28676459  1
  Zn  Zn120  1  0.81628852  0.30779590  0.81584484  1
  Zn  Zn121  1  0.81234241  0.82408695  0.32522076  1
  Zn  Zn122  1  0.80969483  0.80820268  0.81458147  1
  Zn  Zn123  1  0.18634371  0.43709047  0.43949594  1
  Zn  Zn124  1  0.18453336  0.43941194  0.93675149  1
  Zn  Zn125  1  0.28379470  0.87630667  0.40212605  1
  Zn  Zn126  1  0.18573747  0.93843906  0.93533771  1
  Zn  Zn127  1  0.68055860  0.45104588  0.43301324  1
  Zn  Zn128  1  0.68755279  0.43776291  0.93675604  1
  Zn  Zn129  1  0.68511428  0.93634974  0.44032118  1
  Zn  Zn130  1  0.69080447  0.93797674  0.93889159  1
  Zn  Zn131  1  0.31475578  0.06172698  0.05888058  1
  Zn  Zn132  1  0.30688377  0.06843433  0.56842495  1
  Zn  Zn133  1  0.30492049  0.55907466  0.05596611  1
  Zn  Zn134  1  0.31205525  0.56496222  0.56468912  1
  Zn  Zn135  1  0.78753945  0.08642653  0.09799057  1
  Zn  Zn136  1  0.81029287  0.05950364  0.55320242  1
  Zn  Zn137  1  0.80879050  0.56003974  0.06195142  1
  Zn  Zn138  1  0.81390889  0.56524902  0.56487250  1
  Zn  Zn139  1  0.43513802  0.43700243  0.18712116  1
  Zn  Zn140  1  0.43616667  0.43672503  0.68892422  1
  Zn  Zn141  1  0.43910759  0.93398307  0.17989442  1
  Zn  Zn142  1  0.44197993  0.93404198  0.69610374  1
  Zn  Zn143  1  0.93697587  0.43419821  0.18876975  1
  Zn  Zn144  1  0.93878894  0.44151676  0.69425882  1
  Zn  Zn145  1  0.93329931  0.94378641  0.19188416  1
  Zn  Zn146  1  0.93491298  0.93738082  0.68595580  1
  Zn  Zn147  1  0.06372380  0.06058884  0.31205181  1
  Zn  Zn148  1  0.05903993  0.06273894  0.81264929  1
  Zn  Zn149  1  0.05875436  0.56375853  0.31192567  1
  Zn  Zn150  1  0.05797319  0.56144305  0.81243943  1
  Zn  Zn151  1  0.55866189  0.07876406  0.31196070  1
  Zn  Zn152  1  0.56187695  0.06408648  0.80856331  1
  Zn  Zn153  1  0.52144456  0.61584882  0.36159681  1
  Zn  Zn154  1  0.56369677  0.56412458  0.80996860  1
  Zn  Zn155  1  0.48076270  0.20659462  0.45775547  1
  Zn  Zn156  1  0.43743757  0.18519245  0.93107257  1
  Zn  Zn157  1  0.44571301  0.78718462  0.45281367  1
  Zn  Zn158  1  0.43888339  0.68906790  0.93510003  1
  Zn  Zn159  1  0.94077840  0.18182202  0.43667576  1
  Zn  Zn160  1  0.93695666  0.18647682  0.93784151  1
  Zn  Zn161  1  0.94178682  0.68788682  0.43574552  1
  Zn  Zn162  1  0.93385827  0.68705410  0.93772644  1
  Zn  Zn163  1  0.06365636  0.31119645  0.05943423  1
  Zn  Zn164  1  0.06249813  0.31035078  0.56377123  1
  Zn  Zn165  1  0.05871978  0.81174261  0.06134226  1
  Zn  Zn166  1  0.06644968  0.81331394  0.56363166  1
  Zn  Zn167  1  0.55979902  0.31167126  0.06025244  1
  Zn  Zn168  1  0.57213066  0.32204668  0.56400690  1
  Zn  Zn169  1  0.56382163  0.81762726  0.06050328  1
  Zn  Zn170  1  0.56276821  0.81950264  0.57120170  1
  O  O171  1  0.12140761  0.11771529  0.11011019  1
  O  O172  1  0.11693455  0.11794136  0.62205561  1
  O  O173  1  0.11507529  0.61691181  0.12159812  1
  O  O174  1  0.11972726  0.62061178  0.61847037  1
  O  O175  1  0.62193594  0.11001114  0.11164058  1
  O  O176  1  0.61847267  0.09993955  0.65796044  1
  O  O177  1  0.61482180  0.61485609  0.11650711  1
  O  O178  1  0.62904893  0.61023191  0.62021079  1
  O  O179  1  0.37021183  0.39022065  0.38677992  1
  O  O180  1  0.37968489  0.38047873  0.87757481  1
  O  O181  1  0.38933744  0.85343988  0.37463433  1
  O  O182  1  0.36437066  0.89084763  0.87681650  1
  O  O183  1  0.87876217  0.37761329  0.38698059  1
  O  O184  1  0.88351887  0.38246135  0.88100129  1
  O  O185  1  0.87614472  0.89424230  0.38160113  1
  O  O186  1  0.87190608  0.88337026  0.87974056  1
  O  O187  1  0.28199642  -0.01433534  0.35448732  1
  O  O188  1  0.25270969  0.01165123  0.86825112  1
  O  O189  1  0.25047591  0.50732693  0.37237467  1
  O  O190  1  0.25318320  0.50656703  0.86787599  1
  O  O191  1  0.76149522  0.00432431  0.38841415  1
  O  O192  1  0.75710652  0.01358832  0.87784453  1
  O  O193  1  0.75727895  0.50321207  0.36410063  1
  O  O194  1  0.76575451  0.49935637  0.88215825  1
  O  O195  1  0.24032013  0.49287129  0.12888926  1
  O  O196  1  0.24319104  0.49175741  0.63012674  1
  O  O197  1  0.24369428  0.99385938  0.12422170  1
  O  O198  1  0.24002856  0.99985220  0.63301749  1
  O  O199  1  0.74009843  0.48953878  0.12539129  1
  O  O200  1  0.74211347  0.49825277  0.62678209  1
  O  O201  1  0.73033635  0.98701171  0.11214595  1
  O  O202  1  0.74163818  0.98469669  0.63032302  1
  O  O203  1  0.00497150  0.37312611  0.26343240  1
  O  O204  1  0.00986551  0.37512063  0.75969355  1
  O  O205  1  0.01503301  0.87013734  0.23910988  1
  O  O206  1  -0.00163970  0.86216784  0.75091019  1
  O  O207  1  0.50742914  0.37475022  0.25173364  1
  O  O208  1  0.49937308  0.37095184  0.76045307  1
  O  O209  1  0.49629583  0.86803851  0.24577173  1
  O  O210  1  0.51406355  0.86126233  0.75309703  1
  O  O211  1  0.48091531  0.13942042  0.24602843  1
  O  O212  1  0.49052257  0.13711960  0.75326501  1
  O  O213  1  0.49720589  0.61489884  0.24129947  1
  O  O214  1  0.49017726  0.63785365  0.75827657  1
  O  O215  1  1.00994199  0.12168878  0.23019177  1
  O  O216  1  0.99074788  0.12760144  0.74419441  1
  O  O217  1  1.00283564  0.63493990  0.24043561  1
  O  O218  1  0.99671966  0.63551510  0.74385977  1
  O  O219  1  0.36899478  0.25453258  0.00326169  1
  O  O220  1  0.37736165  0.26564181  0.49562638  1
  O  O221  1  0.37040211  0.75050855  0.00340714  1
  O  O222  1  0.37336276  0.73636760  0.52588874  1
  O  O223  1  0.87326483  0.26365712  -0.00469371  1
  O  O224  1  0.87549775  0.25465031  0.51071459  1
  O  O225  1  0.86630438  0.75824550  0.00053881  1
  O  O226  1  0.88043511  0.74373224  0.51358691  1
  O  O227  1  0.13014060  0.24287985  0.49433226  1
  O  O228  1  0.13460932  0.24061226  1.00104710  1
  O  O229  1  0.11695262  0.73557885  0.49261679  1
  O  O230  1  0.12237215  0.74861335  0.98537307  1
  O  O231  1  0.59065736  0.24863281  0.48497636  1
  O  O232  1  0.62130012  0.24177817  0.99130275  1
  O  O233  1  0.62073776  0.73434909  0.51345919  1
  O  O234  1  0.62955840  0.74340908  0.99405951  1
  O  O235  1  0.48512582  0.26226032  0.13448714  1
  O  O236  1  0.50524289  0.25137847  0.63882184  1
  O  O237  1  0.49412074  0.73965376  0.11654970  1
  O  O238  1  0.48624383  0.75283589  0.63851507  1
  O  O239  1  1.00896307  0.23503141  0.12426673  1
  O  O240  1  0.99585701  0.23829585  0.62617799  1
  O  O241  1  0.99743913  0.74103511  0.13092664  1
  O  O242  1  0.99364768  0.74749269  0.63236747  1
  O  O243  1  0.01235458  0.25812186  0.38047860  1
  O  O244  1  -0.00297612  0.26470798  0.87532315  1
  O  O245  1  0.01137943  0.74292746  0.36466634  1
  O  O246  1  0.00423330  0.75049321  0.86748906  1
  O  O247  1  0.48216285  0.26367931  0.35569948  1
  O  O248  1  0.50412181  0.25927702  0.86890358  1
  O  O249  1  0.50809749  0.73039984  0.37060820  1
  O  O250  1  0.51590505  0.74833202  0.87082393  1
  O  O251  1  0.23552271  0.13439817  0.50817323  1
  O  O252  1  0.24377875  0.12849906  0.99047457  1
  O  O253  1  0.23925767  0.62479433  0.49449882  1
  O  O254  1  0.24198749  0.62391862  0.98307100  1
  O  O255  1  0.72898702  0.13241441  0.54232063  1
  O  O256  1  0.73636399  0.12736821  0.99419535  1
  O  O257  1  0.73784296  0.62293289  0.50290437  1
  O  O258  1  0.73942049  0.63851434  1.01138152  1
  O  O259  1  0.25250195  0.36976090  0.00203004  1
  O  O260  1  0.25592708  0.37129419  0.50842338  1
  O  O261  1  0.24867814  0.87547830  0.00923731  1
  O  O262  1  0.23733355  0.85571530  0.49900211  1
  O  O263  1  0.75877631  0.37404718  0.00380385  1
  O  O264  1  0.75224542  0.38077843  0.49872303  1
  O  O265  1  0.75755025  0.86612724  0.00365689  1
  O  O266  1  0.74648790  0.87258236  0.51775381  1
  O  O267  1  0.12613306  0.49227382  0.24564233  1
  O  O268  1  0.12910585  0.49188235  0.74459680  1
  O  O269  1  0.13332331  0.99297062  0.24472851  1
  O  O270  1  0.13082113  1.00325183  0.74307737  1
  O  O271  1  0.63305577  0.48720268  0.23733722  1
  O  O272  1  0.62112071  0.49508433  0.73754366  1
  O  O273  1  0.60977257  1.00831468  0.23316508  1
  O  O274  1  0.62169197  0.98144760  0.75283290  1
  O  O275  1  0.36878730  0.01518546  0.22861408  1
  O  O276  1  0.36761223  0.00618900  0.75648524  1
  O  O277  1  0.36481826  0.49660745  0.25841525  1
  O  O278  1  0.36863276  0.50823263  0.75489894  1
  O  O279  1  0.87851140  0.00561648  0.26891362  1
  O  O280  1  0.88114749  0.00812818  0.76211675  1
  O  O281  1  0.86617987  0.48807810  0.26219953  1
  O  O282  1  0.88120734  0.51211905  0.76049943  1
  O  O283  1  0.11756351  0.36967666  0.37133819  1
  O  O284  1  0.11681573  0.38076854  0.86527493  1
  O  O285  1  0.13752815  0.85946680  0.36098337  1
  O  O286  1  0.12043943  0.86644332  0.87117557  1
  O  O287  1  0.62388027  0.37563356  0.36324625  1
  O  O288  1  0.61595967  0.37437188  0.87051975  1
  O  O289  1  0.62206761  0.87841542  0.37303658  1
  O  O290  1  0.63235647  0.86620617  0.86623158  1
  O  O291  1  0.36676436  0.14190622  0.12558885  1
  O  O292  1  0.37766137  0.12113431  0.64141774  1
  O  O293  1  0.37017175  0.62804949  0.11564969  1
  O  O294  1  0.36576396  0.63207614  0.64346944  1
  O  O295  1  0.89662612  0.12219082  0.10833322  1
  O  O296  1  0.88144743  0.13196447  0.63199551  1
  O  O297  1  0.88559169  0.62628109  0.11983201  1
  O  O298  1  0.88066145  0.63254792  0.63341456  1
  O  O299  1  0.25385747  0.25730368  0.11742012  1
  O  O300  1  0.24568876  0.26306161  0.61840067  1
  O  O301  1  0.25284629  0.75457726  0.11725655  1
  O  O302  1  0.26279624  0.75438396  0.63436169  1
  O  O303  1  0.73978518  0.26742275  0.11949609  1
  O  O304  1  0.76915183  0.26436532  0.63621366  1
  O  O305  1  0.75441297  0.76589611  0.12061386  1
  O  O306  1  0.75869508  0.76270324  0.63088943  1
  O  O307  1  0.23638910  0.25911756  0.38344592  1
  O  O308  1  0.25409691  0.23635737  0.87844721  1
  O  O309  1  0.23806302  0.73213180  0.37604949  1
  O  O310  1  0.23974705  0.74309787  0.87217922  1
  O  O311  1  0.76204231  0.26867601  0.38433595  1
  O  O312  1  0.74496320  0.23789640  0.87775175  1
  O  O313  1  0.73665546  0.74094604  0.33740607  1
  O  O314  1  0.73899975  0.75105812  0.88739881  1
  O  O315  1  0.00915804  0.12218995  0.00211932  1
  O  O316  1  0.01092287  0.12247050  0.50987239  1
  O  O317  1  -0.00037009  0.61623887  0.00592412  1
  O  O318  1  0.00559644  0.61567870  0.50617530  1
  O  O319  1  0.51085984  0.11680888  -0.01074767  1
  O  O320  1  0.50846334  0.10957743  0.50959320  1
  O  O321  1  0.51399154  0.62105266  -0.00876461  1
  O  O322  1  0.51321515  0.61026301  0.50268080  1
  O  O323  1  0.49158997  0.39079123  0.50030324  1
  O  O324  1  0.49293939  0.37592839  0.98631717  1
  O  O325  1  0.50230084  0.87731377  0.49686543  1
  O  O326  1  0.49851114  0.88692878  0.99548671  1
  O  O327  1  1.00974009  0.38436795  0.48966660  1
  O  O328  1  0.99449207  0.38131761  0.99563516  1
  O  O329  1  1.00437262  0.89025091  0.50600624  1
  O  O330  1  0.98453149  0.87834064  0.99947940  1
  O  O331  1  0.48747790  0.50488058  0.38845942  1
  O  O332  1  0.49246854  0.49231940  0.87383223  1
  O  O333  1  0.47419158  1.01209929  0.36559960  1
  O  O334  1  0.48838166  1.00484742  0.87796474  1
  O  O335  1  0.99150170  0.49273211  0.38073376  1
  O  O336  1  0.99486049  0.49139451  0.88367257  1
  O  O337  1  1.00684352  0.99834695  0.38893106  1
  O  O338  1  0.99117433  0.99820401  0.88146981  1
  O  O339  1  0.00590244  0.00645184  0.11702521  1
  O  O340  1  0.00272650  0.01045839  0.62220045  1
  O  O341  1  0.00098650  0.50556060  0.11948141  1
  O  O342  1  0.00436758  0.50460792  0.61818423  1
  O  O343  1  0.51191476  -0.00442667  0.10901491  1
  O  O344  1  0.51353876  -0.00544337  0.63216960  1
  O  O345  1  0.51210090  0.48939046  0.11865010  1
  O  O346  1  0.49736718  0.50283695  0.61778676  1
  O  O347  1  0.24180412  0.37932655  0.24498679  1
  O  O348  1  0.24490339  0.37871838  0.74422236  1
  O  O349  1  0.23988104  0.88647159  0.23002701  1
  O  O350  1  0.24576616  0.89136447  0.75103198  1
  O  O351  1  0.74191763  0.38259174  0.23880114  1
  O  O352  1  0.73869400  0.37432437  0.76359392  1
  O  O353  1  0.75392285  0.87693126  0.23288614  1
  O  O354  1  0.73666153  0.86881151  0.74778034  1
  O  O355  1  0.25425500  0.11091833  0.24075495  1
  O  O356  1  0.25396449  0.11929901  0.75488628  1
  O  O357  1  0.24355159  0.61381169  0.25679043  1
  O  O358  1  0.25305572  0.61970569  0.75977794  1
  O  O359  1  0.75858745  0.11860743  0.20448456  1
  O  O360  1  0.76544790  0.12990599  0.75607930  1
  O  O361  1  0.75303773  0.60631583  0.23752055  1
  O  O362  1  0.76144012  0.63015232  0.74758873  1
  O  O363  1  0.36359161  0.12739481  0.36194338  1
  O  O364  1  0.36529400  0.11645060  0.86635944  1
  O  O365  1  0.36175797  0.61070117  0.36949330  1
  O  O366  1  0.36534729  0.62239799  0.86678217  1
  O  O367  1  0.88132640  0.10885950  0.37882594  1
  O  O368  1  0.86921925  0.11987777  0.86968848  1
  O  O369  1  0.87255215  0.61307306  0.37880427  1
  O  O370  1  0.88045490  0.61573510  0.86583288  1
  O  O371  1  0.12659732  0.38080704  0.13056284  1
  O  O372  1  0.13072291  0.38101773  0.63175768  1
  O  O373  1  0.12936722  0.87945631  0.12671171  1
  O  O374  1  0.12424913  0.88913026  0.63017024  1
  O  O375  1  0.62977513  0.38073997  0.12548886  1
  O  O376  1  0.62203896  0.39058508  0.63769158  1
  O  O377  1  0.63443123  0.88586824  0.12011263  1
  O  O378  1  0.63523822  0.87945575  0.64007549  1
  O  O379  1  0.12295277  0.25365492  0.25853371  1
  O  O380  1  0.12459728  0.26328731  0.74586640  1
  O  O381  1  0.11773881  0.75672221  0.25341974  1
  O  O382  1  0.11548641  0.75080613  0.75899116  1
  O  O383  1  0.61193439  0.26260528  0.24673599  1
  O  O384  1  0.61420193  0.26512313  0.75943751  1
  O  O385  1  0.61108163  0.72935735  0.22997697  1
  O  O386  1  0.62036173  0.75369184  0.75667943  1
  O  O387  1  0.37211619  0.24836097  0.23865737  1
  O  O388  1  0.38446961  0.24183826  0.75589953  1
  O  O389  1  0.36587183  0.73141896  0.22487437  1
  O  O390  1  0.38220468  0.74604811  0.74991753  1
  O  O391  1  0.88629839  0.23785297  0.25574591  1
  O  O392  1  0.88236040  0.24467399  0.74202440  1
  O  O393  1  0.89058361  0.76335305  0.24914782  1
  O  O394  1  0.88121056  0.74256652  0.74779770  1
  O  O395  1  0.38246750  0.49966266  0.49887346  1
  O  O396  1  0.37385257  0.49170777  0.99060838  1
  O  O397  1  0.37011912  1.01392220  0.48937568  1
  O  O398  1  0.38487920  1.00207674  0.99058438  1
  O  O399  1  0.88635044  0.50345647  0.49564161  1
  O  O400  1  0.88428874  0.49409360  0.99450379  1
  O  O401  1  0.89187271  1.00580150  0.49505680  1
  O  O402  1  0.87877545  0.99240170  0.98596913  1
  O  O403  1  0.11648479  0.00644238  0.00160447  1
  O  O404  1  0.11261551  0.01077751  0.51195573  1
  O  O405  1  0.11042098  0.49950975  0.00519893  1
  O  O406  1  0.11611203  0.50844497  0.50406862  1
  O  O407  1  0.61605252  0.00620505  -0.00582110  1
  O  O408  1  0.62533475  -0.00165126  0.52241192  1
  O  O409  1  0.62564030  0.50779229  0.00547692  1
  O  O410  1  0.61509107  0.49902028  0.51714890  1
  O  O411  1  0.36584090  0.36932904  0.11685082  1
  O  O412  1  0.36371279  0.38219887  0.61689980  1
  O  O413  1  0.36543928  0.86259475  0.11720033  1
  O  O414  1  0.37103037  0.86383707  0.63423689  1
  O  O415  1  0.86611445  0.38152360  0.11345885  1
  O  O416  1  0.89008999  0.36254507  0.62890491  1
  O  O417  1  0.86278300  0.88347322  0.11593498  1
  O  O418  1  0.86110275  0.86813803  0.63215158  1
  O  O419  1  0.12147813  0.13336573  0.38461967  1
  O  O420  1  0.13141137  0.12056385  0.88510695  1
  O  O421  1  0.12820269  0.62583618  0.38298088  1
  O  O422  1  0.12965320  0.63207159  0.87297393  1
  O  O423  1  0.62568052  0.14097722  0.37094420  1
  O  O424  1  0.63266469  0.12950008  0.87585619  1
  O  O425  1  0.63183081  0.61785839  0.40033834  1
  O  O426  1  0.62865038  0.63036164  0.88106473  1
