# generated using pymatgen
data_V85Zn86O256
_symmetry_space_group_name_H-M   'P 1'
_cell_length_a   16.96669568
_cell_length_b   16.97194225
_cell_length_c   16.97500492
_cell_angle_alpha   90.01800479
_cell_angle_beta   90.07427521
_cell_angle_gamma   90.01378627
_symmetry_Int_Tables_number   1
_chemical_formula_structural   V85Zn86O256
_chemical_formula_sum   'V85 Zn86 O256'
_cell_volume   4888.08023001
_cell_formula_units_Z   1
loop_
 _symmetry_equiv_pos_site_id
 _symmetry_equiv_pos_as_xyz
  1  'x, y, z'
loop_
 _atom_site_type_symbol
 _atom_site_label
 _atom_site_symmetry_multiplicity
 _atom_site_fract_x
 _atom_site_fract_y
 _atom_site_fract_z
 _atom_site_occupancy
  V  V0  1  0.24962701  0.12742201  0.37636560  1
  V  V1  1  0.24713617  0.25086837  0.01241014  1
  V  V2  1  0.75167679  0.87619535  0.12670813  1
  V  V3  1  0.75116255  0.62757397  0.37134559  1
  V  V4  1  0.49733541  0.61979247  0.62899867  1
  V  V5  1  0.75919219  0.37653294  0.12245725  1
  V  V6  1  0.61387869  0.24960218  0.87586450  1
  V  V7  1  0.50244244  0.49956574  0.01244161  1
  V  V8  1  -0.01462963  0.37757486  0.87979959  1
  V  V9  1  0.36936240  0.25330540  0.12610762  1
  V  V10  1  0.24395237  0.62892314  0.37301348  1
  V  V11  1  -0.00364429  0.86650568  0.39716388  1
  V  V12  1  0.24740867  0.49651391  0.24264783  1
  V  V13  1  0.11900596  0.12393545  0.00572040  1
  V  V14  1  0.49758989  0.00067949  0.00327387  1
  V  V15  1  0.49945710  0.37601063  0.37101106  1
  V  V16  1  0.38164806  0.14345051  0.73981833  1
  V  V17  1  0.49708716  0.75328162  0.24911715  1
  V  V18  1  0.11574009  0.24954844  0.38141912  1
  V  V19  1  0.75151646  0.11920780  0.87662748  1
  V  V20  1  0.25329136  0.37248475  0.62841573  1
  V  V21  1  0.50730910  0.50377997  0.49731827  1
  V  V22  1  -0.00664537  0.00086729  0.00078564  1
  V  V23  1  0.87024465  0.88217278  -0.01029514  1
  V  V24  1  0.62587580  0.75259360  0.37658087  1
  V  V25  1  0.00129595  0.49950824  0.49752226  1
  V  V26  1  0.11188209  0.86229805  0.25819522  1
  V  V27  1  0.87625290  0.24939767  0.62527287  1
  V  V28  1  0.59801288  0.35280718  0.72515317  1
  V  V29  1  0.88787268  0.75293276  0.12177992  1
  V  V30  1  0.62428771  0.38073841  0.24044413  1
  V  V31  1  0.75981281  0.75744071  0.50278301  1
  V  V32  1  0.62370971  0.12514211  0.00315168  1
  V  V33  1  0.49667027  0.38450628  0.87861439  1
  V  V34  1  0.12292429  0.62641778  0.49682184  1
  V  V35  1  0.62463751  0.88161928  0.25235338  1
  V  V36  1  0.24152576  0.87357758  0.12680310  1
  V  V37  1  0.26794769  0.50071332  0.75582254  1
  V  V38  1  0.76560657  0.00290009  0.25164107  1
  V  V39  1  0.36869010  0.12633032  0.24871670  1
  V  V40  1  0.12645288  0.38063198  0.75336872  1
  V  V41  1  0.37836483  0.74809699  0.62870804  1
  V  V42  1  0.87955703  0.63171747  0.24333570  1
  V  V43  1  0.65133790  0.52126627  0.65648359  1
  V  V44  1  0.37575369  0.87178707  0.00266721  1
  V  V45  1  0.20777136  0.77520681  -0.02661049  1
  V  V46  1  0.88388333  0.23965321  0.12872132  1
  V  V47  1  0.13108524  0.11649268  0.50518082  1
  V  V48  1  0.62592691  0.24718158  0.36980612  1
  V  V49  1  0.12901457  0.25286243  0.87777273  1
  V  V50  1  0.37610023  0.37513139  0.50149820  1
  V  V51  1  0.75087068  0.74786254  -0.00015377  1
  V  V52  1  0.49778626  0.24942974  0.24804931  1
  V  V53  1  0.36858216  0.38095408  0.00327738  1
  V  V54  1  0.00386603  0.11809872  0.62692465  1
  V  V55  1  0.62444273  0.88540108  0.73750254  1
  V  V56  1  0.87490303  0.37282515  0.49372028  1
  V  V57  1  0.37187935  0.62747638  0.24831844  1
  V  V58  1  0.74646089  0.50517719  0.23675118  1
  V  V59  1  0.62655288  0.62217950  0.01028897  1
  V  V60  1  0.50153740  0.00505815  0.51566944  1
  V  V61  1  0.50419764  0.74291619  0.74921441  1
  V  V62  1  0.37272943  0.50005883  0.37439476  1
  V  V63  1  0.75592622  0.25201728  0.00031087  1
  V  V64  1  0.12391434  0.61244658  -0.01037325  1
  V  V65  1  0.37677847  0.00150344  0.37732359  1
  V  V66  1  0.20417321  0.83043261  0.68012370  1
  V  V67  1  0.50231274  0.87505130  0.87573608  1
  V  V68  1  -0.02002068  0.49687263  -0.00046329  1
  V  V69  1  0.00102960  0.25382285  0.75237909  1
  V  V70  1  0.62816855  0.74735515  0.87651916  1
  V  V71  1  0.14659520  0.00562182  0.64395146  1
  V  V72  1  0.76422668  0.12895774  0.36881455  1
  V  V73  1  0.12118323  0.37089117  0.24552310  1
  V  V74  1  0.62225838  0.12587415  0.51103528  1
  V  V75  1  0.87566598  0.12204290  0.75648494  1
  V  V76  1  0.75046722  0.25453272  0.49850099  1
  V  V77  1  0.26719788  0.61750997  0.87978824  1
  V  V78  1  0.24815624  0.75404225  0.49678065  1
  V  V79  1  0.87557804  0.50214602  0.36994167  1
  V  V80  1  0.00282640  0.62422230  0.12351477  1
  V  V81  1  -0.00638851  0.62863065  0.63578939  1
  V  V82  1  0.37193369  0.87719116  0.50324614  1
  V  V83  1  0.76384121  0.39026090  0.65098379  1
  V  V84  1  0.36807090  0.00214412  0.86606302  1
  Zn  Zn85  1  0.50286457  0.62181191  0.13100579  1
  Zn  Zn86  1  0.24992645  -0.00311016  0.24900125  1
  Zn  Zn87  1  0.88032379  0.75754025  0.63703884  1
  Zn  Zn88  1  0.12635649  0.49807352  0.62471040  1
  Zn  Zn89  1  0.24965250  0.12297372  0.87179998  1
  Zn  Zn90  1  0.06183269  0.81179943  0.80521002  1
  Zn  Zn91  1  0.74494321  0.00778519  0.74049108  1
  Zn  Zn92  1  0.93453986  -0.05420376  0.82712182  1
  Zn  Zn93  1  0.49869489  0.87890795  0.37739917  1
  Zn  Zn94  1  0.36950164  0.74854831  0.11835659  1
  Zn  Zn95  1  0.49650881  0.12392287  0.12693189  1
  Zn  Zn96  1  -0.04358857  0.18799702  0.28004177  1
  Zn  Zn97  1  -0.00122499  0.37021611  0.37209874  1
  Zn  Zn98  1  0.88100943  -0.01237664  0.39393131  1
  Zn  Zn99  1  0.62637669  0.62549561  0.49712643  1
  Zn  Zn100  1  0.75884841  0.89376529  0.61169921  1
  Zn  Zn101  1  0.11925245  0.00025120  0.13042866  1
  Zn  Zn102  1  0.80255257  0.53215145  0.78495091  1
  Zn  Zn103  1  0.25612935  0.25105063  0.50561413  1
  Zn  Zn104  1  0.41988019  0.26245751  0.63307224  1
  Zn  Zn105  1  0.62404398  0.00229847  0.12861696  1
  Zn  Zn106  1  0.12628175  0.49392052  0.12361954  1
  Zn  Zn107  1  0.14347276  0.16642276  0.21074087  1
  Zn  Zn108  1  0.19712390  0.18949014  0.69479903  1
  Zn  Zn109  1  0.18527297  0.69169104  0.17531433  1
  Zn  Zn110  1  0.18591106  0.66522529  0.69073312  1
  Zn  Zn111  1  0.69008378  0.18834115  0.18572972  1
  Zn  Zn112  1  0.68983995  0.19440444  0.69004152  1
  Zn  Zn113  1  0.68934621  0.69350504  0.18701535  1
  Zn  Zn114  1  0.72189246  0.69817409  0.70801202  1
  Zn  Zn115  1  0.30553163  0.31162249  0.31292601  1
  Zn  Zn116  1  0.31520662  0.31315978  0.81716240  1
  Zn  Zn117  1  0.31122959  0.81252861  0.31458820  1
  Zn  Zn118  1  0.32319601  0.80452052  0.81866781  1
  Zn  Zn119  1  0.81221677  0.31519718  0.30764976  1
  Zn  Zn120  1  0.80348118  0.31240833  0.81185453  1
  Zn  Zn121  1  0.81878477  0.81368207  0.31356700  1
  Zn  Zn122  1  0.80215522  0.81712587  0.80909008  1
  Zn  Zn123  1  0.18739524  0.43759258  0.43514113  1
  Zn  Zn124  1  0.18922172  0.43635310  0.93666169  1
  Zn  Zn125  1  0.18429375  0.93693296  0.43634950  1
  Zn  Zn126  1  0.18164778  0.94211532  0.93301874  1
  Zn  Zn127  1  0.69152454  0.43715294  0.42938141  1
  Zn  Zn128  1  0.67991489  0.43002478  0.94414562  1
  Zn  Zn129  1  0.68699890  0.94408494  0.43666667  1
  Zn  Zn130  1  0.68473940  0.93817320  0.93610066  1
  Zn  Zn131  1  0.30658126  0.06302451  0.06039459  1
  Zn  Zn132  1  0.32062955  0.07087885  0.56689429  1
  Zn  Zn133  1  0.31206305  0.56353407  0.06211644  1
  Zn  Zn134  1  0.31323421  0.56075319  0.56404797  1
  Zn  Zn135  1  0.81241440  0.06391567  0.06607482  1
  Zn  Zn136  1  0.80959390  0.06210276  0.56212762  1
  Zn  Zn137  1  0.80772457  0.56812535  -0.05497927  1
  Zn  Zn138  1  0.81729703  0.56997790  0.55354207  1
  Zn  Zn139  1  0.43232784  0.43666859  0.18608409  1
  Zn  Zn140  1  0.44327841  0.43878465  0.68718805  1
  Zn  Zn141  1  0.43328712  0.93766873  0.18731114  1
  Zn  Zn142  1  0.43400819  0.93127632  0.68932120  1
  Zn  Zn143  1  0.93731429  0.43813440  0.18605664  1
  Zn  Zn144  1  0.94089216  0.43680657  0.68257462  1
  Zn  Zn145  1  0.94297392  0.93860214  0.18278497  1
  Zn  Zn146  1  0.95358845  0.92671254  0.66135187  1
  Zn  Zn147  1  0.06517355  0.04425367  0.31726545  1
  Zn  Zn148  1  0.06535342  0.06548929  0.81554853  1
  Zn  Zn149  1  0.06250045  0.56374501  0.31081317  1
  Zn  Zn150  1  0.06120039  0.55760371  0.81754657  1
  Zn  Zn151  1  0.56036035  0.06525726  0.31562581  1
  Zn  Zn152  1  0.55610223  0.06429358  0.81595112  1
  Zn  Zn153  1  0.56234573  0.56469475  0.31151369  1
  Zn  Zn154  1  0.63452036  0.54866005  0.82728000  1
  Zn  Zn155  1  0.43942713  0.18847970  0.43946885  1
  Zn  Zn156  1  0.43449025  0.18667629  0.94008981  1
  Zn  Zn157  1  0.43528381  0.68867479  0.43616056  1
  Zn  Zn158  1  0.44532400  0.68535530  0.93823342  1
  Zn  Zn159  1  0.92671765  0.15631971  0.45792488  1
  Zn  Zn160  1  0.93849451  0.18998454  0.94034279  1
  Zn  Zn161  1  0.94049534  0.69063988  0.43440643  1
  Zn  Zn162  1  0.91715424  0.68439250  0.81638577  1
  Zn  Zn163  1  0.06050747  0.31592155  0.06280024  1
  Zn  Zn164  1  0.06455860  0.31085596  0.56260709  1
  Zn  Zn165  1  0.02813430  0.78447937  -0.03296807  1
  Zn  Zn166  1  0.06370227  0.80713050  0.56532038  1
  Zn  Zn167  1  0.56130027  0.31013048  0.06377286  1
  Zn  Zn168  1  0.58041834  0.33054752  0.55142636  1
  Zn  Zn169  1  0.56261480  0.81279522  0.06681867  1
  Zn  Zn170  1  0.56027561  0.81413950  0.55879346  1
  O  O171  1  0.13758815  0.11953281  0.10736968  1
  O  O172  1  0.12854808  0.12066486  0.62633029  1
  O  O173  1  0.11760586  0.61684593  0.11904465  1
  O  O174  1  0.11520704  0.61760977  0.61537898  1
  O  O175  1  0.62358968  0.12374993  0.11392520  1
  O  O176  1  0.62909659  0.14096361  0.60905571  1
  O  O177  1  0.62190723  0.63533683  0.11467516  1
  O  O178  1  0.61413983  0.61444534  0.61392586  1
  O  O179  1  0.37805509  0.37913031  0.38171415  1
  O  O180  1  0.38814413  0.36759761  0.89022353  1
  O  O181  1  0.37423297  0.88594370  0.38165484  1
  O  O182  1  0.38226750  0.88468874  0.88187400  1
  O  O183  1  0.87867478  0.38175012  0.37586141  1
  O  O184  1  0.88655024  0.36427116  0.87181956  1
  O  O185  1  0.88874104  0.87232417  0.37985723  1
  O  O186  1  0.85736185  0.88280866  0.88484664  1
  O  O187  1  0.26024648  0.01083098  0.37868335  1
  O  O188  1  0.26491151  0.00016481  0.87991082  1
  O  O189  1  0.25448419  0.51211723  0.36966754  1
  O  O190  1  0.25285422  0.50831771  0.87079325  1
  O  O191  1  0.75902206  0.01026284  0.36943076  1
  O  O192  1  0.74115633  0.01717536  0.87137431  1
  O  O193  1  0.75728496  0.50802894  0.36374903  1
  O  O194  1  0.73084794  0.50511343  0.87909023  1
  O  O195  1  0.24923326  0.50383105  0.13983749  1
  O  O196  1  0.24999649  0.49138825  0.63447652  1
  O  O197  1  0.24946049  0.98478423  0.12339637  1
  O  O198  1  0.24534365  1.00640645  0.62709330  1
  O  O199  1  0.74902364  0.49178592  0.13642801  1
  O  O200  1  0.74634740  0.49625466  0.60707301  1
  O  O201  1  0.74717425  0.99108012  0.13313430  1
  O  O202  1  0.74324755  1.00544970  0.62595185  1
  O  O203  1  0.01612017  0.38293079  0.25453817  1
  O  O204  1  0.00870340  0.37384630  0.75704277  1
  O  O205  1  0.01210113  0.86691952  0.24238997  1
  O  O206  1  0.00575038  0.89564101  0.75625147  1
  O  O207  1  0.50557990  0.37178492  0.25295155  1
  O  O208  1  0.49389393  0.37651032  0.77228423  1
  O  O209  1  0.50610059  0.87071721  0.25264438  1
  O  O210  1  0.50973534  0.86461119  0.75386781  1
  O  O211  1  0.49012280  0.13250877  0.24889763  1
  O  O212  1  0.47918777  0.12521329  0.76069692  1
  O  O213  1  0.49019680  0.63305273  0.25045058  1
  O  O214  1  0.50803921  0.63353758  0.73310221  1
  O  O215  1  1.03990085  0.12647380  0.24676445  1
  O  O216  1  0.99534041  0.13466429  0.74723093  1
  O  O217  1  0.99405635  0.61891115  0.23438216  1
  O  O218  1  1.00342063  0.61644600  0.73747202  1
  O  O219  1  0.36689596  0.25539408  0.00856282  1
  O  O220  1  0.38275364  0.26518325  0.50710678  1
  O  O221  1  0.38724953  0.76691625  -0.00150918  1
  O  O222  1  0.36479135  0.75304543  0.50592400  1
  O  O223  1  0.86156253  0.24608275  0.00894372  1
  O  O224  1  0.87007858  0.24947550  0.50730567  1
  O  O225  1  0.86134218  0.76441986  0.00788305  1
  O  O226  1  0.86028928  0.74378786  0.50162388  1
  O  O227  1  0.13322706  0.24652883  0.49387165  1
  O  O228  1  0.12857665  0.24476770  0.99732090  1
  O  O229  1  0.13980765  0.73967865  0.50993822  1
  O  O230  1  0.11955739  0.72504076  1.01037025  1
  O  O231  1  0.63073956  0.25030855  0.48732441  1
  O  O232  1  0.63176554  0.24168262  0.99810354  1
  O  O233  1  0.62474403  0.75003516  0.48490027  1
  O  O234  1  0.62940611  0.74840914  0.99640422  1
  O  O235  1  0.48925362  0.24722271  0.13143447  1
  O  O236  1  0.52899592  0.30530890  0.64819359  1
  O  O237  1  0.49685002  0.75075934  0.14015920  1
  O  O238  1  0.49610817  0.74245555  0.62784422  1
  O  O239  1  0.98255990  0.25323605  0.11639377  1
  O  O240  1  0.99547092  0.24767281  0.63476882  1
  O  O241  1  0.98849064  0.74002083  0.10904660  1
  O  O242  1  1.00032320  0.73387132  0.62785528  1
  O  O243  1  0.01092315  0.24423892  0.37735943  1
  O  O244  1  0.01110898  0.25742431  0.87312842  1
  O  O245  1  0.00298820  0.76535386  0.37852652  1
  O  O246  1  -0.00500885  0.74578814  0.86610582  1
  O  O247  1  0.50610919  0.25675817  0.36800264  1
  O  O248  1  0.50938253  0.25962944  0.89185981  1
  O  O249  1  0.50603870  0.75235809  0.36470433  1
  O  O250  1  0.50534286  0.75454965  0.86569949  1
  O  O251  1  0.24865540  0.13127780  0.49663018  1
  O  O252  1  0.24126898  0.13433550  0.99344852  1
  O  O253  1  0.24376311  0.62830749  0.49351617  1
  O  O254  1  0.24093648  0.62178989  0.99051996  1
  O  O255  1  0.74035907  0.13703065  0.48467789  1
  O  O256  1  0.74242769  0.13034435  0.99574917  1
  O  O257  1  0.74673026  0.63589961  0.48743620  1
  O  O258  1  0.74219993  0.64000362  1.00596270  1
  O  O259  1  0.25880869  0.36651670  -0.00333990  1
  O  O260  1  0.26056524  0.37840235  0.50832519  1
  O  O261  1  0.25654861  0.87428957  0.00518767  1
  O  O262  1  0.25444759  0.86366003  0.49401321  1
  O  O263  1  0.74158772  0.36374645  0.01202354  1
  O  O264  1  0.75853316  0.36945313  0.49676697  1
  O  O265  1  0.74994824  0.87364881  0.01016175  1
  O  O266  1  0.74341058  0.86215147  0.49607452  1
  O  O267  1  0.13196029  0.49006206  0.25158573  1
  O  O268  1  0.13270451  0.48891171  0.75210765  1
  O  O269  1  0.13395623  0.97759051  0.24768188  1
  O  O270  1  0.13688854  1.01122176  0.74329773  1
  O  O271  1  0.63277935  0.49167026  0.25594944  1
  O  O272  1  0.60304200  0.47606921  0.74154883  1
  O  O273  1  0.62770624  0.99071265  0.25278621  1
  O  O274  1  0.61591653  0.98702202  0.75501248  1
  O  O275  1  0.37164556  0.00763554  0.25884371  1
  O  O276  1  0.38184049  0.00121039  0.76512621  1
  O  O277  1  0.36702261  0.50657112  0.25495488  1
  O  O278  1  0.36678514  0.49720180  0.74891215  1
  O  O279  1  0.86663799  -0.00402683  0.24970064  1
  O  O280  1  0.87400193  0.01814748  0.75216456  1
  O  O281  1  0.86797777  0.51126855  0.25055333  1
  O  O282  1  0.83555214  0.44325977  0.72376944  1
  O  O283  1  0.12178489  0.36562646  0.37267315  1
  O  O284  1  0.11830767  0.36998593  0.86993059  1
  O  O285  1  0.11596434  0.87397116  0.36566848  1
  O  O286  1  0.13727852  0.84000586  0.91126636  1
  O  O287  1  0.62141405  0.36524173  0.36327711  1
  O  O288  1  0.60975735  0.36498091  0.87318045  1
  O  O289  1  0.62298551  0.87086127  0.36706558  1
  O  O290  1  0.61811924  0.86621397  0.87107575  1
  O  O291  1  0.37102779  0.13529777  0.13029382  1
  O  O292  1  0.38239031  0.14288839  0.63455498  1
  O  O293  1  0.37328220  0.62962324  0.13717292  1
  O  O294  1  0.38221840  0.63722460  0.61856364  1
  O  O295  1  0.86993858  0.14018142  0.12906501  1
  O  O296  1  0.88656362  0.13577155  0.63391789  1
  O  O297  1  0.88381753  0.63435218  0.13133684  1
  O  O298  1  0.89112704  0.62502535  0.62203824  1
  O  O299  1  0.25370129  0.24803933  0.11480336  1
  O  O300  1  0.24936881  0.26746371  0.62614889  1
  O  O301  1  0.24831986  0.76144323  0.10199123  1
  O  O302  1  0.25563278  0.75106220  0.62529375  1
  O  O303  1  0.75688661  0.25694638  0.11963500  1
  O  O304  1  0.76127731  0.26274052  0.62184629  1
  O  O305  1  0.75520875  0.76305130  0.12004408  1
  O  O306  1  0.74157824  0.74894164  0.60435416  1
  O  O307  1  0.24525159  0.23880085  0.38087425  1
  O  O308  1  0.23864674  0.25361928  0.88359157  1
  O  O309  1  0.25534336  0.73678103  0.38361374  1
  O  O310  1  0.25855917  0.73610978  0.88613858  1
  O  O311  1  0.74225878  0.24824132  0.37412390  1
  O  O312  1  0.73649903  0.24460184  0.88496598  1
  O  O313  1  0.74359136  0.74821917  0.38009715  1
  O  O314  1  0.73902818  0.75680789  0.88901170  1
  O  O315  1  0.01299535  0.12428857  -0.00040311  1
  O  O316  1  0.02211417  0.14202500  0.52013073  1
  O  O317  1  0.00946074  0.60679640  0.00728263  1
  O  O318  1  0.00717749  0.61989011  0.50472613  1
  O  O319  1  0.50588978  0.11762315  0.00318324  1
  O  O320  1  0.50939893  0.11913677  0.49751946  1
  O  O321  1  0.50577922  0.61658799  0.00741666  1
  O  O322  1  0.49899657  0.61849328  0.50411107  1
  O  O323  1  0.49616086  0.38518478  0.48952701  1
  O  O324  1  0.49385212  0.38055253  0.99990340  1
  O  O325  1  0.49220810  0.88494250  0.49674281  1
  O  O326  1  0.49610273  0.88316636  0.99828509  1
  O  O327  1  0.99519591  0.38314471  0.49775508  1
  O  O328  1  1.00154661  0.38852178  0.99444119  1
  O  O329  1  1.00586594  0.87488637  0.49711468  1
  O  O330  1  0.98036361  0.88430920  0.99664028  1
  O  O331  1  0.49104308  0.49665003  0.37726115  1
  O  O332  1  0.50601762  0.48476666  0.89228984  1
  O  O333  1  0.48601262  1.00294447  0.38051380  1
  O  O334  1  0.49147201  0.99483405  0.88784982  1
  O  O335  1  0.99461164  0.50243041  0.38500683  1
  O  O336  1  1.00187930  0.49110826  0.89090338  1
  O  O337  1  0.99731211  0.97471918  0.37072043  1
  O  O338  1  1.00046987  1.01219102  0.89217415  1
  O  O339  1  0.00461874  -0.00127200  0.10852136  1
  O  O340  1  0.01911268  0.01586383  0.62754965  1
  O  O341  1  0.00055387  0.50357640  0.11373198  1
  O  O342  1  0.00042747  0.50736708  0.61316359  1
  O  O343  1  0.50006061  0.00155660  0.11526957  1
  O  O344  1  0.49194980  -0.00220760  0.61441375  1
  O  O345  1  0.49821887  0.50064035  0.11803664  1
  O  O346  1  0.50114226  0.50686828  0.61336173  1
  O  O347  1  0.23745067  0.38747081  0.26060360  1
  O  O348  1  0.24675915  0.38102825  0.74810006  1
  O  O349  1  0.25435379  0.87190454  0.23486318  1
  O  O350  1  0.26195601  0.87481127  0.74681939  1
  O  O351  1  0.74215456  0.38396940  0.24404930  1
  O  O352  1  0.71967857  0.35437030  0.74294847  1
  O  O353  1  0.74417959  0.88236951  0.24658165  1
  O  O354  1  0.73164227  0.88480970  0.74773937  1
  O  O355  1  0.24779695  0.12153640  0.26135755  1
  O  O356  1  0.27374847  0.13105437  0.75688477  1
  O  O357  1  0.25284161  0.62268890  0.25544363  1
  O  O358  1  0.24860647  0.61511721  0.76917812  1
  O  O359  1  0.73919533  0.11305250  0.25839576  1
  O  O360  1  0.75726443  0.13039609  0.75913492  1
  O  O361  1  0.75562329  0.62117347  0.25102258  1
  O  O362  1  0.70823586  0.58702352  0.73215139  1
  O  O363  1  0.36787768  0.12267211  0.37107740  1
  O  O364  1  0.37370436  0.11177151  0.87722405  1
  O  O365  1  0.36765441  0.62101470  0.36484254  1
  O  O366  1  0.36564645  0.62099570  0.88592026  1
  O  O367  1  0.86524557  0.14596980  0.35615651  1
  O  O368  1  0.86345664  0.13901338  0.86800775  1
  O  O369  1  0.87208931  0.62353006  0.36371435  1
  O  O370  1  0.86611385  0.59395943  0.85290066  1
  O  O371  1  0.12428664  0.37362175  0.14122589  1
  O  O372  1  0.13240614  0.37791031  0.63507348  1
  O  O373  1  0.13962224  0.87444815  0.12978561  1
  O  O374  1  0.13520656  0.88836483  0.62563958  1
  O  O375  1  0.63305642  0.36738652  0.13718044  1
  O  O376  1  0.64686225  0.39559027  0.62651324  1
  O  O377  1  0.63331844  0.87662988  0.13591467  1
  O  O378  1  0.62230006  0.87199129  0.63721702  1
  O  O379  1  0.13527670  0.26664780  0.26446120  1
  O  O380  1  0.12406085  0.26062231  0.75934415  1
  O  O381  1  0.13704739  0.76522945  0.24785920  1
  O  O382  1  0.14483645  0.76630873  0.73518523  1
  O  O383  1  0.61947558  0.25632390  0.25355923  1
  O  O384  1  0.61600206  0.24809737  0.76411927  1
  O  O385  1  0.61996885  0.76074144  0.25828694  1
  O  O386  1  0.62485739  0.75704146  0.75899176  1
  O  O387  1  0.37512604  0.24714155  0.24387787  1
  O  O388  1  0.38114054  0.24766928  0.74845875  1
  O  O389  1  0.38133871  0.74369965  0.25063193  1
  O  O390  1  0.39211578  0.75175025  0.74248550  1
  O  O391  1  0.87832428  0.25638966  0.23529597  1
  O  O392  1  0.87839711  0.24627111  0.74183456  1
  O  O393  1  0.86818172  0.73960766  0.23802182  1
  O  O394  1  0.83409583  0.73158927  0.74301266  1
  O  O395  1  0.38371038  0.49176950  0.49571913  1
  O  O396  1  0.38085269  0.48699014  1.00956525  1
  O  O397  1  0.38071130  0.99967301  0.49543263  1
  O  O398  1  0.38062960  0.99166024  0.99519595  1
  O  O399  1  0.88303119  0.49572677  0.49036100  1
  O  O400  1  0.88227899  0.50072988  1.00601181  1
  O  O401  1  0.88691883  1.05151131  0.48597500  1
  O  O402  1  0.87830573  0.99438517  1.00444712  1
  O  O403  1  0.11850605  0.01238349  -0.00148127  1
  O  O404  1  0.13443693  0.01347746  0.51022144  1
  O  O405  1  0.12570913  0.50414096  0.00473899  1
  O  O406  1  0.11756984  0.50601113  0.50039465  1
  O  O407  1  0.61585062  0.00752331  0.00167931  1
  O  O408  1  0.61390663  0.01421518  0.49214778  1
  O  O409  1  0.61574834  0.51088159  0.00337530  1
  O  O410  1  0.61143558  0.50099505  0.48503842  1
  O  O411  1  0.37495305  0.36139411  0.11968300  1
  O  O412  1  0.37150907  0.37502337  0.61847203  1
  O  O413  1  0.36602809  0.87234293  0.11747222  1
  O  O414  1  0.37846321  0.85893241  0.61806415  1
  O  O415  1  0.86232244  0.36886569  0.12916426  1
  O  O416  1  0.87573186  0.36274281  0.61100012  1
  O  O417  1  0.86724921  0.87010293  0.12054325  1
  O  O418  1  0.86955035  0.86921118  0.62418256  1
  O  O419  1  0.13344146  0.12795289  0.38841954  1
  O  O420  1  0.12856622  0.13652764  0.88464115  1
  O  O421  1  0.13083030  0.62195442  0.38653011  1
  O  O422  1  0.13157458  0.61902491  0.88713423  1
  O  O423  1  0.62922405  0.13893640  0.37631407  1
  O  O424  1  0.62658057  0.13089483  0.88626613  1
  O  O425  1  0.63209951  0.63652833  0.37111061  1
  O  O426  1  0.61667687  0.64134759  0.89171070  1
