# generated using pymatgen
data_V85Zn86O256
_symmetry_space_group_name_H-M   'P 1'
_cell_length_a   16.95401715
_cell_length_b   16.97114288
_cell_length_c   16.95426966
_cell_angle_alpha   90.12874991
_cell_angle_beta   90.02788147
_cell_angle_gamma   89.99246507
_symmetry_Int_Tables_number   1
_chemical_formula_structural   V85Zn86O256
_chemical_formula_sum   'V85 Zn86 O256'
_cell_volume   4878.22292446
_cell_formula_units_Z   1
loop_
 _symmetry_equiv_pos_site_id
 _symmetry_equiv_pos_as_xyz
  1  'x, y, z'
loop_
 _atom_site_type_symbol
 _atom_site_label
 _atom_site_symmetry_multiplicity
 _atom_site_fract_x
 _atom_site_fract_y
 _atom_site_fract_z
 _atom_site_occupancy
  V  V0  1  0.12041340  0.87688307  0.75242651  1
  V  V1  1  0.50325261  0.24948370  0.74799351  1
  V  V2  1  0.75403800  0.24874695  0.00033176  1
  V  V3  1  0.61837867  0.62259006  -0.00641792  1
  V  V4  1  0.50006882  0.24990552  0.25254897  1
  V  V5  1  0.62677892  0.37519354  0.25098484  1
  V  V6  1  0.75166188  0.00079244  0.24884819  1
  V  V7  1  0.12202569  0.24548811  0.87102697  1
  V  V8  1  0.23617803  0.63224185  0.36755520  1
  V  V9  1  0.87765946  0.24327087  0.62312377  1
  V  V10  1  0.13447366  0.50251177  0.12953443  1
  V  V11  1  0.37422204  0.89338881  0.50018520  1
  V  V12  1  0.49964391  0.38714066  0.37853351  1
  V  V13  1  0.13249167  0.24880235  0.37814613  1
  V  V14  1  0.62287676  0.11094994  0.50109748  1
  V  V15  1  0.36222779  0.50046569  0.37515157  1
  V  V16  1  0.75098089  0.87366361  0.12360985  1
  V  V17  1  0.12005331  0.63259220  0.52048988  1
  V  V18  1  0.63045308  0.38380382  0.75206393  1
  V  V19  1  0.51685580  0.74680442  0.75219721  1
  V  V20  1  0.50120826  -0.00177064  -0.00064611  1
  V  V21  1  0.75313097  0.12162681  0.87329588  1
  V  V22  1  0.87731464  0.75217597  0.12537298  1
  V  V23  1  0.88364113  -0.00690223  0.37723161  1
  V  V24  1  0.00165737  0.49637887  0.00417937  1
  V  V25  1  0.00030559  -0.00160740  -0.00213370  1
  V  V26  1  0.00501712  0.24962131  0.24283847  1
  V  V27  1  0.00365270  0.37510654  0.37457960  1
  V  V28  1  0.50253569  0.38147526  0.88379664  1
  V  V29  1  0.85765570  0.83193621  0.54573619  1
  V  V30  1  0.62454577  0.87441120  0.25068604  1
  V  V31  1  0.11420905  0.12448395  0.50503117  1
  V  V32  1  0.37552241  0.11796298  0.74897881  1
  V  V33  1  0.75091352  0.12612148  0.37402767  1
  V  V34  1  0.04984424  0.42245397  0.82382006  1
  V  V35  1  0.75156799  0.50238841  0.24928674  1
  V  V36  1  0.88265551  0.12611991  0.24358649  1
  V  V37  1  0.49316170  0.88596131  0.37773486  1
  V  V38  1  0.62408571  0.25156425  0.37784829  1
  V  V39  1  0.51564343  0.87041085  0.87175491  1
  V  V40  1  0.87638038  0.50185277  0.37613283  1
  V  V41  1  0.62538054  0.62383968  0.49755308  1
  V  V42  1  0.13791837  0.38052822  0.25468978  1
  V  V43  1  -0.00028060  0.24483442  0.75085574  1
  V  V44  1  0.50004254  0.12443030  0.12591487  1
  V  V45  1  0.11495742  0.00344669  0.62627468  1
  V  V46  1  0.50171529  0.11916651  0.61926691  1
  V  V47  1  0.37500296  0.75897060  0.62819149  1
  V  V48  1  0.25210202  0.12292642  0.87807192  1
  V  V49  1  0.88006223  0.87294670  -0.01121142  1
  V  V50  1  -0.00576106  0.74988000  0.73358373  1
  V  V51  1  0.37293939  0.25221478  0.12412801  1
  V  V52  1  0.12371762  0.62578775  0.00262327  1
  V  V53  1  0.38346924  0.50990240  0.88513655  1
  V  V54  1  0.24963339  0.75365624  -0.00028487  1
  V  V55  1  0.62726895  0.25037559  0.87427108  1
  V  V56  1  0.11186286  0.75742324  0.87976898  1
  V  V57  1  0.74466128  0.75030192  -0.01254210  1
  V  V58  1  0.24812625  0.87704616  0.13162573  1
  V  V59  1  0.62965296  0.74937192  0.37566170  1
  V  V60  1  0.50048473  0.62122878  0.62481260  1
  V  V61  1  -0.00173623  0.62662912  0.12679095  1
  V  V62  1  0.87043782  0.62501020  0.73776264  1
  V  V63  1  0.87763588  0.37588872  -0.00615856  1
  V  V64  1  0.37637691  0.87548526  -0.00323598  1
  V  V65  1  0.25514646  0.62613965  0.87589909  1
  V  V66  1  0.86289173  0.50251704  0.87127804  1
  V  V67  1  0.11971730  0.12624067  0.00827622  1
  V  V68  1  0.87710836  0.63060999  0.25071233  1
  V  V69  1  0.75029705  0.37854724  0.62822376  1
  V  V70  1  0.37407643  0.61935463  0.25038279  1
  V  V71  1  0.31846849  0.56962588  0.70291386  1
  V  V72  1  0.49858356  0.74776166  0.24881338  1
  V  V73  1  0.37512871  0.37685198  0.50865273  1
  V  V74  1  0.75474103  0.37423571  0.12462248  1
  V  V75  1  0.87633429  0.37487072  0.49869535  1
  V  V76  1  0.74887812  0.24947817  0.50034900  1
  V  V77  1  0.12141790  0.00037671  0.13288361  1
  V  V78  1  0.62318727  0.49851083  0.61800089  1
  V  V79  1  0.62673056  0.12384055  0.00130664  1
  V  V80  1  0.73706637  -0.00623586  0.74219361  1
  V  V81  1  0.37092086  0.11752971  0.25799965  1
  V  V82  1  0.00301226  0.50681933  0.51258289  1
  V  V83  1  0.06020565  0.81535050  0.31369951  1
  V  V84  1  0.87743798  0.12034834  0.74636336  1
  Zn  Zn85  1  0.88029303  -0.00534103  0.86978500  1
  Zn  Zn86  1  0.49876003  0.61475167  0.12195801  1
  Zn  Zn87  1  -0.00853799  -0.01326024  0.50380619  1
  Zn  Zn88  1  0.25040024  0.25332453  0.00002442  1
  Zn  Zn89  1  0.24420489  0.87834301  0.62233767  1
  Zn  Zn90  1  0.24844369  0.75400726  0.49848858  1
  Zn  Zn91  1  0.75490531  0.63342207  0.38211153  1
  Zn  Zn92  1  0.70998039  0.87595887  0.62307002  1
  Zn  Zn93  1  0.88444743  0.24561151  0.11954342  1
  Zn  Zn94  1  0.37829241  0.38008678  0.00372449  1
  Zn  Zn95  1  0.62509842  -0.00108620  0.12530906  1
  Zn  Zn96  1  0.24563993  0.25301868  0.51636458  1
  Zn  Zn97  1  0.74355739  0.62984758  0.86470094  1
  Zn  Zn98  1  0.62285802  0.49974295  0.11864895  1
  Zn  Zn99  1  0.37582783  0.74776358  0.12501508  1
  Zn  Zn100  1  0.25557057  0.11402552  0.39030023  1
  Zn  Zn101  1  0.20763796  0.37179837  0.67840597  1
  Zn  Zn102  1  0.36766976  0.25377077  0.63001300  1
  Zn  Zn103  1  0.25194578  0.37992405  0.11710260  1
  Zn  Zn104  1  0.24812328  -0.00706983  0.25933915  1
  Zn  Zn105  1  0.37575145  -0.00274608  0.87422076  1
  Zn  Zn106  1  0.24735091  -0.00246160  0.75034957  1
  Zn  Zn107  1  0.19060267  0.18931861  0.18822796  1
  Zn  Zn108  1  0.18870945  0.18418715  0.68693200  1
  Zn  Zn109  1  0.18562172  0.69336020  0.19146815  1
  Zn  Zn110  1  0.18472790  0.70142257  0.68576571  1
  Zn  Zn111  1  0.68981091  0.18863328  0.18672859  1
  Zn  Zn112  1  0.68748582  0.18597486  0.68607167  1
  Zn  Zn113  1  0.68812051  0.68691623  0.18222542  1
  Zn  Zn114  1  0.69922755  0.69649022  0.67182301  1
  Zn  Zn115  1  0.31411409  0.30997245  0.31529846  1
  Zn  Zn116  1  0.32019729  0.30752330  0.81316242  1
  Zn  Zn117  1  0.31445309  0.80946349  0.31498076  1
  Zn  Zn118  1  0.31358971  0.81172046  0.80913389  1
  Zn  Zn119  1  0.81625334  0.31095858  0.31130309  1
  Zn  Zn120  1  0.81532208  0.31229645  0.81249554  1
  Zn  Zn121  1  0.81520269  0.81293571  0.31242910  1
  Zn  Zn122  1  0.81202607  0.81385524  0.80008644  1
  Zn  Zn123  1  0.17407111  0.42784031  0.49402538  1
  Zn  Zn124  1  0.22040966  0.41460599  0.89320970  1
  Zn  Zn125  1  0.18400936  0.93672049  0.43571302  1
  Zn  Zn126  1  0.18598406  0.93936724  0.93879806  1
  Zn  Zn127  1  0.68952420  0.43967250  0.43864962  1
  Zn  Zn128  1  0.68833425  0.44017930  0.93868446  1
  Zn  Zn129  1  0.69770316  0.93073979  0.43650899  1
  Zn  Zn130  1  0.69200805  0.93947913  0.93697528  1
  Zn  Zn131  1  0.31144722  0.06263110  0.06492204  1
  Zn  Zn132  1  0.30388188  0.06501675  0.56877917  1
  Zn  Zn133  1  0.31466951  0.56547544  0.06132147  1
  Zn  Zn134  1  0.31109592  0.56335080  0.53991943  1
  Zn  Zn135  1  0.81664448  0.06031514  0.06314349  1
  Zn  Zn136  1  0.80733209  0.05819912  0.56205912  1
  Zn  Zn137  1  0.80812322  0.56519153  0.05933746  1
  Zn  Zn138  1  0.80982327  0.56365456  0.56114930  1
  Zn  Zn139  1  0.43840879  0.43835201  0.18909595  1
  Zn  Zn140  1  0.44553242  0.43558995  0.69187613  1
  Zn  Zn141  1  0.43722161  0.93596308  0.18509149  1
  Zn  Zn142  1  0.49646384  0.91401904  0.66099161  1
  Zn  Zn143  1  0.94060029  0.43593941  0.18778803  1
  Zn  Zn144  1  0.92950976  0.44042396  0.68527406  1
  Zn  Zn145  1  0.94099595  0.93741611  0.18566898  1
  Zn  Zn146  1  0.94029691  0.93570312  0.69072708  1
  Zn  Zn147  1  0.06431837  0.06387882  0.31673543  1
  Zn  Zn148  1  0.05982778  0.06213802  0.81567691  1
  Zn  Zn149  1  0.05848209  0.56220412  0.31262181  1
  Zn  Zn150  1  0.06360663  0.58489078  0.81071353  1
  Zn  Zn151  1  0.56437802  0.06335414  0.31253526  1
  Zn  Zn152  1  0.55953953  0.06207848  0.81521988  1
  Zn  Zn153  1  0.56226349  0.56249690  0.30803823  1
  Zn  Zn154  1  0.56406635  0.56575169  0.80947834  1
  Zn  Zn155  1  0.43671700  0.19399894  0.44054471  1
  Zn  Zn156  1  0.43962967  0.18855105  0.93721171  1
  Zn  Zn157  1  0.43876213  0.68971562  0.43932977  1
  Zn  Zn158  1  0.43940939  0.69223051  0.93533385  1
  Zn  Zn159  1  0.94006175  0.18544710  0.43114517  1
  Zn  Zn160  1  0.94030896  0.18440691  0.93572295  1
  Zn  Zn161  1  0.94454535  0.69306405  0.43749020  1
  Zn  Zn162  1  0.93144504  0.68343916  0.93754546  1
  Zn  Zn163  1  0.06834749  0.31713196  0.06161174  1
  Zn  Zn164  1  0.06038839  0.31316771  0.56660553  1
  Zn  Zn165  1  0.06067026  0.81643781  0.07033117  1
  Zn  Zn166  1  0.05436447  0.81955071  0.55303679  1
  Zn  Zn167  1  0.56585120  0.31148456  0.06537923  1
  Zn  Zn168  1  0.55989357  0.31060947  0.56122819  1
  Zn  Zn169  1  0.56423247  0.80858465  0.06303543  1
  Zn  Zn170  1  0.56037270  0.80420536  0.55401659  1
  O  O171  1  0.13266232  0.12012790  0.11336797  1
  O  O172  1  0.12402713  0.11641297  0.61971895  1
  O  O173  1  0.11955150  0.62158981  0.12363445  1
  O  O174  1  0.12967448  0.62336575  0.61843459  1
  O  O175  1  0.61838625  0.12540606  0.11952331  1
  O  O176  1  0.61242775  0.13200134  0.61572498  1
  O  O177  1  0.62580782  0.62322507  0.11109202  1
  O  O178  1  0.62075868  0.61686063  0.61951591  1
  O  O179  1  0.38218237  0.38249450  0.37697850  1
  O  O180  1  0.38912253  0.38530795  0.87676419  1
  O  O181  1  0.38595342  0.87216888  0.38262552  1
  O  O182  1  0.37823504  0.87445533  0.88622737  1
  O  O183  1  0.88084398  0.38165789  0.37958521  1
  O  O184  1  0.87139781  0.38456143  0.88270449  1
  O  O185  1  0.87019552  0.89482409  0.36805978  1
  O  O186  1  0.86958023  0.87530025  0.88612633  1
  O  O187  1  0.24393849  0.00330146  0.37056083  1
  O  O188  1  0.25074703  0.01156174  0.87334395  1
  O  O189  1  0.26136696  0.51579081  0.37931252  1
  O  O190  1  0.26269055  0.52064350  0.87863170  1
  O  O191  1  0.75719916  0.00607101  0.36265741  1
  O  O192  1  0.75313999  0.01170807  0.86848534  1
  O  O193  1  0.76297007  0.49909131  0.36838076  1
  O  O194  1  0.76041107  0.50254117  0.87342700  1
  O  O195  1  0.23747018  0.50247743  0.12045139  1
  O  O196  1  0.26659289  0.51233629  0.63985868  1
  O  O197  1  0.24284437  0.99259486  0.12777126  1
  O  O198  1  0.23396094  0.99680332  0.63207007  1
  O  O199  1  0.75018118  0.49217174  0.13280149  1
  O  O200  1  0.74368561  0.48472999  0.62104306  1
  O  O201  1  0.75139165  0.99514312  0.13603574  1
  O  O202  1  0.74840335  0.99667988  0.63813159  1
  O  O203  1  0.00758722  0.36923203  0.25722370  1
  O  O204  1  -0.00702953  0.36865226  0.75579197  1
  O  O205  1  0.00711336  0.87807316  0.25280486  1
  O  O206  1  0.00835797  0.86103394  0.75388519  1
  O  O207  1  0.50717636  0.36761645  0.25902571  1
  O  O208  1  0.51075206  0.36700932  0.75984236  1
  O  O209  1  0.50205806  0.86898170  0.25815327  1
  O  O210  1  0.49799187  0.85849784  0.76068011  1
  O  O211  1  0.49332546  0.13076274  0.24656505  1
  O  O212  1  0.49741142  0.13228738  0.74366097  1
  O  O213  1  0.49250335  0.63347766  0.25056239  1
  O  O214  1  0.50225833  0.63578087  0.73949839  1
  O  O215  1  0.99352808  0.13627686  0.25520811  1
  O  O216  1  0.98573250  0.13005298  0.75269371  1
  O  O217  1  0.98343228  0.61662487  0.24210524  1
  O  O218  1  0.98947084  0.64109930  0.75102086  1
  O  O219  1  0.37973490  0.24867322  0.01549171  1
  O  O220  1  0.37205340  0.26292029  0.50609565  1
  O  O221  1  0.36672416  0.75720477  0.00159315  1
  O  O222  1  0.37565122  0.75004471  0.51504687  1
  O  O223  1  0.87258270  0.25607782  -0.00050528  1
  O  O224  1  0.87267387  0.25292487  0.50635249  1
  O  O225  1  0.86828666  0.75620057  0.00549307  1
  O  O226  1  0.86914058  0.73835603  0.50874548  1
  O  O227  1  0.12330221  0.24463746  0.49329691  1
  O  O228  1  0.12128952  0.24207701  0.99012351  1
  O  O229  1  0.12403219  0.73696558  0.50794099  1
  O  O230  1  0.13032333  0.74790008  0.99682111  1
  O  O231  1  0.63097211  0.24646479  0.49356882  1
  O  O232  1  0.63432041  0.24432244  0.99434656  1
  O  O233  1  0.61996905  0.73685912  0.48666198  1
  O  O234  1  0.63601485  0.74041986  1.00366502  1
  O  O235  1  0.49641510  0.24505551  0.13354385  1
  O  O236  1  0.49995934  0.24678920  0.63888927  1
  O  O237  1  0.49833957  0.75086081  0.13950060  1
  O  O238  1  0.49429586  0.74037063  0.63429900  1
  O  O239  1  1.00316862  0.25750801  0.13845159  1
  O  O240  1  0.98998390  0.25640841  0.63920673  1
  O  O241  1  0.98539537  0.74307560  0.11858486  1
  O  O242  1  1.00324455  0.74942011  0.63645314  1
  O  O243  1  0.00984138  0.25649981  0.36577319  1
  O  O244  1  0.00541374  0.24642619  0.86196551  1
  O  O245  1  -0.00538598  0.74959477  0.35678260  1
  O  O246  1  0.01095840  0.74439162  0.87943041  1
  O  O247  1  0.50550624  0.25846923  0.36885342  1
  O  O248  1  0.50802403  0.25549030  0.86627454  1
  O  O249  1  0.50827947  0.75668222  0.36415997  1
  O  O250  1  0.49923093  0.75434910  0.85989162  1
  O  O251  1  0.23673508  0.13351404  0.50476378  1
  O  O252  1  0.24282590  0.12729575  0.99361013  1
  O  O253  1  0.23310837  0.62794519  0.48848538  1
  O  O254  1  0.24590392  0.63609757  0.99491278  1
  O  O255  1  0.74175614  0.13175301  0.49551818  1
  O  O256  1  0.74916417  0.12767591  0.99244624  1
  O  O257  1  0.73164846  0.61499862  0.49683512  1
  O  O258  1  0.74327492  0.63596063  0.99504180  1
  O  O259  1  0.25854816  0.37095723  -0.00553477  1
  O  O260  1  0.27116351  0.37164989  0.48976007  1
  O  O261  1  0.25723288  0.87051852  0.00447433  1
  O  O262  1  0.26253546  0.87263946  0.50132248  1
  O  O263  1  0.75570404  0.37037685  0.00675126  1
  O  O264  1  0.75670384  0.36864060  0.50577242  1
  O  O265  1  0.75633137  0.86965055  0.00590935  1
  O  O266  1  0.77532957  0.88604017  0.50707088  1
  O  O267  1  0.11784649  0.49137492  0.24169680  1
  O  O268  1  0.10612561  0.48438938  0.77022007  1
  O  O269  1  0.12627031  1.01119339  0.23559224  1
  O  O270  1  0.11982340  0.99174072  0.74697252  1
  O  O271  1  0.64158323  0.49362450  0.25537321  1
  O  O272  1  0.62454376  0.48822052  0.74100834  1
  O  O273  1  0.63554852  0.99449495  0.24923448  1
  O  O274  1  0.63968949  1.01209566  0.75172307  1
  O  O275  1  0.37671165  0.01599882  0.24489202  1
  O  O276  1  0.37550253  0.01503289  0.75371566  1
  O  O277  1  0.37647597  0.51219348  0.25856624  1
  O  O278  1  0.37791752  0.50636181  0.75830602  1
  O  O279  1  0.87173892  0.00829617  0.25526466  1
  O  O280  1  0.86769961  0.00760515  0.75113827  1
  O  O281  1  0.86730177  0.50358655  0.25522645  1
  O  O282  1  0.88291294  0.51484375  0.75900435  1
  O  O283  1  0.12017075  0.36937674  0.37215022  1
  O  O284  1  0.11171446  0.36476247  0.88415270  1
  O  O285  1  0.10774607  0.86638778  0.38985335  1
  O  O286  1  0.12901500  0.86614305  0.86951723  1
  O  O287  1  0.61915277  0.37286712  0.37147036  1
  O  O288  1  0.62450439  0.37202976  0.86816077  1
  O  O289  1  0.61834238  0.86840196  0.37153928  1
  O  O290  1  0.61420449  0.87527082  0.88324749  1
  O  O291  1  0.38195391  0.13183941  0.13336166  1
  O  O292  1  0.38353721  0.13196905  0.63201376  1
  O  O293  1  0.37676001  0.62755589  0.13498272  1
  O  O294  1  0.37646122  0.62395310  0.62983341  1
  O  O295  1  0.87157451  0.12740905  0.13875036  1
  O  O296  1  0.86672663  0.13664740  0.63076690  1
  O  O297  1  0.87614975  0.63209832  0.13012580  1
  O  O298  1  0.87366845  0.61666295  0.63899983  1
  O  O299  1  0.25975518  0.25400068  0.12221652  1
  O  O300  1  0.25062981  0.26405171  0.63555650  1
  O  O301  1  0.24906914  0.75746717  0.11278816  1
  O  O302  1  0.25968404  0.75889830  0.62231820  1
  O  O303  1  0.75550686  0.25773005  0.11838535  1
  O  O304  1  0.75606181  0.25833907  0.61997705  1
  O  O305  1  0.76022176  0.75496086  0.11608249  1
  O  O306  1  0.75131306  0.77203598  0.61265143  1
  O  O307  1  0.23778941  0.24670467  0.37515549  1
  O  O308  1  0.24083542  0.23676818  0.87738469  1
  O  O309  1  0.25678777  0.73442764  0.38018977  1
  O  O310  1  0.24546767  0.74412334  0.88388570  1
  O  O311  1  0.74580066  0.24564249  0.37930640  1
  O  O312  1  0.74757423  0.23942204  0.87898357  1
  O  O313  1  0.73511718  0.75037930  0.36740823  1
  O  O314  1  0.75534812  0.75268343  0.88511541  1
  O  O315  1  0.00955273  0.11764488  -0.00029127  1
  O  O316  1  0.01130527  0.12619045  0.49780469  1
  O  O317  1  0.00139623  0.61507067  0.00591403  1
  O  O318  1  0.01219520  0.62109052  0.49881478  1
  O  O319  1  0.50646766  0.11973080  0.00488450  1
  O  O320  1  0.50670189  0.13399221  0.51153022  1
  O  O321  1  0.51500397  0.63595446  0.00220833  1
  O  O322  1  0.50840546  0.62792519  0.51519387  1
  O  O323  1  0.48887773  0.36858027  0.48887489  1
  O  O324  1  0.50416440  0.36890998  0.98686660  1
  O  O325  1  0.48950763  0.86998861  0.48311777  1
  O  O326  1  0.49369535  0.87582944  0.99452978  1
  O  O327  1  0.99265244  0.38255220  0.49196082  1
  O  O328  1  0.99379051  0.38875186  1.00758068  1
  O  O329  1  0.95761868  0.87031043  0.51525676  1
  O  O330  1  0.98964648  0.88198679  1.00442681  1
  O  O331  1  0.49384327  0.48950922  0.36852695  1
  O  O332  1  0.49589032  0.49316073  0.86893746  1
  O  O333  1  0.50354249  0.98397889  0.36899757  1
  O  O334  1  0.49832629  0.98995526  0.88104953  1
  O  O335  1  0.98822325  0.49556663  0.37853547  1
  O  O336  1  0.99649871  0.49560130  0.88115088  1
  O  O337  1  0.98683225  1.00413514  0.37725554  1
  O  O338  1  0.99765323  1.00219852  0.89076157  1
  O  O339  1  0.00990251  -0.00267438  0.11293374  1
  O  O340  1  0.00856215  -0.00207966  0.62410118  1
  O  O341  1  0.00491649  0.50625982  0.11937649  1
  O  O342  1  -0.00515342  0.49580184  0.61087641  1
  O  O343  1  0.50272435  0.00656025  0.11858039  1
  O  O344  1  0.49533160  0.02214897  0.62654105  1
  O  O345  1  0.51140467  0.50183438  0.13686699  1
  O  O346  1  0.51080551  0.50895848  0.63249657  1
  O  O347  1  0.23949327  0.37350162  0.25082538  1
  O  O348  1  0.24315808  0.38005306  0.78150501  1
  O  O349  1  0.26351977  0.87450065  0.23481164  1
  O  O350  1  0.23401297  0.87447283  0.74978454  1
  O  O351  1  0.75029886  0.38059624  0.24267735  1
  O  O352  1  0.74169753  0.36715835  0.74075506  1
  O  O353  1  0.74629278  0.88331489  0.24433164  1
  O  O354  1  0.74295185  0.89201261  0.75532297  1
  O  O355  1  0.26633458  0.12585476  0.24955386  1
  O  O356  1  0.25909508  0.12416184  0.75919094  1
  O  O357  1  0.25790629  0.63019256  0.26028826  1
  O  O358  1  0.25089458  0.63004235  0.75567266  1
  O  O359  1  0.75564284  0.11840637  0.25352763  1
  O  O360  1  0.75867861  0.12113560  0.75526042  1
  O  O361  1  0.75885500  0.61648053  0.25052760  1
  O  O362  1  0.76515891  0.63491824  0.74847328  1
  O  O363  1  0.37575827  0.13349791  0.36145577  1
  O  O364  1  0.36785869  0.12526410  0.87051813  1
  O  O365  1  0.37343170  0.61780153  0.37106207  1
  O  O366  1  0.37039552  0.62207214  0.87618946  1
  O  O367  1  0.86778982  0.12290040  0.36154242  1
  O  O368  1  0.86705455  0.12383504  0.86581015  1
  O  O369  1  0.87341548  0.61841738  0.36752436  1
  O  O370  1  0.87083311  0.61637632  0.86752732  1
  O  O371  1  0.12900948  0.38534659  0.13452342  1
  O  O372  1  0.13592065  0.38902275  0.59720023  1
  O  O373  1  0.13710186  0.88771689  0.11692068  1
  O  O374  1  0.12110110  0.88198122  0.63284362  1
  O  O375  1  0.63947651  0.37426652  0.13147622  1
  O  O376  1  0.62940636  0.37951967  0.63016297  1
  O  O377  1  0.63272535  0.87574560  0.13246409  1
  O  O378  1  0.59817699  0.88449961  0.61893349  1
  O  O379  1  0.12152841  0.25672647  0.25637514  1
  O  O380  1  0.11549698  0.24259250  0.76173926  1
  O  O381  1  0.12619498  0.76412196  0.25367284  1
  O  O382  1  0.11213103  0.75442139  0.75916074  1
  O  O383  1  0.62211387  0.25652114  0.25678089  1
  O  O384  1  0.62145918  0.25714432  0.75555323  1
  O  O385  1  0.61893065  0.75492919  0.25335597  1
  O  O386  1  0.61489732  0.74348003  0.74498823  1
  O  O387  1  0.38077969  0.24377483  0.24127746  1
  O  O388  1  0.38794094  0.23955223  0.75251887  1
  O  O389  1  0.38276127  0.73886528  0.25063743  1
  O  O390  1  0.38044267  0.75361701  0.73411893  1
  O  O391  1  0.88644581  0.24409913  0.24796930  1
  O  O392  1  0.87957841  0.24243151  0.74340603  1
  O  O393  1  0.86576808  0.74044140  0.23888210  1
  O  O394  1  0.88784616  0.73971912  0.75652482  1
  O  O395  1  0.37935200  0.48847485  0.48910960  1
  O  O396  1  0.37949999  0.50189799  0.98922296  1
  O  O397  1  0.37145612  0.99209288  0.50658718  1
  O  O398  1  0.38226131  0.99273273  0.99888319  1
  O  O399  1  0.87964069  0.49738691  0.49182238  1
  O  O400  1  0.88083897  0.49790552  0.99121824  1
  O  O401  1  0.87543948  1.01696365  0.48027027  1
  O  O402  1  0.88233572  0.99060867  0.99974510  1
  O  O403  1  0.11912454  0.00816005  0.00605179  1
  O  O404  1  0.11577889  0.00573364  0.50942246  1
  O  O405  1  0.11389373  0.51007788  0.01095106  1
  O  O406  1  0.11280868  0.52082362  0.48814431  1
  O  O407  1  0.62120713  0.00734527  0.00238952  1
  O  O408  1  0.63279000  0.01291912  0.48924135  1
  O  O409  1  0.63262775  0.51739383  0.00066696  1
  O  O410  1  0.62273435  0.50087766  0.51137994  1
  O  O411  1  0.37310915  0.36727812  0.12566349  1
  O  O412  1  0.38448943  0.37838109  0.61242772  1
  O  O413  1  0.36946200  0.87305309  0.11207081  1
  O  O414  1  0.38847381  0.87107012  0.61340866  1
  O  O415  1  0.86642298  0.37501916  0.11738373  1
  O  O416  1  0.86661303  0.36589703  0.62063405  1
  O  O417  1  0.86998459  0.86811156  0.11897621  1
  O  O418  1  0.87048972  0.86009839  0.64361948  1
  O  O419  1  0.12621236  0.13431296  0.38472115  1
  O  O420  1  0.13054991  0.13018424  0.88305473  1
  O  O421  1  0.13613679  0.62661979  0.36607972  1
  O  O422  1  0.13484546  0.63532554  0.88398721  1
  O  O423  1  0.63031475  0.13216612  0.38037454  1
  O  O424  1  0.63262235  0.13089131  0.88078579  1
  O  O425  1  0.62365004  0.63036171  0.38092660  1
  O  O426  1  0.62761085  0.62314438  0.88650502  1
