# generated using pymatgen
data_V85Zn86O256
_symmetry_space_group_name_H-M   'P 1'
_cell_length_a   16.93683903
_cell_length_b   16.92435308
_cell_length_c   16.92633285
_cell_angle_alpha   90.06497147
_cell_angle_beta   90.05342931
_cell_angle_gamma   89.99227383
_symmetry_Int_Tables_number   1
_chemical_formula_structural   V85Zn86O256
_chemical_formula_sum   'V85 Zn86 O256'
_cell_volume   4851.84414986
_cell_formula_units_Z   1
loop_
 _symmetry_equiv_pos_site_id
 _symmetry_equiv_pos_as_xyz
  1  'x, y, z'
loop_
 _atom_site_type_symbol
 _atom_site_label
 _atom_site_symmetry_multiplicity
 _atom_site_fract_x
 _atom_site_fract_y
 _atom_site_fract_z
 _atom_site_occupancy
  V  V0  1  -0.00377603  0.12432428  0.12128684  1
  V  V1  1  0.13394749  0.13355904  0.00055103  1
  V  V2  1  -0.01697360  0.50114044  0.00183883  1
  V  V3  1  0.12300928  -0.00184067  0.12358786  1
  V  V4  1  0.24240833  0.62343051  0.86712080  1
  V  V5  1  0.62540117  0.49681383  0.12859849  1
  V  V6  1  0.37694668  0.12379686  0.25346577  1
  V  V7  1  0.38048274  0.74088982  0.62267352  1
  V  V8  1  0.86736762  0.11422045  0.25047738  1
  V  V9  1  0.62118656  0.00086875  0.62669672  1
  V  V10  1  0.49786095  0.49756668  0.51131438  1
  V  V11  1  0.36098847  0.25344007  0.12439564  1
  V  V12  1  0.25385126  0.37430377  0.62443067  1
  V  V13  1  0.87084316  0.25335818  0.11173266  1
  V  V14  1  0.75200429  0.87491470  0.62881211  1
  V  V15  1  0.75301699  0.37195494  0.11474561  1
  V  V16  1  0.87248216  0.37697975  0.50184601  1
  V  V17  1  0.87255555  0.25517967  0.62517762  1
  V  V18  1  0.00412710  0.25329960  0.75320551  1
  V  V19  1  0.75057671  -0.00202660  0.75317158  1
  V  V20  1  0.12417436  0.62301311  0.49662783  1
  V  V21  1  0.75155608  0.25162057  0.50222045  1
  V  V22  1  0.62688235  0.13187811  -0.00027294  1
  V  V23  1  0.24080135  0.74339333  -0.00757669  1
  V  V24  1  0.11177594  0.75506289  0.37047777  1
  V  V25  1  0.74961433  0.62482126  0.37533637  1
  V  V26  1  0.61489956  0.74990413  0.36880733  1
  V  V27  1  0.62473563  0.87236290  0.75052714  1
  V  V28  1  0.00212387  0.63734314  0.12433841  1
  V  V29  1  0.62556744  0.12483207  0.50092641  1
  V  V30  1  0.87957824  0.64068238  0.24715314  1
  V  V31  1  0.49657803  0.00028682  0.49485242  1
  V  V32  1  0.75258922  0.12964694  0.87923197  1
  V  V33  1  0.37894227  0.00501089  0.86998929  1
  V  V34  1  0.12973598  0.50112075  0.62694118  1
  V  V35  1  0.24973593  0.74971129  0.49509120  1
  V  V36  1  0.63160189  0.62804020  0.00180829  1
  V  V37  1  0.25344546  -0.00373331  0.25046408  1
  V  V38  1  0.87764893  0.62158137  0.76069720  1
  V  V39  1  0.49308187  0.14006609  0.62949121  1
  V  V40  1  0.49819009  0.25936407  0.25193758  1
  V  V41  1  0.24904795  0.11800933  0.37535283  1
  V  V42  1  0.63781236  0.00323951  0.13102032  1
  V  V43  1  0.62024596  0.62526919  0.50920355  1
  V  V44  1  0.37409549  0.62776580  0.25066610  1
  V  V45  1  0.25671806  0.24939650  0.50337343  1
  V  V46  1  0.50128129  0.00142837  0.00227406  1
  V  V47  1  0.50096298  0.87376801  0.87297555  1
  V  V48  1  0.13215618  0.86769974  0.75491823  1
  V  V49  1  0.62675685  0.37459748  0.74295821  1
  V  V50  1  -0.00529478  -0.00219756  0.49502837  1
  V  V51  1  0.49714888  0.49713942  0.00201948  1
  V  V52  1  0.12828373  0.38114512  0.75221774  1
  V  V53  1  -0.00545077  0.24928822  0.25091472  1
  V  V54  1  0.37839930  0.75102003  0.12420369  1
  V  V55  1  0.25012003  0.87225248  0.12259283  1
  V  V56  1  0.74992228  0.74931495  0.50223401  1
  V  V57  1  0.37376582  0.49984297  0.86588877  1
  V  V58  1  0.87552423  0.12653359  0.75048751  1
  V  V59  1  0.37496212  0.87778329  0.49157916  1
  V  V60  1  0.62806242  0.74590588  0.87772408  1
  V  V61  1  0.12557222  0.00010111  0.62631392  1
  V  V62  1  -0.01190565  0.38203938  0.88028100  1
  V  V63  1  0.50034530  0.62958442  0.12865048  1
  V  V64  1  0.12367400  0.24820334  0.37465265  1
  V  V65  1  0.35524134  0.37377782  0.00473521  1
  V  V66  1  0.12397933  0.12419825  0.49935419  1
  V  V67  1  0.75122145  0.11357441  0.37299742  1
  V  V68  1  0.38195254  0.49042206  0.37077531  1
  V  V69  1  0.12955002  0.37634674  0.24740711  1
  V  V70  1  0.25315356  0.87576910  0.62456984  1
  V  V71  1  0.00060555  0.12579518  0.62720569  1
  V  V72  1  0.00103179  0.62470965  0.62564599  1
  V  V73  1  0.49935400  0.36765231  0.87761410  1
  V  V74  1  0.49979307  0.73641341  0.74636665  1
  V  V75  1  0.87693125  0.75074733  0.63202821  1
  V  V76  1  0.25512617  0.00883204  0.75048887  1
  V  V77  1  0.87699289  0.87655699  0.48681977  1
  V  V78  1  0.12802169  0.49912166  0.11614542  1
  V  V79  1  0.62230463  0.25668355  0.37535479  1
  V  V80  1  0.75814926  0.49354558  0.75025132  1
  V  V81  1  0.87749592  0.49939676  0.37180032  1
  V  V82  1  0.00282845  0.87095322  0.87415219  1
  V  V83  1  0.62921663  0.25384548  0.87347798  1
  V  V84  1  0.75099777  0.85490707  0.12408372  1
  Zn  Zn85  1  0.37712288  0.60854035  0.74120044  1
  Zn  Zn86  1  0.38255801  0.16016903  0.75081914  1
  Zn  Zn87  1  -0.00157820  -0.00121360  -0.00391201  1
  Zn  Zn88  1  0.00126876  0.49683610  0.49860356  1
  Zn  Zn89  1  0.00006348  0.37531073  0.37447298  1
  Zn  Zn90  1  0.37453384  0.87387115  -0.00362892  1
  Zn  Zn91  1  0.38320978  0.36684858  0.49701018  1
  Zn  Zn92  1  0.25093888  0.49609305  0.24647840  1
  Zn  Zn93  1  0.10838135  0.86058060  0.24434274  1
  Zn  Zn94  1  0.49986591  0.12785506  0.12616124  1
  Zn  Zn95  1  0.49180927  0.87689386  0.36548921  1
  Zn  Zn96  1  0.12853182  0.26168843  0.88741700  1
  Zn  Zn97  1  0.87008944  0.86766909  0.00741207  1
  Zn  Zn98  1  0.25773230  0.13401865  0.88178512  1
  Zn  Zn99  1  0.62525512  0.50156528  0.62844616  1
  Zn  Zn100  1  0.62033316  0.87779999  0.24881568  1
  Zn  Zn101  1  0.75862161  0.61989340  0.88283605  1
  Zn  Zn102  1  0.01208878  0.74533578  0.75261134  1
  Zn  Zn103  1  0.24862619  0.62158101  0.37068928  1
  Zn  Zn104  1  0.87935798  0.00020742  0.87730253  1
  Zn  Zn105  1  0.75273458  0.49539932  0.25021551  1
  Zn  Zn106  1  0.62603596  0.37616731  0.25345084  1
  Zn  Zn107  1  0.18400509  0.18496258  0.18969857  1
  Zn  Zn108  1  0.18907826  0.19059822  0.68953881  1
  Zn  Zn109  1  0.18755937  0.68415691  0.18569039  1
  Zn  Zn110  1  0.19573923  0.68447256  0.68473566  1
  Zn  Zn111  1  0.68777469  0.19104842  0.18687696  1
  Zn  Zn112  1  0.68508166  0.18867363  0.68865068  1
  Zn  Zn113  1  0.68824827  0.68283093  0.19174433  1
  Zn  Zn114  1  0.69236312  0.68435456  0.69298172  1
  Zn  Zn115  1  0.30945860  0.30947230  0.31280680  1
  Zn  Zn116  1  0.30540314  0.31246200  0.82094092  1
  Zn  Zn117  1  0.30847431  0.80999735  0.30966382  1
  Zn  Zn118  1  0.31656060  0.81218280  0.81176254  1
  Zn  Zn119  1  0.80861658  0.31136189  0.31017708  1
  Zn  Zn120  1  0.81145376  0.31259963  0.81489686  1
  Zn  Zn121  1  0.80095264  0.81615720  0.30812451  1
  Zn  Zn122  1  0.83203936  0.79073312  0.84616855  1
  Zn  Zn123  1  0.19150719  0.43715278  0.43338361  1
  Zn  Zn124  1  0.18221069  0.44675119  0.93521442  1
  Zn  Zn125  1  0.18392252  0.93688403  0.43662106  1
  Zn  Zn126  1  0.18987576  0.94078076  0.93728865  1
  Zn  Zn127  1  0.68847235  0.43877983  0.44087625  1
  Zn  Zn128  1  0.69063616  0.44204745  0.93647719  1
  Zn  Zn129  1  0.68650873  0.93409739  0.44031616  1
  Zn  Zn130  1  0.68805784  0.93777779  0.94102315  1
  Zn  Zn131  1  0.31608336  0.06212017  0.06545062  1
  Zn  Zn132  1  0.31682338  0.06405956  0.56412810  1
  Zn  Zn133  1  0.31074256  0.56342102  0.05855412  1
  Zn  Zn134  1  0.31153063  0.55889309  0.55853678  1
  Zn  Zn135  1  0.81676205  0.05803142  0.05724205  1
  Zn  Zn136  1  0.81272793  0.06296241  0.56390035  1
  Zn  Zn137  1  0.81185670  0.56607341  0.07061490  1
  Zn  Zn138  1  0.81019348  0.56057868  0.56718753  1
  Zn  Zn139  1  0.43628285  0.43547297  0.18620239  1
  Zn  Zn140  1  0.42196836  0.37003860  0.70689352  1
  Zn  Zn141  1  0.44002685  0.93698461  0.18776579  1
  Zn  Zn142  1  0.43881265  0.93403224  0.68351554  1
  Zn  Zn143  1  0.93797802  0.43791523  0.18718708  1
  Zn  Zn144  1  0.94039815  0.43777847  0.68491973  1
  Zn  Zn145  1  0.93164372  0.92850734  0.18546087  1
  Zn  Zn146  1  0.93994591  0.93622448  0.69142736  1
  Zn  Zn147  1  0.03708264  0.02329384  0.29101819  1
  Zn  Zn148  1  0.06687356  0.06110501  0.81474093  1
  Zn  Zn149  1  0.06059832  0.56386486  0.30980856  1
  Zn  Zn150  1  0.06062278  0.55976350  0.81510061  1
  Zn  Zn151  1  0.56268736  0.06748167  0.31360111  1
  Zn  Zn152  1  0.56197244  0.06663751  0.81119238  1
  Zn  Zn153  1  0.55903114  0.56437009  0.31343329  1
  Zn  Zn154  1  0.56349847  0.55611144  0.81420784  1
  Zn  Zn155  1  0.43844772  0.18429007  0.43473325  1
  Zn  Zn156  1  0.43595295  0.19036289  0.94082242  1
  Zn  Zn157  1  0.43744650  0.68170630  0.43806895  1
  Zn  Zn158  1  0.43699089  0.68449634  0.93815724  1
  Zn  Zn159  1  0.93598887  0.18237438  0.43492657  1
  Zn  Zn160  1  0.94266420  0.18874565  0.93556319  1
  Zn  Zn161  1  0.93583517  0.68841909  0.43981642  1
  Zn  Zn162  1  0.94598773  0.69365345  0.94365884  1
  Zn  Zn163  1  0.05792696  0.31732065  0.06475887  1
  Zn  Zn164  1  0.06237064  0.31287391  0.56154444  1
  Zn  Zn165  1  0.06568540  0.81289915  0.05536982  1
  Zn  Zn166  1  0.06192275  0.81410396  0.56254744  1
  Zn  Zn167  1  0.55962055  0.31097245  0.06565675  1
  Zn  Zn168  1  0.56359556  0.31647348  0.55797772  1
  Zn  Zn169  1  0.56417414  0.81547003  0.06289016  1
  Zn  Zn170  1  0.56138069  0.81255428  0.56058800  1
  O  O171  1  0.11661972  0.12044471  0.11782315  1
  O  O172  1  0.12109801  0.12022004  0.62027715  1
  O  O173  1  0.10913543  0.61276032  0.13517948  1
  O  O174  1  0.12348716  0.61941790  0.61862153  1
  O  O175  1  0.62508673  0.11984169  0.11634919  1
  O  O176  1  0.61647886  0.12109826  0.61988482  1
  O  O177  1  0.61776396  0.61907007  0.12145923  1
  O  O178  1  0.62955346  0.62704117  0.61216964  1
  O  O179  1  0.37125425  0.38691777  0.37542961  1
  O  O180  1  0.38289793  0.38089733  0.88815436  1
  O  O181  1  0.37292903  0.86764251  0.38723918  1
  O  O182  1  0.38366695  0.88436126  0.87598730  1
  O  O183  1  0.87450084  0.38360037  0.37965293  1
  O  O184  1  0.88922788  0.37398115  0.87038086  1
  O  O185  1  0.86403405  0.87030352  0.38815403  1
  O  O186  1  0.89972649  0.88443034  0.85026820  1
  O  O187  1  0.24381463  0.00944160  0.36678561  1
  O  O188  1  0.26071812  0.00745631  0.86845172  1
  O  O189  1  0.26482496  0.50352187  0.37290333  1
  O  O190  1  0.25872029  0.51498208  0.88121926  1
  O  O191  1  0.74160891  0.01398608  0.37943414  1
  O  O192  1  0.74924515  0.00564299  0.86458111  1
  O  O193  1  0.75470671  0.51168039  0.37515512  1
  O  O194  1  0.74670000  0.50432748  0.85861579  1
  O  O195  1  0.23204300  0.50808853  0.12448085  1
  O  O196  1  0.23682323  0.49331236  0.61824691  1
  O  O197  1  0.24688226  0.98903193  0.12726389  1
  O  O198  1  0.24896987  0.99547356  0.63215332  1
  O  O199  1  0.74240696  0.49163208  0.12808485  1
  O  O200  1  0.74512961  0.50302564  0.64272690  1
  O  O201  1  0.73759674  1.00451737  0.12424351  1
  O  O202  1  0.74264583  0.99942168  0.63664968  1
  O  O203  1  0.00628997  0.36481570  0.25121055  1
  O  O204  1  0.00743398  0.37105601  0.75531401  1
  O  O205  1  0.01218808  0.91506350  0.25872872  1
  O  O206  1  0.01786380  0.87522616  0.75308964  1
  O  O207  1  0.50338138  0.36345425  0.24863120  1
  O  O208  1  0.51550342  0.38454181  0.76772260  1
  O  O209  1  0.50654210  0.87961622  0.25429278  1
  O  O210  1  0.50731865  0.86788453  0.75443344  1
  O  O211  1  0.49042143  0.13259652  0.24972972  1
  O  O212  1  0.50112399  0.12532050  0.73379909  1
  O  O213  1  0.48929362  0.62136426  0.23714538  1
  O  O214  1  0.49746243  0.63295883  0.75196773  1
  O  O215  1  0.98987052  0.12616883  0.23897658  1
  O  O216  1  0.99873331  0.13373987  0.74773276  1
  O  O217  1  0.98771625  0.62331452  0.23964070  1
  O  O218  1  0.99541525  0.62439531  0.74371401  1
  O  O219  1  0.37831178  0.26107671  0.01159589  1
  O  O220  1  0.36159336  0.24941725  0.49233948  1
  O  O221  1  0.36929264  0.75056260  0.01043527  1
  O  O222  1  0.36922256  0.75281434  0.50411540  1
  O  O223  1  0.88009531  0.24631626  0.01272023  1
  O  O224  1  0.86895799  0.25523023  0.50283435  1
  O  O225  1  0.86387974  0.76669952  -0.04392108  1
  O  O226  1  0.86974808  0.75565451  0.51030901  1
  O  O227  1  0.13183576  0.24331611  0.49488406  1
  O  O228  1  0.11843265  0.23674438  1.00684036  1
  O  O229  1  0.13127138  0.74450213  0.49376441  1
  O  O230  1  0.14234848  0.74834054  0.99853952  1
  O  O231  1  0.63222703  0.24547420  0.49522670  1
  O  O232  1  0.62122123  0.23865700  0.99308528  1
  O  O233  1  0.63058272  0.74293834  0.49413748  1
  O  O234  1  0.61432791  0.73903618  0.99055939  1
  O  O235  1  0.49242902  0.24715396  0.13557445  1
  O  O236  1  0.50185682  0.23912773  0.61792829  1
  O  O237  1  0.49203046  0.74112837  0.11886046  1
  O  O238  1  0.49146414  0.75358013  0.63205858  1
  O  O239  1  0.99260794  0.24347820  0.13192766  1
  O  O240  1  0.99485666  0.24583530  0.63305939  1
  O  O241  1  1.00754954  0.73699583  0.12003739  1
  O  O242  1  0.99414643  0.74443479  0.62952020  1
  O  O243  1  0.00495131  0.24733216  0.36628011  1
  O  O244  1  0.00655046  0.25982540  0.86908948  1
  O  O245  1  0.01323158  0.74828327  0.37963580  1
  O  O246  1  0.01073949  0.76518756  0.86902527  1
  O  O247  1  0.51014623  0.24470213  0.36766277  1
  O  O248  1  0.50915469  0.26194569  0.88247078  1
  O  O249  1  0.51286764  0.75029980  0.38235354  1
  O  O250  1  0.50528928  0.75316581  0.86624622  1
  O  O251  1  0.24735393  0.12793789  0.49420187  1
  O  O252  1  0.23668301  0.12218511  1.00473621  1
  O  O253  1  0.23881600  0.63239821  0.49941100  1
  O  O254  1  0.25511469  0.63671637  0.98788041  1
  O  O255  1  0.74686806  0.13041086  0.49374027  1
  O  O256  1  0.74316630  0.11827432  0.98614645  1
  O  O257  1  0.74446227  0.62882593  0.49346993  1
  O  O258  1  0.73613649  0.61807627  1.00070029  1
  O  O259  1  0.25664155  0.38137750  -0.00373262  1
  O  O260  1  0.24842112  0.36447813  0.50551966  1
  O  O261  1  0.25227898  0.86527056  0.00445963  1
  O  O262  1  0.25566653  0.86931875  0.50334473  1
  O  O263  1  0.74687413  0.38000518  0.01530595  1
  O  O264  1  0.76220349  0.36688358  0.49697006  1
  O  O265  1  0.74544566  0.88013920  0.01968073  1
  O  O266  1  0.75654439  0.86992652  0.51057817  1
  O  O267  1  0.12375752  0.49188116  0.24269908  1
  O  O268  1  0.11945198  0.49304196  0.73911500  1
  O  O269  1  0.14126467  1.01164299  0.23271681  1
  O  O270  1  0.13860772  0.99685041  0.74494875  1
  O  O271  1  0.62379061  0.50158724  0.23884436  1
  O  O272  1  0.63392260  0.49276985  0.74838457  1
  O  O273  1  0.62014147  1.00800862  0.23242269  1
  O  O274  1  0.63033490  0.99510027  0.74619396  1
  O  O275  1  0.36181133  0.00840246  0.24235101  1
  O  O276  1  0.37207493  -0.00416003  0.75984531  1
  O  O277  1  0.37462768  0.50421301  0.25726095  1
  O  O278  1  0.38070930  0.48860037  0.76481673  1
  O  O279  1  0.87066464  0.01633766  0.24159354  1
  O  O280  1  0.86576683  0.00972849  0.74736022  1
  O  O281  1  0.87517854  0.50610737  0.26184134  1
  O  O282  1  0.86683596  0.50497847  0.74424292  1
  O  O283  1  0.12168560  0.36714101  0.36799096  1
  O  O284  1  0.11572473  0.38099431  0.86648591  1
  O  O285  1  0.12945883  0.85764289  0.37503118  1
  O  O286  1  0.11977886  0.88338561  0.86450802  1
  O  O287  1  0.63296707  0.36100634  0.37525803  1
  O  O288  1  0.62122525  0.36882740  0.87423553  1
  O  O289  1  0.62833491  0.85769372  0.37644059  1
  O  O290  1  0.62048012  0.86663506  0.87151072  1
  O  O291  1  0.37545085  0.13241341  0.13620820  1
  O  O292  1  0.38951264  0.12515373  0.62929452  1
  O  O293  1  0.38145108  0.62997538  0.12848918  1
  O  O294  1  0.36793799  0.63600731  0.62498136  1
  O  O295  1  0.87785062  0.13167743  0.13026890  1
  O  O296  1  0.88043679  0.13387812  0.63167107  1
  O  O297  1  0.88357231  0.62655259  0.13877047  1
  O  O298  1  0.88049852  0.63437407  0.62978685  1
  O  O299  1  0.26165847  0.24736513  0.13317402  1
  O  O300  1  0.24282008  0.25974850  0.61423680  1
  O  O301  1  0.25383692  0.75355249  0.11423529  1
  O  O302  1  0.25655854  0.75570218  0.61233887  1
  O  O303  1  0.75544357  0.26236310  0.12537273  1
  O  O304  1  0.75524727  0.24213555  0.61100552  1
  O  O305  1  0.73901504  0.75609097  0.12054369  1
  O  O306  1  0.75819154  0.75340930  0.62297307  1
  O  O307  1  0.24327328  0.23893907  0.38008978  1
  O  O308  1  0.23865269  0.24481939  0.87546820  1
  O  O309  1  0.24635914  0.74516583  0.38621049  1
  O  O310  1  0.26021226  0.74012752  0.88473428  1
  O  O311  1  0.74603988  0.24155295  0.38601707  1
  O  O312  1  0.74324463  0.24160221  0.87504860  1
  O  O313  1  0.74268400  0.73872973  0.38097998  1
  O  O314  1  0.72960617  0.73921561  0.86174523  1
  O  O315  1  0.00645795  0.12338834  0.01034237  1
  O  O316  1  0.00240444  0.12336965  0.51200230  1
  O  O317  1  -0.00522150  0.61730824  0.01454408  1
  O  O318  1  0.01110357  0.62604178  0.50651256  1
  O  O319  1  0.50881783  0.11846194  -0.00015968  1
  O  O320  1  0.50325627  0.11891771  0.50902986  1
  O  O321  1  0.50395857  0.61367381  0.00999854  1
  O  O322  1  0.50940280  0.61202880  0.49497010  1
  O  O323  1  0.49940957  0.39028687  0.49852075  1
  O  O324  1  0.49939573  0.38566223  0.99686047  1
  O  O325  1  0.49177442  0.88228139  0.49650562  1
  O  O326  1  0.49964901  0.88538725  0.99218306  1
  O  O327  1  0.98650230  0.37360361  0.49606833  1
  O  O328  1  1.00049292  0.39005045  0.99479558  1
  O  O329  1  0.98996686  0.88448623  0.50539835  1
  O  O330  1  1.00231151  0.87587656  0.98463977  1
  O  O331  1  0.48645179  0.50302320  0.37907316  1
  O  O332  1  0.49388375  0.49311991  0.88591677  1
  O  O333  1  0.50790710  1.00113299  0.39094168  1
  O  O334  1  0.49707282  0.99749679  0.88130960  1
  O  O335  1  0.99057614  0.50002510  0.37883265  1
  O  O336  1  1.00256713  0.49848260  0.89347508  1
  O  O337  1  0.99917131  1.01876706  0.39788380  1
  O  O338  1  1.00264333  0.99032325  0.87547649  1
  O  O339  1  0.00730997  0.00758381  0.12014743  1
  O  O340  1  0.00610754  0.00737240  0.62221777  1
  O  O341  1  0.00337892  0.50596140  0.11645651  1
  O  O342  1  0.01076951  0.50630450  0.61913131  1
  O  O343  1  0.50423684  0.00386832  0.11147841  1
  O  O344  1  0.50583434  0.00396358  0.61585700  1
  O  O345  1  0.50560362  0.50496354  0.12003523  1
  O  O346  1  0.50116380  0.50122267  0.61016579  1
  O  O347  1  0.23397361  0.37401820  0.25269323  1
  O  O348  1  0.23439801  0.37323175  0.74068911  1
  O  O349  1  0.24615026  0.88151185  0.24076682  1
  O  O350  1  0.24906851  0.88590231  0.74714331  1
  O  O351  1  0.74492799  0.37699605  0.24021061  1
  O  O352  1  0.74415865  0.38513261  0.75476735  1
  O  O353  1  0.73720889  0.87164603  0.23275836  1
  O  O354  1  0.74361880  0.88411477  0.74658480  1
  O  O355  1  0.25538334  0.11977257  0.25792057  1
  O  O356  1  0.25788105  0.11638298  0.74676744  1
  O  O357  1  0.26262859  0.62035301  0.24784454  1
  O  O358  1  0.26030982  0.63033826  0.76261873  1
  O  O359  1  0.76069856  0.13324857  0.25686732  1
  O  O360  1  0.75261265  0.11949850  0.75959187  1
  O  O361  1  0.76245330  0.62123855  0.25687129  1
  O  O362  1  0.76132839  0.61464273  0.75348184  1
  O  O363  1  0.36553984  0.12769661  0.36204976  1
  O  O364  1  0.37849462  0.12060422  0.86743272  1
  O  O365  1  0.37426021  0.61884761  0.36426717  1
  O  O366  1  0.37220915  0.61377858  0.87177624  1
  O  O367  1  0.86698379  0.12782596  0.35973409  1
  O  O368  1  0.86887637  0.12514607  0.86932878  1
  O  O369  1  0.86948298  0.62023214  0.36983473  1
  O  O370  1  0.88051127  0.62555560  0.86332925  1
  O  O371  1  0.11789722  0.39032923  0.13168185  1
  O  O372  1  0.12911301  0.38319238  0.62896579  1
  O  O373  1  0.13251489  0.88060844  0.12509820  1
  O  O374  1  0.13423296  0.88173077  0.63035814  1
  O  O375  1  0.63301048  0.38112640  0.12616625  1
  O  O376  1  0.62157658  0.37307875  0.63998943  1
  O  O377  1  0.63017600  0.88958954  0.12324423  1
  O  O378  1  0.63150249  0.88009937  0.62954098  1
  O  O379  1  0.11304110  0.25373927  0.25221297  1
  O  O380  1  0.11297177  0.25860346  0.74758701  1
  O  O381  1  0.12936222  0.74690115  0.26501593  1
  O  O382  1  0.13424378  0.76451190  0.74244901  1
  O  O383  1  0.61582315  0.24825635  0.25809017  1
  O  O384  1  0.63106265  0.25869745  0.76405334  1
  O  O385  1  0.62445831  0.74301386  0.26705501  1
  O  O386  1  0.61588795  0.75204391  0.75270372  1
  O  O387  1  0.38048344  0.24523128  0.24633881  1
  O  O388  1  0.38059144  0.27281905  0.74907025  1
  O  O389  1  0.36775007  0.74215711  0.23496379  1
  O  O390  1  0.38490804  0.75210018  0.73882005  1
  O  O391  1  0.88415978  0.24412949  0.24384355  1
  O  O392  1  0.88492515  0.24739511  0.74612816  1
  O  O393  1  0.87417278  0.73842898  0.25941493  1
  O  O394  1  0.87749582  0.73944134  0.74564526  1
  O  O395  1  0.38572007  0.50208886  0.48958142  1
  O  O396  1  0.38150893  0.49273050  0.99728324  1
  O  O397  1  0.38307988  0.98974384  0.50451343  1
  O  O398  1  0.38317956  1.00228990  0.98853828  1
  O  O399  1  0.87339273  0.49377599  0.49185662  1
  O  O400  1  0.88414467  0.50254105  1.00551763  1
  O  O401  1  0.88195186  0.98767027  0.51146896  1
  O  O402  1  0.87920298  0.98823658  0.99456968  1
  O  O403  1  0.12612928  0.00895894  0.01147831  1
  O  O404  1  0.11893253  0.00438821  0.50770400  1
  O  O405  1  0.11558824  0.50177501  0.01405933  1
  O  O406  1  0.12440568  0.50837323  0.50244093  1
  O  O407  1  0.61890934  0.01162553  0.00547851  1
  O  O408  1  0.62000821  0.00508269  0.50844911  1
  O  O409  1  0.61708164  0.50566102  0.01110911  1
  O  O410  1  0.61617452  0.50619728  0.50150068  1
  O  O411  1  0.37495056  0.36774949  0.11689639  1
  O  O412  1  0.35718872  0.38666096  0.61536896  1
  O  O413  1  0.36594750  0.86823105  0.12199419  1
  O  O414  1  0.37033555  0.86515548  0.61383549  1
  O  O415  1  0.86208246  0.36862763  0.12973246  1
  O  O416  1  0.87892883  0.36704758  0.61590017  1
  O  O417  1  0.85756333  0.86897535  0.12643864  1
  O  O418  1  0.87128170  0.86277408  0.62788498  1
  O  O419  1  0.13448184  0.13092276  0.38281489  1
  O  O420  1  0.12383851  0.12439263  0.89457895  1
  O  O421  1  0.12618364  0.63235397  0.38142138  1
  O  O422  1  0.14300855  0.62238381  0.86714110  1
  O  O423  1  0.63235587  0.13472672  0.38199831  1
  O  O424  1  0.63106301  0.13373344  0.87901438  1
  O  O425  1  0.63080881  0.63171639  0.38198730  1
  O  O426  1  0.61935465  0.62905197  0.88670860  1
