# generated using pymatgen
data_V85Zn86O256
_symmetry_space_group_name_H-M   'P 1'
_cell_length_a   16.93335618
_cell_length_b   16.92189161
_cell_length_c   16.92807112
_cell_angle_alpha   90.01820531
_cell_angle_beta   90.00351670
_cell_angle_gamma   90.02337500
_symmetry_Int_Tables_number   1
_chemical_formula_structural   V85Zn86O256
_chemical_formula_sum   'V85 Zn86 O256'
_cell_volume   4850.64362526
_cell_formula_units_Z   1
loop_
 _symmetry_equiv_pos_site_id
 _symmetry_equiv_pos_as_xyz
  1  'x, y, z'
loop_
 _atom_site_type_symbol
 _atom_site_label
 _atom_site_symmetry_multiplicity
 _atom_site_fract_x
 _atom_site_fract_y
 _atom_site_fract_z
 _atom_site_occupancy
  V  V0  1  0.75397107  0.11784386  0.87414598  1
  V  V1  1  0.35937438  0.00233921  0.37113009  1
  V  V2  1  0.25209883  0.50220170  0.74657131  1
  V  V3  1  0.62225828  0.00176969  0.12532890  1
  V  V4  1  0.13439238  0.12934780  0.50362681  1
  V  V5  1  0.37570610  0.50046375  0.87246419  1
  V  V6  1  0.49326210  0.50041581  0.49909228  1
  V  V7  1  0.12761305  0.12040008  0.00026620  1
  V  V8  1  0.75477463  0.50942219  0.75434511  1
  V  V9  1  0.14381646  0.00110397  0.63179995  1
  V  V10  1  0.75016695  0.12509304  0.37685060  1
  V  V11  1  -0.00106340  0.00429757  0.51603948  1
  V  V12  1  0.00086711  0.24875899  0.25077526  1
  V  V13  1  0.50684380  -0.00262105  0.48731789  1
  V  V14  1  0.00077734  0.37148475  0.37750334  1
  V  V15  1  0.37431560  0.62555581  0.25666238  1
  V  V16  1  0.12521122  0.62505757  0.01602047  1
  V  V17  1  0.49630976  0.86919810  0.87243854  1
  V  V18  1  0.62853506  0.63196542  0.00144104  1
  V  V19  1  0.87223441  0.49740334  0.37519830  1
  V  V20  1  0.62487206  0.37546898  0.75001068  1
  V  V21  1  0.26360454  0.75467342  0.00555804  1
  V  V22  1  0.25480365  0.50032592  0.25519579  1
  V  V23  1  0.12574566  0.24982172  0.86972184  1
  V  V24  1  0.26210566  0.87629157  0.13116163  1
  V  V25  1  0.25139747  0.11972208  0.86977547  1
  V  V26  1  0.74676170  0.24240646  0.50449275  1
  V  V27  1  0.87264230  0.37188213  0.50079240  1
  V  V28  1  0.50181451  0.23697902  0.24382266  1
  V  V29  1  0.75126913  -0.00231262  0.24907065  1
  V  V30  1  0.88570449  0.24481697  0.63672690  1
  V  V31  1  0.49164339  0.63140000  0.12577816  1
  V  V32  1  0.00418192  0.37884260  0.87364496  1
  V  V33  1  0.37484486  0.11674437  0.74620705  1
  V  V34  1  0.61874899  0.87459642  0.74419876  1
  V  V35  1  -0.00275900  -0.00337463  -0.00609348  1
  V  V36  1  0.89228008  0.74680373  0.12241265  1
  V  V37  1  0.37282742  -0.00575308  0.87597075  1
  V  V38  1  0.12833390  -0.00195697  0.13484972  1
  V  V39  1  0.36802198  0.37293735  0.49492017  1
  V  V40  1  0.74992015  0.37688432  0.12393516  1
  V  V41  1  0.74781061  0.50099981  0.24920531  1
  V  V42  1  0.87589444  0.24885394  0.12126312  1
  V  V43  1  0.13920298  0.24633606  0.37940814  1
  V  V44  1  0.88705877  0.62606123  0.24452902  1
  V  V45  1  0.87078564  0.87416759  -0.00545649  1
  V  V46  1  0.35558302  0.12332309  0.24875417  1
  V  V47  1  0.49596422  0.37832114  0.37252863  1
  V  V48  1  0.25247443  0.24946499  0.00054555  1
  V  V49  1  0.13699672  0.87691022  0.75058136  1
  V  V50  1  0.62799526  0.75200872  0.87498487  1
  V  V51  1  0.36815597  0.24854040  0.61800421  1
  V  V52  1  0.12463720  0.74794752  0.87661011  1
  V  V53  1  0.49632183  -0.00435425  0.00140723  1
  V  V54  1  0.61893508  0.12532261  0.00346523  1
  V  V55  1  0.62317097  0.37435597  0.24917350  1
  V  V56  1  0.00729782  0.50425023  0.01613544  1
  V  V57  1  0.88706722  -0.00261012  0.37589655  1
  V  V58  1  0.49941660  0.50044053  0.00214860  1
  V  V59  1  0.49856040  0.24754087  0.74715859  1
  V  V60  1  -0.00036493  0.12397001  0.12071697  1
  V  V61  1  0.62437984  0.24788767  0.87449190  1
  V  V62  1  0.74919380  0.63105671  0.37166713  1
  V  V63  1  0.36892572  0.87445537  0.49643882  1
  V  V64  1  0.74911294  0.75311697  0.50171590  1
  V  V65  1  0.87303709  0.74382061  0.63560212  1
  V  V66  1  0.62326616  0.87424060  0.25570556  1
  V  V67  1  0.12468681  0.38010937  0.24606394  1
  V  V68  1  0.11380348  0.86052442  0.25129949  1
  V  V69  1  0.75718290  -0.00173271  0.74913205  1
  V  V70  1  0.49908525  0.37419808  0.87429852  1
  V  V71  1  0.62089202  0.62502393  0.49866407  1
  V  V72  1  0.12546494  0.50494432  0.61913464  1
  V  V73  1  0.87801986  0.37831693  -0.00249356  1
  V  V74  1  0.50741416  0.12253026  0.61607416  1
  V  V75  1  0.74797744  0.37490579  0.62694332  1
  V  V76  1  0.74688353  0.86166616  0.12307832  1
  V  V77  1  0.75111222  0.24993583  -0.00198572  1
  V  V78  1  0.49196777  0.75725741  0.25260434  1
  V  V79  1  0.62333697  0.24532449  0.37976186  1
  V  V80  1  0.87577715  0.12391671  0.24946517  1
  V  V81  1  0.12416895  0.37282116  0.74668798  1
  V  V82  1  0.24145721  0.63405847  0.37953553  1
  V  V83  1  0.24991441  0.38104963  0.12350831  1
  V  V84  1  0.37055711  0.75408305  0.63291808  1
  Zn  Zn85  1  0.62616786  0.00075667  0.61917935  1
  Zn  Zn86  1  0.61727158  0.75524894  0.37642525  1
  Zn  Zn87  1  0.89334359  0.11418544  0.74707317  1
  Zn  Zn88  1  0.75667724  0.63388509  0.87902718  1
  Zn  Zn89  1  0.88639164  0.86877637  0.49954249  1
  Zn  Zn90  1  0.05647652  0.81212572  0.41035441  1
  Zn  Zn91  1  0.88749201  0.51413914  0.86894126  1
  Zn  Zn92  1  0.23463579  0.76604211  0.50012759  1
  Zn  Zn93  1  0.62261179  0.50387278  0.62667623  1
  Zn  Zn94  1  0.75001466  0.87730646  0.62273757  1
  Zn  Zn95  1  0.49886856  0.63296850  0.62831822  1
  Zn  Zn96  1  0.38262413  0.62947251  0.75060458  1
  Zn  Zn97  1  0.25129643  0.62531194  0.87800741  1
  Zn  Zn98  1  0.00000191  0.49867839  0.50234087  1
  Zn  Zn99  1  0.38016003  0.24375742  0.12208492  1
  Zn  Zn100  1  0.11381613  0.64070797  0.49861507  1
  Zn  Zn101  1  -0.00238750  0.87545611  0.87026453  1
  Zn  Zn102  1  -0.00738474  0.61874661  0.63265863  1
  Zn  Zn103  1  0.37562084  0.37326667  0.00169790  1
  Zn  Zn104  1  0.00117168  0.74506245  0.75298592  1
  Zn  Zn105  1  0.24886171  0.37251993  0.61919674  1
  Zn  Zn106  1  0.62354362  0.50291544  0.12514956  1
  Zn  Zn107  1  0.18457654  0.19381009  0.18444618  1
  Zn  Zn108  1  0.18627002  0.18501064  0.68616785  1
  Zn  Zn109  1  0.19159384  0.69344586  0.18919224  1
  Zn  Zn110  1  0.19253189  0.68839786  0.68583692  1
  Zn  Zn111  1  0.68709993  0.18657136  0.18685650  1
  Zn  Zn112  1  0.68968409  0.18493448  0.68930800  1
  Zn  Zn113  1  0.68310547  0.68762696  0.18839581  1
  Zn  Zn114  1  0.68099940  0.69148557  0.68664880  1
  Zn  Zn115  1  0.31568231  0.31067062  0.30937674  1
  Zn  Zn116  1  0.31202323  0.31253227  0.80880724  1
  Zn  Zn117  1  0.31164077  0.81571388  0.31080521  1
  Zn  Zn118  1  0.30762106  0.81400269  0.81575302  1
  Zn  Zn119  1  0.81147718  0.31045322  0.31133131  1
  Zn  Zn120  1  0.81353010  0.31610871  0.81510821  1
  Zn  Zn121  1  0.87588813  0.79815094  0.32663477  1
  Zn  Zn122  1  0.80641782  0.81498697  0.81345830  1
  Zn  Zn123  1  0.18847270  0.44046265  0.43280824  1
  Zn  Zn124  1  0.18746607  0.44149280  0.93792942  1
  Zn  Zn125  1  0.18482350  0.94510480  0.43565865  1
  Zn  Zn126  1  0.18767472  0.93426585  0.94099238  1
  Zn  Zn127  1  0.68424943  0.43682570  0.43797276  1
  Zn  Zn128  1  0.68572694  0.44092493  0.93636473  1
  Zn  Zn129  1  0.69181486  0.93833691  0.43463864  1
  Zn  Zn130  1  0.68644033  0.93601065  0.93688343  1
  Zn  Zn131  1  0.31371995  0.05993775  0.06456685  1
  Zn  Zn132  1  0.31651731  0.06329721  0.55727570  1
  Zn  Zn133  1  0.31174251  0.56347711  0.06488189  1
  Zn  Zn134  1  0.31327465  0.56560677  0.56120982  1
  Zn  Zn135  1  0.80933721  0.05889494  0.05988946  1
  Zn  Zn136  1  0.81505675  0.06358839  0.56654921  1
  Zn  Zn137  1  0.81551172  0.56420338  0.05946929  1
  Zn  Zn138  1  0.80947983  0.56266308  0.56253413  1
  Zn  Zn139  1  0.43400918  0.43667745  0.18662146  1
  Zn  Zn140  1  0.43812290  0.43901597  0.68285049  1
  Zn  Zn141  1  0.43980584  0.94434232  0.19123112  1
  Zn  Zn142  1  0.43553587  0.93581803  0.68151310  1
  Zn  Zn143  1  0.93662678  0.43805360  0.18888344  1
  Zn  Zn144  1  0.93781881  0.43525861  0.68893977  1
  Zn  Zn145  1  0.93785290  0.93628618  0.18252988  1
  Zn  Zn146  1  0.93741855  0.92492534  0.68892157  1
  Zn  Zn147  1  0.06655960  0.06407795  0.31543948  1
  Zn  Zn148  1  0.06269888  0.06054220  0.80923128  1
  Zn  Zn149  1  0.06411455  0.55941240  0.31331499  1
  Zn  Zn150  1  0.06516550  0.56629975  0.81301165  1
  Zn  Zn151  1  0.56332098  0.06193255  0.31460482  1
  Zn  Zn152  1  0.56365526  0.05793834  0.81064169  1
  Zn  Zn153  1  0.56086182  0.56329478  0.31325066  1
  Zn  Zn154  1  0.56340201  0.56577695  0.81055664  1
  Zn  Zn155  1  0.43510349  0.18512621  0.43363768  1
  Zn  Zn156  1  0.43730407  0.18361546  0.93622464  1
  Zn  Zn157  1  0.43315493  0.68835387  0.43318187  1
  Zn  Zn158  1  0.43988542  0.68557320  0.93454030  1
  Zn  Zn159  1  0.94007976  0.18392141  0.44341287  1
  Zn  Zn160  1  0.95623098  0.17313106  0.90588516  1
  Zn  Zn161  1  0.93378933  0.67834044  0.44658908  1
  Zn  Zn162  1  0.94050069  0.68816453  0.94050816  1
  Zn  Zn163  1  0.06500456  0.31162481  0.05958025  1
  Zn  Zn164  1  0.06332005  0.31317705  0.56308745  1
  Zn  Zn165  1  0.06682438  0.81444993  0.06120518  1
  Zn  Zn166  1  0.05945092  0.81878461  0.57627446  1
  Zn  Zn167  1  0.56233683  0.31361398  0.06360169  1
  Zn  Zn168  1  0.55940958  0.31180712  0.56106733  1
  Zn  Zn169  1  0.55678347  0.81341543  0.06423225  1
  Zn  Zn170  1  0.55598683  0.81517135  0.55982807  1
  O  O171  1  0.12157804  0.11947932  0.11865325  1
  O  O172  1  0.12524855  0.11497560  0.61812730  1
  O  O173  1  0.12969347  0.62924474  0.11480672  1
  O  O174  1  0.12938910  0.61518373  0.61990600  1
  O  O175  1  0.62983190  0.11591384  0.11538305  1
  O  O176  1  0.61045709  0.12560278  0.62792759  1
  O  O177  1  0.61182433  0.62361581  0.11938866  1
  O  O178  1  0.62172110  0.62622844  0.60969276  1
  O  O179  1  0.38630682  0.36783680  0.38027457  1
  O  O180  1  0.38083707  0.38340206  0.87654179  1
  O  O181  1  0.37167080  0.89209610  0.37864944  1
  O  O182  1  0.37999558  0.88694636  0.86981470  1
  O  O183  1  0.88036241  0.37651206  0.37899767  1
  O  O184  1  0.88484256  0.37890504  0.88357361  1
  O  O185  1  0.86221497  0.89345176  0.38390121  1
  O  O186  1  0.87540245  0.86684833  0.89071027  1
  O  O187  1  0.26089532  0.00767906  0.37450156  1
  O  O188  1  0.26009828  0.00886557  0.88546482  1
  O  O189  1  0.24757327  0.50945288  0.36102377  1
  O  O190  1  0.26035642  0.49936826  0.86820294  1
  O  O191  1  0.75526567  0.01018210  0.36926908  1
  O  O192  1  0.74205641  0.00731854  0.86478701  1
  O  O193  1  0.75172805  0.50697125  0.36955031  1
  O  O194  1  0.74959009  0.50000207  0.86113532  1
  O  O195  1  0.25255912  0.48831067  0.13354783  1
  O  O196  1  0.24580393  0.49694978  0.63086455  1
  O  O197  1  0.24099117  0.98524209  0.11533497  1
  O  O198  1  0.24212000  1.00499450  0.62657272  1
  O  O199  1  0.74889780  0.49450743  0.13138471  1
  O  O200  1  0.74655246  0.49165999  0.63415812  1
  O  O201  1  0.73902047  0.99504843  0.13020119  1
  O  O202  1  0.74495025  1.00012222  0.63155978  1
  O  O203  1  0.00673104  0.36923539  0.25507770  1
  O  O204  1  0.01091759  0.38023911  0.76122180  1
  O  O205  1  0.01396282  0.87832729  0.24556338  1
  O  O206  1  0.01209275  0.86686165  0.75338703  1
  O  O207  1  0.50307157  0.36869867  0.25659999  1
  O  O208  1  0.50552400  0.36942483  0.75334234  1
  O  O209  1  0.50867907  0.86795535  0.24206753  1
  O  O210  1  0.50669468  0.88420799  0.75909003  1
  O  O211  1  0.50038669  0.13533614  0.25163939  1
  O  O212  1  0.49303127  0.12801876  0.74279474  1
  O  O213  1  0.49212559  0.62887314  0.24465403  1
  O  O214  1  0.49568681  0.61844801  0.74182917  1
  O  O215  1  0.99531487  0.13048431  0.24322788  1
  O  O216  1  0.98943896  0.14183693  0.79714590  1
  O  O217  1  0.98562103  0.61401960  0.25111603  1
  O  O218  1  1.00490284  0.63079794  0.74620866  1
  O  O219  1  0.36467106  0.24863569  -0.00085113  1
  O  O220  1  0.38212232  0.25809614  0.50652717  1
  O  O221  1  0.36201761  0.74555122  -0.00283220  1
  O  O222  1  0.37233497  0.76878923  0.49114706  1
  O  O223  1  0.86962292  0.26211213  0.00404552  1
  O  O224  1  0.86720085  0.25397488  0.50898102  1
  O  O225  1  0.87761226  0.75776423  0.01542706  1
  O  O226  1  0.86204182  0.74891668  0.51008077  1
  O  O227  1  0.11971671  0.23754865  0.49630710  1
  O  O228  1  0.13740622  0.24280591  0.99426639  1
  O  O229  1  0.11897902  0.75900097  0.49689521  1
  O  O230  1  0.13256553  0.74136210  0.99736892  1
  O  O231  1  0.63318596  0.25458717  0.49108761  1
  O  O232  1  0.62938330  0.24288414  0.99649452  1
  O  O233  1  0.62753737  0.74365581  0.49491706  1
  O  O234  1  0.61463521  0.74187196  0.99188421  1
  O  O235  1  0.49794730  0.25518692  0.13720039  1
  O  O236  1  0.49145307  0.24224543  0.62779543  1
  O  O237  1  0.50137949  0.74131943  0.13625982  1
  O  O238  1  0.47714094  0.75063987  0.61225372  1
  O  O239  1  0.99618137  0.24325702  0.12787794  1
  O  O240  1  0.98365447  0.25810920  0.62592779  1
  O  O241  1  0.99028876  0.75213925  0.12550394  1
  O  O242  1  0.98194569  0.74936167  0.62636826  1
  O  O243  1  0.00172842  0.25863691  0.37137496  1
  O  O244  1  0.01503694  0.27180592  0.89213144  1
  O  O245  1  -0.02957502  0.75407612  0.37283847  1
  O  O246  1  0.01538901  0.75368005  0.88005298  1
  O  O247  1  0.50812123  0.25600365  0.36881766  1
  O  O248  1  0.50414286  0.25365420  0.86881592  1
  O  O249  1  0.50062864  0.74572131  0.35838883  1
  O  O250  1  0.50353628  0.76413162  0.87844207  1
  O  O251  1  0.23418026  0.12321512  0.50214152  1
  O  O252  1  0.24846910  0.13161840  0.99309088  1
  O  O253  1  0.24833717  0.62407672  0.48389133  1
  O  O254  1  0.24344905  0.63514499  1.00328303  1
  O  O255  1  0.75357417  0.13629810  0.49646631  1
  O  O256  1  0.73786407  0.12751665  0.99463062  1
  O  O257  1  0.74061089  0.63078020  0.49246675  1
  O  O258  1  0.73096246  0.61678881  1.00155486  1
  O  O259  1  0.24936455  0.36858188  0.00657727  1
  O  O260  1  0.26461971  0.37987660  0.49670913  1
  O  O261  1  0.24684998  0.86165857  0.01178603  1
  O  O262  1  0.26376839  0.88243588  0.49457967  1
  O  O263  1  0.75793148  0.37335932  0.00237339  1
  O  O264  1  0.75228275  0.36597493  0.50754294  1
  O  O265  1  0.75842199  0.88420842  0.01129802  1
  O  O266  1  0.74462471  0.86041954  0.49964312  1
  O  O267  1  0.13148403  0.48514462  0.25272705  1
  O  O268  1  0.13448355  0.49171799  0.74279543  1
  O  O269  1  0.12348482  1.00201074  0.23724303  1
  O  O270  1  0.12293054  0.99753787  0.73781826  1
  O  O271  1  0.63152127  0.49387965  0.24951346  1
  O  O272  1  0.63383604  0.49001621  0.74913051  1
  O  O273  1  0.62708434  0.99531577  0.24251363  1
  O  O274  1  0.63175856  0.98978364  0.74646003  1
  O  O275  1  0.37750780  0.01199642  0.26089399  1
  O  O276  1  0.37994823  0.01094868  0.75583250  1
  O  O277  1  0.36600061  0.50881441  0.24711077  1
  O  O278  1  0.36830952  0.49573780  0.75646125  1
  O  O279  1  0.87290260  0.00412343  0.25640584  1
  O  O280  1  0.86290795  -0.00179904  0.74500341  1
  O  O281  1  0.86473608  0.50366663  0.25360700  1
  O  O282  1  0.85886662  0.49377878  0.75158964  1
  O  O283  1  0.11719298  0.36783185  0.37058425  1
  O  O284  1  0.12313520  0.37324490  0.86705805  1
  O  O285  1  0.12972774  0.88260169  0.35615995  1
  O  O286  1  0.12494450  0.86783069  0.87035282  1
  O  O287  1  0.61958412  0.36400017  0.36910056  1
  O  O288  1  0.61879879  0.36815991  0.87027828  1
  O  O289  1  0.62983824  0.87572476  0.35933081  1
  O  O290  1  0.61569114  0.87030438  0.86980001  1
  O  O291  1  0.37170688  0.12325332  0.14277463  1
  O  O292  1  0.38224071  0.12897012  0.62950251  1
  O  O293  1  0.38525297  0.62104029  0.13485726  1
  O  O294  1  0.37553507  0.64038675  0.62293239  1
  O  O295  1  0.87855663  0.12920629  0.12808697  1
  O  O296  1  0.87473499  0.13956405  0.63120693  1
  O  O297  1  0.87141645  0.63763541  0.12904155  1
  O  O298  1  0.86934461  0.63889453  0.62382023  1
  O  O299  1  0.25303411  0.25757217  0.11549781  1
  O  O300  1  0.26457009  0.25019732  0.62857523  1
  O  O301  1  0.25062521  0.76177516  0.11522126  1
  O  O302  1  0.26434662  0.74759569  0.61325605  1
  O  O303  1  0.75455498  0.25582882  0.11777314  1
  O  O304  1  0.75287838  0.25542308  0.61914717  1
  O  O305  1  0.74666786  0.76009411  0.12408328  1
  O  O306  1  0.75435503  0.75035069  0.61781501  1
  O  O307  1  0.23775231  0.25568196  0.37320166  1
  O  O308  1  0.24685181  0.24328610  0.88102391  1
  O  O309  1  0.25078070  0.73692624  0.37548208  1
  O  O310  1  0.24373896  0.75037895  0.88971570  1
  O  O311  1  0.74406895  0.24593959  0.38299112  1
  O  O312  1  0.74253811  0.24557662  0.88055527  1
  O  O313  1  0.75476105  0.73696810  0.38095904  1
  O  O314  1  0.73267023  0.75218219  0.87647533  1
  O  O315  1  0.00625637  0.11795814  0.00155026  1
  O  O316  1  0.01021895  0.11077866  0.50000619  1
  O  O317  1  0.01664764  0.61897424  0.00122374  1
  O  O318  1  0.00044481  0.61496198  0.51059963  1
  O  O319  1  0.51237912  0.11603772  -0.00615576  1
  O  O320  1  0.49357402  0.11190915  0.50506053  1
  O  O321  1  0.50375066  0.61922856  0.00748165  1
  O  O322  1  0.50417469  0.61676355  0.49439085  1
  O  O323  1  0.49389644  0.38073007  0.49142508  1
  O  O324  1  0.49885648  0.38268122  0.99387009  1
  O  O325  1  0.48691393  0.89113367  0.49863682  1
  O  O326  1  0.50374830  0.88797449  0.99109131  1
  O  O327  1  0.99204426  0.37453085  0.49189230  1
  O  O328  1  0.99629630  0.38375164  0.99823122  1
  O  O329  1  1.00463051  0.89243058  0.49698736  1
  O  O330  1  0.99142474  0.88184390  1.00332850  1
  O  O331  1  0.50582685  0.48584550  0.38054148  1
  O  O332  1  0.49424345  0.49455614  0.88177340  1
  O  O333  1  0.49275844  1.00481098  0.38497809  1
  O  O334  1  0.49385740  0.99283506  0.88164461  1
  O  O335  1  0.99384694  0.48503091  0.37454338  1
  O  O336  1  1.00498010  0.49098970  0.88603120  1
  O  O337  1  0.99055528  1.00617943  0.38152346  1
  O  O338  1  1.00575419  0.99451956  0.89063045  1
  O  O339  1  0.00763006  0.00669735  0.11736682  1
  O  O340  1  -0.00081143  0.00009533  0.61721151  1
  O  O341  1  0.00262558  0.49486251  0.11558504  1
  O  O342  1  0.01106870  0.49584906  0.62533865  1
  O  O343  1  0.51268967  -0.00377314  0.11655237  1
  O  O344  1  0.49905357  0.00758104  0.61163496  1
  O  O345  1  0.49990999  0.50527437  0.11643905  1
  O  O346  1  0.50448996  0.49982868  0.61138971  1
  O  O347  1  0.24572510  0.38068714  0.24495950  1
  O  O348  1  0.24414602  0.38500624  0.74730048  1
  O  O349  1  0.24059649  0.86955903  0.23534163  1
  O  O350  1  0.23720343  0.88053171  0.75538830  1
  O  O351  1  0.74456009  0.38011031  0.24520216  1
  O  O352  1  0.74351594  0.38005160  0.74385095  1
  O  O353  1  0.73962319  0.88415155  0.23757819  1
  O  O354  1  0.74006434  0.88410034  0.74847496  1
  O  O355  1  0.25715250  0.13106910  0.25023175  1
  O  O356  1  0.25882340  0.12943830  0.76196655  1
  O  O357  1  0.25420388  0.62023602  0.25491450  1
  O  O358  1  0.25580614  0.61206206  0.75279745  1
  O  O359  1  0.75746739  0.11987842  0.25434398  1
  O  O360  1  0.74944090  0.11546409  0.75880568  1
  O  O361  1  0.75132946  0.61871728  0.25611138  1
  O  O362  1  0.73969949  0.61103025  0.75060201  1
  O  O363  1  0.37732056  0.11556903  0.36196981  1
  O  O364  1  0.37127638  0.11613810  0.86600627  1
  O  O365  1  0.36276102  0.62444357  0.36337724  1
  O  O366  1  0.37367753  0.61235970  0.87331881  1
  O  O367  1  0.87015504  0.11967420  0.36984713  1
  O  O368  1  0.85427849  0.12570704  0.88398097  1
  O  O369  1  0.86519364  0.61465094  0.36664943  1
  O  O370  1  0.86816770  0.62341784  0.88780900  1
  O  O371  1  0.13555752  0.36464205  0.13587246  1
  O  O372  1  0.12884761  0.37963943  0.63130379  1
  O  O373  1  0.13093714  0.88093005  0.13426839  1
  O  O374  1  0.12610535  0.89245752  0.63399694  1
  O  O375  1  0.63230640  0.37830737  0.13093773  1
  O  O376  1  0.63510793  0.37293317  0.62957774  1
  O  O377  1  0.63047829  0.88180999  0.12874116  1
  O  O378  1  0.62393048  0.87629045  0.63154298  1
  O  O379  1  0.11886020  0.25660716  0.25943966  1
  O  O380  1  0.13319196  0.26377648  0.75413165  1
  O  O381  1  0.12034586  0.76090045  0.24911260  1
  O  O382  1  0.13224708  0.75735300  0.75958723  1
  O  O383  1  0.61924023  0.25481840  0.25526108  1
  O  O384  1  0.61932308  0.25555110  0.75426505  1
  O  O385  1  0.61703559  0.75908744  0.25175444  1
  O  O386  1  0.62514084  0.76443883  0.75755478  1
  O  O387  1  0.38238245  0.23567771  0.25095154  1
  O  O388  1  0.38118119  0.23989357  0.74375061  1
  O  O389  1  0.38045239  0.74206961  0.25095902  1
  O  O390  1  0.36763271  0.75398247  0.73649666  1
  O  O391  1  0.88067908  0.24492086  0.24210802  1
  O  O392  1  0.86803802  0.25167167  0.73782068  1
  O  O393  1  0.86619076  0.73841194  0.23222180  1
  O  O394  1  0.86895695  0.75464007  0.73814021  1
  O  O395  1  0.38609217  0.49187112  0.50243646  1
  O  O396  1  0.38390367  0.49951253  0.99289258  1
  O  O397  1  0.38006980  0.99680799  0.48757092  1
  O  O398  1  0.38692318  1.00882970  0.99028938  1
  O  O399  1  0.87079011  0.48956704  0.49343501  1
  O  O400  1  0.88530540  0.48980831  1.00172688  1
  O  O401  1  0.88718783  1.00363561  0.49631166  1
  O  O402  1  0.88498824  0.98776392  1.01045187  1
  O  O403  1  0.11843497  0.00288846  0.01012324  1
  O  O404  1  0.11934460  0.00754177  0.51165021  1
  O  O405  1  0.12328465  0.51505388  0.00052217  1
  O  O406  1  0.12526468  0.49470038  0.51173503  1
  O  O407  1  0.61926591  0.00641819  0.00612454  1
  O  O408  1  0.61084107  -0.00425789  0.49670730  1
  O  O409  1  0.61131311  0.50681839  -0.00122687  1
  O  O410  1  0.61564230  0.50750221  0.49968340  1
  O  O411  1  0.36441449  0.36857865  0.12265643  1
  O  O412  1  0.37586098  0.36513751  0.61433047  1
  O  O413  1  0.36100248  0.88420462  0.13096555  1
  O  O414  1  0.37431822  0.86775251  0.60991411  1
  O  O415  1  0.87024571  0.36960643  0.11812015  1
  O  O416  1  0.86298826  0.36746876  0.62226747  1
  O  O417  1  0.86701415  0.86290920  0.12266045  1
  O  O418  1  0.86924352  0.86221638  0.61823248  1
  O  O419  1  0.12120828  0.13365283  0.38967731  1
  O  O420  1  0.13718328  0.12668039  0.88084343  1
  O  O421  1  0.13664803  0.62203378  0.37646808  1
  O  O422  1  0.13235867  0.63367041  0.88484303  1
  O  O423  1  0.63245349  0.13803852  0.36979822  1
  O  O424  1  0.63033086  0.13004444  0.88112486  1
  O  O425  1  0.63180072  0.62702837  0.38254103  1
  O  O426  1  0.62349339  0.63533426  0.88352312  1
