# generated using pymatgen
data_V85Zn86O256
_symmetry_space_group_name_H-M   'P 1'
_cell_length_a   16.95712772
_cell_length_b   16.96882075
_cell_length_c   16.95968787
_cell_angle_alpha   90.07456909
_cell_angle_beta   90.01440000
_cell_angle_gamma   89.90029381
_symmetry_Int_Tables_number   1
_chemical_formula_structural   V85Zn86O256
_chemical_formula_sum   'V85 Zn86 O256'
_cell_volume   4880.01064493
_cell_formula_units_Z   1
loop_
 _symmetry_equiv_pos_site_id
 _symmetry_equiv_pos_as_xyz
  1  'x, y, z'
loop_
 _atom_site_type_symbol
 _atom_site_label
 _atom_site_symmetry_multiplicity
 _atom_site_fract_x
 _atom_site_fract_y
 _atom_site_fract_z
 _atom_site_occupancy
  V  V0  1  0.00055779  0.75305908  0.75791975  1
  V  V1  1  0.74832377  0.37330421  0.62126906  1
  V  V2  1  0.24554218  0.37705655  0.62221409  1
  V  V3  1  0.37896235  -0.02454628  0.89829551  1
  V  V4  1  0.12260802  0.76163583  0.87849898  1
  V  V5  1  0.74929155  0.13662133  0.37952434  1
  V  V6  1  0.00453042  0.49858748  0.50434899  1
  V  V7  1  0.57337897  -0.04346059  0.07174303  1
  V  V8  1  0.74864318  0.49976045  0.74903935  1
  V  V9  1  0.25033528  0.76602525  0.01016145  1
  V  V10  1  -0.00545628  0.62058584  0.12964373  1
  V  V11  1  0.62465058  0.25184418  0.87585527  1
  V  V12  1  0.74916984  0.87601400  0.62660992  1
  V  V13  1  0.62585528  0.00252747  0.62456919  1
  V  V14  1  0.36891502  0.12473888  0.76386441  1
  V  V15  1  0.36408314  0.37438273  0.00419189  1
  V  V16  1  0.87551020  0.00068412  0.37594683  1
  V  V17  1  0.13390198  0.23726336  0.87583920  1
  V  V18  1  0.50455780  0.37157423  0.37739340  1
  V  V19  1  0.87393260  0.37122114  0.49928931  1
  V  V20  1  0.12183035  0.37828134  0.74771141  1
  V  V21  1  0.37447659  0.12459812  0.25191914  1
  V  V22  1  0.62850504  0.13947914  0.49659098  1
  V  V23  1  0.87512134  0.74987807  0.12879665  1
  V  V24  1  0.75682307  0.88410459  0.12361689  1
  V  V25  1  0.37995264  0.62861762  0.74602480  1
  V  V26  1  0.87008983  0.24735531  0.62294755  1
  V  V27  1  0.62637248  0.62499953  0.50515879  1
  V  V28  1  0.00286337  0.24826659  0.24899676  1
  V  V29  1  0.75172632  0.12145862  0.87548956  1
  V  V30  1  0.50265388  0.13244986  0.12378759  1
  V  V31  1  0.63182583  0.38270106  0.25486292  1
  V  V32  1  0.12837901  0.11050919  0.50114984  1
  V  V33  1  0.00818177  0.00231364  -0.01208503  1
  V  V34  1  0.50893502  0.24978319  0.25456099  1
  V  V35  1  0.87575488  0.74767633  0.62587641  1
  V  V36  1  0.49505509  0.37568252  0.87717347  1
  V  V37  1  0.62385425  0.13312444  0.00514315  1
  V  V38  1  0.37466060  0.49991239  0.37330815  1
  V  V39  1  0.24175049  0.50498892  0.74385187  1
  V  V40  1  0.39112300  0.62440866  0.24109259  1
  V  V41  1  0.62433852  0.87362424  0.25333488  1
  V  V42  1  0.61316245  0.87975381  0.75089010  1
  V  V43  1  -0.00041288  0.24880399  0.75093261  1
  V  V44  1  0.12815706  -0.01688184  0.12864450  1
  V  V45  1  0.24918885  0.74619302  0.50231612  1
  V  V46  1  0.24647685  0.49843155  0.23388626  1
  V  V47  1  0.49833508  0.50384411  0.50406851  1
  V  V48  1  0.49530050  0.12687315  0.62209008  1
  V  V49  1  0.00192505  0.75492787  0.24671131  1
  V  V50  1  0.00999679  0.12200142  0.12139456  1
  V  V51  1  0.00287712  0.49828192  0.00180838  1
  V  V52  1  0.12673312  0.62026547  0.00817265  1
  V  V53  1  0.00348762  0.11590802  0.62203743  1
  V  V54  1  0.87689481  0.24619515  0.12279425  1
  V  V55  1  0.74796845  0.00319978  0.24964014  1
  V  V56  1  0.74741227  0.62713501  0.87432803  1
  V  V57  1  0.38279980  0.75827727  0.12652181  1
  V  V58  1  0.12248272  0.75063265  0.37085935  1
  V  V59  1  0.50354071  0.86328701  0.37571232  1
  V  V60  1  0.87403594  0.37898897  -0.00120342  1
  V  V61  1  0.12529183  0.88137188  0.74351179  1
  V  V62  1  0.01050129  0.61977453  0.62842886  1
  V  V63  1  0.13104836  0.37622975  0.23731316  1
  V  V64  1  0.88083541  0.88387535  -0.01491806  1
  V  V65  1  0.49968404  0.25037620  0.74726535  1
  V  V66  1  0.12602677  0.25019777  0.37801713  1
  V  V67  1  0.75302612  0.37968199  0.13232730  1
  V  V68  1  0.87588795  0.62255889  0.74882748  1
  V  V69  1  0.37515116  0.87346588  0.50160207  1
  V  V70  1  0.75493156  0.61920337  0.36606533  1
  V  V71  1  0.75027096  0.74694045  0.49982185  1
  V  V72  1  0.87751383  0.87391610  0.49983728  1
  V  V73  1  0.87340039  0.11692729  0.75238467  1
  V  V74  1  0.36504374  0.25436778  0.12866300  1
  V  V75  1  0.24747335  0.62149726  0.37013865  1
  V  V76  1  0.25132576  0.12362894  0.37474453  1
  V  V77  1  0.24493860  0.62628783  0.87733713  1
  V  V78  1  0.61711869  0.75617371  0.87360390  1
  V  V79  1  0.50244826  0.00045798  0.49511313  1
  V  V80  1  0.37164287  0.49961625  0.87724505  1
  V  V81  1  0.75174747  0.75098967  -0.00345374  1
  V  V82  1  0.00255971  0.37611045  0.37419928  1
  V  V83  1  0.87434277  0.50018252  0.36363069  1
  V  V84  1  0.61991045  0.50214859  0.63040576  1
  Zn  Zn85  1  0.00606789  -0.00671803  0.50022013  1
  Zn  Zn86  1  -0.00227796  0.87598207  0.36706899  1
  Zn  Zn87  1  0.75200647  0.25257777  -0.00069269  1
  Zn  Zn88  1  0.37190420  0.25354814  0.62315447  1
  Zn  Zn89  1  0.38159205  0.74564586  0.62107246  1
  Zn  Zn90  1  0.24631797  0.23948558  0.00093625  1
  Zn  Zn91  1  0.49719245  0.75298109  0.74594812  1
  Zn  Zn92  1  0.25273196  0.00302781  0.75019935  1
  Zn  Zn93  1  0.49855893  0.52959325  0.02450453  1
  Zn  Zn94  1  0.62056119  0.51878929  0.12768062  1
  Zn  Zn95  1  0.62330280  0.37625856  0.75053043  1
  Zn  Zn96  1  0.75122236  -0.00113776  0.75306586  1
  Zn  Zn97  1  0.24047222  0.88538987  0.61484787  1
  Zn  Zn98  1  0.37522635  -0.00397835  0.37226784  1
  Zn  Zn99  1  0.62574360  0.74296435  0.37021075  1
  Zn  Zn100  1  0.25310787  -0.01934118  0.23858265  1
  Zn  Zn101  1  0.87605810  0.12412533  0.24947102  1
  Zn  Zn102  1  -0.00025212  0.37304457  0.87589869  1
  Zn  Zn103  1  0.12695020  0.61945152  0.50224667  1
  Zn  Zn104  1  0.25230275  0.25023534  0.50237841  1
  Zn  Zn105  1  0.37398063  0.37647318  0.50190514  1
  Zn  Zn106  1  0.87300058  0.49667964  0.87543651  1
  Zn  Zn107  1  0.18779398  0.18292719  0.18917225  1
  Zn  Zn108  1  0.18713982  0.18775798  0.68523111  1
  Zn  Zn109  1  0.18730197  0.68840825  0.18636750  1
  Zn  Zn110  1  0.18900635  0.69360174  0.68746242  1
  Zn  Zn111  1  0.68994973  0.19283048  0.18991497  1
  Zn  Zn112  1  0.68612285  0.18755960  0.68691014  1
  Zn  Zn113  1  0.68589905  0.69196885  0.18772596  1
  Zn  Zn114  1  0.68321109  0.68886945  0.68888011  1
  Zn  Zn115  1  0.31346080  0.31364888  0.31359754  1
  Zn  Zn116  1  0.31085339  0.31227086  0.80683884  1
  Zn  Zn117  1  0.31687371  0.80628468  0.30963890  1
  Zn  Zn118  1  0.30669475  0.81502320  0.81805950  1
  Zn  Zn119  1  0.81754301  0.31122964  0.31193516  1
  Zn  Zn120  1  0.81180543  0.31039926  0.81067052  1
  Zn  Zn121  1  0.81209308  0.80917137  0.31170831  1
  Zn  Zn122  1  0.81041657  0.81319782  0.80935260  1
  Zn  Zn123  1  0.18546010  0.43874321  0.43307138  1
  Zn  Zn124  1  0.18453344  0.43399400  0.93376707  1
  Zn  Zn125  1  0.20322816  0.91872416  0.40229692  1
  Zn  Zn126  1  0.19919754  1.05700486  0.93421230  1
  Zn  Zn127  1  0.68780032  0.43767805  0.43898644  1
  Zn  Zn128  1  0.68632428  0.44261161  0.94139299  1
  Zn  Zn129  1  0.68897051  0.94102325  0.43788076  1
  Zn  Zn130  1  0.69260715  0.93691668  0.93244588  1
  Zn  Zn131  1  0.31439537  0.05906718  0.06457075  1
  Zn  Zn132  1  0.31008795  0.05823774  0.56492806  1
  Zn  Zn133  1  0.31491684  0.56439793  0.06210124  1
  Zn  Zn134  1  0.31046106  0.55998501  0.56375246  1
  Zn  Zn135  1  0.81509893  0.06456664  0.05947983  1
  Zn  Zn136  1  0.81218092  0.06163365  0.56085871  1
  Zn  Zn137  1  0.78375902  0.58213402  0.08380629  1
  Zn  Zn138  1  0.81487743  0.55830122  0.56022539  1
  Zn  Zn139  1  0.43914306  0.43673918  0.18722114  1
  Zn  Zn140  1  0.43293456  0.44096453  0.68980034  1
  Zn  Zn141  1  0.43675179  0.93716402  0.19342444  1
  Zn  Zn142  1  0.43263526  0.94181756  0.68220143  1
  Zn  Zn143  1  0.94188426  0.43441063  0.18453589  1
  Zn  Zn144  1  0.93694248  0.43690589  0.68728496  1
  Zn  Zn145  1  0.93855712  0.93938576  0.18427801  1
  Zn  Zn146  1  0.94002279  0.93544917  0.68955889  1
  Zn  Zn147  1  0.06281816  0.06092694  0.30944481  1
  Zn  Zn148  1  0.05899783  0.06248395  0.80873066  1
  Zn  Zn149  1  0.06299830  0.56177782  0.30941531  1
  Zn  Zn150  1  0.06157952  0.56279996  0.81957007  1
  Zn  Zn151  1  0.56661461  0.06168972  0.31401411  1
  Zn  Zn152  1  0.55447988  0.06013093  0.81748742  1
  Zn  Zn153  1  0.56580620  0.55780507  0.31620964  1
  Zn  Zn154  1  0.54315664  0.58222790  0.85410382  1
  Zn  Zn155  1  0.43525904  0.19169179  0.43987721  1
  Zn  Zn156  1  0.43813058  0.19162970  0.94360035  1
  Zn  Zn157  1  0.43642852  0.68387065  0.43583998  1
  Zn  Zn158  1  0.42953123  0.69666862  0.93843082  1
  Zn  Zn159  1  0.93880586  0.18620944  0.43812986  1
  Zn  Zn160  1  0.93903160  0.18570976  0.93658518  1
  Zn  Zn161  1  0.93777322  0.68377481  0.43696778  1
  Zn  Zn162  1  0.93405234  0.68552381  0.94014882  1
  Zn  Zn163  1  0.06260633  0.30942244  0.05837089  1
  Zn  Zn164  1  0.06201736  0.30782836  0.56395137  1
  Zn  Zn165  1  0.05963918  0.81280138  0.05768810  1
  Zn  Zn166  1  0.06188484  0.80550703  0.56221558  1
  Zn  Zn167  1  0.57604636  0.35388309  0.04839531  1
  Zn  Zn168  1  0.56133947  0.31605726  0.56242428  1
  Zn  Zn169  1  0.56526806  0.78919883  0.06269591  1
  Zn  Zn170  1  0.55985407  0.80792245  0.56691351  1
  O  O171  1  0.11199475  0.12531752  0.12521576  1
  O  O172  1  0.11473264  0.13224222  0.61382497  1
  O  O173  1  0.11483500  0.62957869  0.11248966  1
  O  O174  1  0.11306484  0.62732215  0.62637519  1
  O  O175  1  0.62113776  0.13487715  0.11378967  1
  O  O176  1  0.61527489  0.12177077  0.61931462  1
  O  O177  1  0.67504916  0.61596339  0.11077831  1
  O  O178  1  0.63133949  0.61651443  0.61375548  1
  O  O179  1  0.38298902  0.38451172  0.37619375  1
  O  O180  1  0.37697569  0.37683983  0.87839234  1
  O  O181  1  0.38835614  0.87347796  0.38554426  1
  O  O182  1  0.38016207  0.87587378  0.87783162  1
  O  O183  1  0.88136013  0.37857009  0.38320102  1
  O  O184  1  0.87647218  0.37321931  0.88340063  1
  O  O185  1  0.87435629  0.87987168  0.38373292  1
  O  O186  1  0.86987222  0.87529348  0.88671457  1
  O  O187  1  0.25536673  0.01950486  0.38245287  1
  O  O188  1  0.27434230  0.00079201  0.86656310  1
  O  O189  1  0.25460372  0.51007921  0.37219360  1
  O  O190  1  0.25176951  0.50665761  0.86625561  1
  O  O191  1  0.76088362  0.00490434  0.36930561  1
  O  O192  1  0.74641111  0.01719709  0.87193091  1
  O  O193  1  0.75920125  0.51040431  0.38167599  1
  O  O194  1  0.74893312  0.50894003  0.87017377  1
  O  O195  1  0.25123380  0.50232284  0.13490671  1
  O  O196  1  0.24613624  0.49649277  0.63725706  1
  O  O197  1  0.23272258  0.99944431  0.12518106  1
  O  O198  1  0.25299886  0.99537296  0.63531150  1
  O  O199  1  0.75923114  0.47976935  0.13030629  1
  O  O200  1  0.74455078  0.49210617  0.62851735  1
  O  O201  1  0.75720822  0.99234629  0.13259012  1
  O  O202  1  0.74443001  0.99240682  0.62620237  1
  O  O203  1  0.00907372  0.36852769  0.25589417  1
  O  O204  1  0.00376723  0.36619533  0.75028741  1
  O  O205  1  -0.00618312  0.85946374  0.24848555  1
  O  O206  1  0.00869333  0.86321789  0.74707020  1
  O  O207  1  0.50804626  0.36803273  0.25894529  1
  O  O208  1  0.49677169  0.36218175  0.75323877  1
  O  O209  1  0.51260568  0.88442514  0.26349104  1
  O  O210  1  0.51077369  0.87858073  0.74254163  1
  O  O211  1  0.49648057  0.13077714  0.24938354  1
  O  O212  1  0.49523053  0.13510498  0.74211422  1
  O  O213  1  0.48867374  0.62342775  0.25905410  1
  O  O214  1  0.48071914  0.62330629  0.76098024  1
  O  O215  1  0.99773604  0.13105408  0.24141255  1
  O  O216  1  0.99330360  0.13044911  0.74177647  1
  O  O217  1  1.00288110  0.62946528  0.23389155  1
  O  O218  1  0.99378086  0.62784733  0.74609249  1
  O  O219  1  0.37002455  0.25507616  0.01215531  1
  O  O220  1  0.37108141  0.25875833  0.50445349  1
  O  O221  1  0.36138634  0.74774514  0.01383515  1
  O  O222  1  0.36741569  0.75383843  0.49803929  1
  O  O223  1  0.87821729  0.25964570  0.00618483  1
  O  O224  1  0.88268446  0.26228619  0.50840772  1
  O  O225  1  0.87108970  0.76396742  0.00485488  1
  O  O226  1  0.87093284  0.75519570  0.50580250  1
  O  O227  1  0.12417646  0.24405583  0.48731492  1
  O  O228  1  0.12457466  0.25393114  0.97904466  1
  O  O229  1  0.13188427  0.74056389  0.49472831  1
  O  O230  1  0.13117833  0.74314159  0.99621846  1
  O  O231  1  0.62189777  0.23836584  0.50373331  1
  O  O232  1  0.62644490  0.25011964  0.99120324  1
  O  O233  1  0.63223167  0.74000827  0.49910572  1
  O  O234  1  0.64313694  0.75770166  0.98895021  1
  O  O235  1  0.49111135  0.23933700  0.13789116  1
  O  O236  1  0.50027193  0.24478638  0.63157021  1
  O  O237  1  0.48319065  0.74343950  0.11998095  1
  O  O238  1  0.49544963  0.74646922  0.63158707  1
  O  O239  1  0.99381681  0.24187907  0.12566288  1
  O  O240  1  0.99030397  0.24247530  0.63394121  1
  O  O241  1  0.99357305  0.74368552  0.12755927  1
  O  O242  1  0.99311597  0.73908855  0.63498782  1
  O  O243  1  0.00710002  0.25416061  0.37003558  1
  O  O244  1  0.00755812  0.24651701  0.86252246  1
  O  O245  1  0.00324437  0.74233227  0.36259214  1
  O  O246  1  0.00601735  0.74029910  0.86534075  1
  O  O247  1  0.49484169  0.26400713  0.37016156  1
  O  O248  1  0.50799586  0.25411888  0.86697711  1
  O  O249  1  0.50630310  0.75986774  0.38107936  1
  O  O250  1  0.51439754  0.75253072  0.87041419  1
  O  O251  1  0.24347259  0.12972329  0.49575991  1
  O  O252  1  0.25022408  0.12688167  1.00443589  1
  O  O253  1  0.25004102  0.62869756  0.49171579  1
  O  O254  1  0.24155937  0.62505291  0.99380750  1
  O  O255  1  0.74085739  0.12058689  0.49230625  1
  O  O256  1  0.74491186  0.13147339  0.99344304  1
  O  O257  1  0.74460079  0.62754155  0.49652002  1
  O  O258  1  0.76908481  0.64058201  0.98226317  1
  O  O259  1  0.26088342  0.36974560  -0.00653154  1
  O  O260  1  0.24420224  0.38039649  0.51335343  1
  O  O261  1  0.24249913  0.85992325  0.00207505  1
  O  O262  1  0.25898632  0.86501081  0.49415821  1
  O  O263  1  0.75921334  0.37125999  0.00847638  1
  O  O264  1  0.75854922  0.37902412  0.51211925  1
  O  O265  1  0.76165040  0.87517164  0.00510834  1
  O  O266  1  0.75838532  0.87097356  0.50883481  1
  O  O267  1  0.13402480  0.48892133  0.25379036  1
  O  O268  1  0.12952265  0.49116390  0.75718985  1
  O  O269  1  0.12356981  1.00185204  0.23229533  1
  O  O270  1  0.12262831  0.98313551  0.75554124  1
  O  O271  1  0.62622787  0.48594106  0.24882360  1
  O  O272  1  0.62908361  0.49987860  0.73714270  1
  O  O273  1  0.64068318  0.99080049  0.25540597  1
  O  O274  1  0.62503480  0.99713593  0.74438687  1
  O  O275  1  0.37170576  0.01019502  0.25334709  1
  O  O276  1  0.38134562  0.02049870  0.74708524  1
  O  O277  1  0.36771007  0.51002796  0.25343810  1
  O  O278  1  0.36257674  0.51075934  0.75635428  1
  O  O279  1  0.86585537  -0.00046236  0.25722067  1
  O  O280  1  0.87435781  0.01331541  0.74604540  1
  O  O281  1  0.88174485  0.49127125  0.26463721  1
  O  O282  1  0.86901102  0.50692056  0.75200969  1
  O  O283  1  0.11993437  0.36625754  0.36968572  1
  O  O284  1  0.12115170  0.36448734  0.86122928  1
  O  O285  1  0.10983601  0.85294092  0.38946225  1
  O  O286  1  0.12189754  0.86042539  0.86343834  1
  O  O287  1  0.61757033  0.37861468  0.36994651  1
  O  O288  1  0.61597670  0.36732683  0.87153021  1
  O  O289  1  0.62282576  0.87271138  0.36964675  1
  O  O290  1  0.63461402  0.86923733  0.86164101  1
  O  O291  1  0.38347638  0.12950656  0.13694862  1
  O  O292  1  0.38919524  0.12813503  0.62306795  1
  O  O293  1  0.37459416  0.62940529  0.13720063  1
  O  O294  1  0.36659633  0.62346146  0.64301722  1
  O  O295  1  0.88336931  0.13169365  0.12616547  1
  O  O296  1  0.87926461  0.13206993  0.62846914  1
  O  O297  1  0.88138579  0.63776305  0.11597876  1
  O  O298  1  0.87968624  0.62728640  0.63499607  1
  O  O299  1  0.26251733  0.24748617  0.13069626  1
  O  O300  1  0.24951507  0.26303656  0.62383734  1
  O  O301  1  0.25633436  0.74622611  0.11567244  1
  O  O302  1  0.25247938  0.75208108  0.61030469  1
  O  O303  1  0.76604822  0.25333825  0.12522091  1
  O  O304  1  0.76190895  0.25657294  0.62998880  1
  O  O305  1  0.75752077  0.76523668  0.11564181  1
  O  O306  1  0.75573571  0.75683680  0.62072283  1
  O  O307  1  0.24297985  0.24174720  0.37664045  1
  O  O308  1  0.23502459  0.25162322  0.86977295  1
  O  O309  1  0.24266266  0.73641505  0.38206431  1
  O  O310  1  0.24203677  0.74307407  0.88813753  1
  O  O311  1  0.75927013  0.23537564  0.37426415  1
  O  O312  1  0.73695850  0.24292988  0.87216700  1
  O  O313  1  0.75190664  0.73735761  0.38280414  1
  O  O314  1  0.74659944  0.74651927  0.87889074  1
  O  O315  1  -0.00892251  0.10997613  0.00709502  1
  O  O316  1  0.00791810  0.12245083  0.50659113  1
  O  O317  1  0.00485717  0.61852189  0.00692518  1
  O  O318  1  -0.00240310  0.61617884  0.51149395  1
  O  O319  1  0.50864878  0.13124947  0.01251683  1
  O  O320  1  0.50636666  0.11957569  0.50318294  1
  O  O321  1  0.50330439  0.61580340  -0.04289375  1
  O  O322  1  0.51000096  0.61154881  0.49157855  1
  O  O323  1  0.50099897  0.38689153  0.49406681  1
  O  O324  1  0.48149044  0.36126175  0.98445833  1
  O  O325  1  0.49848756  0.88226200  0.49454974  1
  O  O326  1  0.52363903  0.89229729  1.01696276  1
  O  O327  1  0.99506206  0.37971814  0.49635966  1
  O  O328  1  0.99527691  0.38190225  0.99859068  1
  O  O329  1  0.98635430  0.87315394  0.50335571  1
  O  O330  1  0.98905905  0.88668387  1.00040395  1
  O  O331  1  0.49564481  0.49062790  0.38215318  1
  O  O332  1  0.48845118  0.48061582  0.86032125  1
  O  O333  1  0.50237091  0.99396333  0.38602671  1
  O  O334  1  0.47485857  1.00748846  0.87596666  1
  O  O335  1  0.99312476  0.49629743  0.38164170  1
  O  O336  1  0.99397912  0.49929872  0.88833476  1
  O  O337  1  0.98788024  0.99725418  0.37450054  1
  O  O338  1  1.00147138  1.00496987  0.88913971  1
  O  O339  1  0.00790124  0.00519006  0.11826575  1
  O  O340  1  -0.00458539  0.01258266  0.62207876  1
  O  O341  1  -0.00576913  0.50732828  0.11253938  1
  O  O342  1  -0.00673678  0.50814707  0.61740567  1
  O  O343  1  0.50636028  0.01092458  0.13116179  1
  O  O344  1  0.50461737  0.00815839  0.61313920  1
  O  O345  1  0.50585519  0.50519953  0.13224646  1
  O  O346  1  0.50797577  0.49485207  0.61778661  1
  O  O347  1  0.24279867  0.38633933  0.25720654  1
  O  O348  1  0.24139326  0.38371111  0.74180346  1
  O  O349  1  0.24309298  0.88595279  0.29657606  1
  O  O350  1  0.23263685  0.86873097  0.74768599  1
  O  O351  1  0.74226529  0.36553980  0.24696909  1
  O  O352  1  0.74981744  0.38123559  0.73902716  1
  O  O353  1  0.74755811  0.88176867  0.24196759  1
  O  O354  1  0.74583006  0.87792864  0.73766648  1
  O  O355  1  0.25985828  0.12382941  0.25805440  1
  O  O356  1  0.26665844  0.12886802  0.74452178  1
  O  O357  1  0.25105100  0.61631263  0.25597736  1
  O  O358  1  0.24863084  0.62038654  0.75733421  1
  O  O359  1  0.75138774  0.11796872  0.25731646  1
  O  O360  1  0.75682595  0.12517974  0.75564649  1
  O  O361  1  0.74855304  0.62885591  0.26848858  1
  O  O362  1  0.75838166  0.62047272  0.75197684  1
  O  O363  1  0.37051080  0.12805679  0.36566184  1
  O  O364  1  0.37787931  0.13679804  0.86236452  1
  O  O365  1  0.36709449  0.62129029  0.36300370  1
  O  O366  1  0.35730459  0.62325779  0.86735390  1
  O  O367  1  0.86954487  0.11597460  0.37570524  1
  O  O368  1  0.86369588  0.13555342  0.86415513  1
  O  O369  1  0.86362350  0.61428801  0.38129417  1
  O  O370  1  0.86817741  0.62546121  0.86130178  1
  O  O371  1  0.12290421  0.36431705  0.13862530  1
  O  O372  1  0.12742648  0.36833473  0.63897481  1
  O  O373  1  0.11945372  0.88472735  0.12425983  1
  O  O374  1  0.12271833  0.86670380  0.63882994  1
  O  O375  1  0.64112476  0.36094802  0.14091373  1
  O  O376  1  0.63319382  0.38182066  0.62630376  1
  O  O377  1  0.63098091  0.88316538  0.12932317  1
  O  O378  1  0.63310997  0.88116725  0.62922576  1
  O  O379  1  0.12284438  0.25354501  0.26099471  1
  O  O380  1  0.11688282  0.25286611  0.75672278  1
  O  O381  1  0.11501842  0.74330351  0.25790647  1
  O  O382  1  0.11688302  0.75224640  0.75775186  1
  O  O383  1  0.61254562  0.25302122  0.25275048  1
  O  O384  1  0.61640470  0.25101608  0.75668602  1
  O  O385  1  0.63234293  0.76701995  0.25159899  1
  O  O386  1  0.62532611  0.76200314  0.75587649  1
  O  O387  1  0.38363468  0.24494500  0.24687589  1
  O  O388  1  0.38248759  0.24141441  0.74448212  1
  O  O389  1  0.36998916  0.73388820  0.23957550  1
  O  O390  1  0.36918619  0.73679174  0.75188841  1
  O  O391  1  0.88619576  0.24892033  0.24069965  1
  O  O392  1  0.88196725  0.24234350  0.74240541  1
  O  O393  1  0.87940049  0.75254444  0.23547221  1
  O  O394  1  0.88175557  0.74391247  0.74611067  1
  O  O395  1  0.38325388  0.50085352  0.49445189  1
  O  O396  1  0.37710530  0.49222734  0.99433093  1
  O  O397  1  0.38494551  0.99205559  0.49614359  1
  O  O398  1  0.37468487  0.98841329  0.99827730  1
  O  O399  1  0.88444178  0.48728224  0.49491424  1
  O  O400  1  0.88051890  0.48563046  0.99997728  1
  O  O401  1  0.87639933  0.99070266  0.49265997  1
  O  O402  1  0.88379375  0.98880333  1.00298149  1
  O  O403  1  0.11218956  0.00122605  0.00734084  1
  O  O404  1  0.12424494  0.01010629  0.48940261  1
  O  O405  1  0.11649906  0.50780442  -0.00597858  1
  O  O406  1  0.10894721  0.50091305  0.49478715  1
  O  O407  1  0.63223337  0.01032719  0.00555039  1
  O  O408  1  0.61864981  0.00562897  0.50637448  1
  O  O409  1  0.60679554  0.46674773  0.01594432  1
  O  O410  1  0.61992778  0.50533130  0.51049631  1
  O  O411  1  0.37991825  0.36498024  0.11763980  1
  O  O412  1  0.36068072  0.37808273  0.62522154  1
  O  O413  1  0.37603602  0.85726585  0.13967612  1
  O  O414  1  0.37474821  0.87242237  0.60977299  1
  O  O415  1  0.87423225  0.36459639  0.11930963  1
  O  O416  1  0.86919997  0.36764883  0.61930441  1
  O  O417  1  0.87021270  0.87077345  0.11637798  1
  O  O418  1  0.86823805  0.87032507  0.62051720  1
  O  O419  1  0.13121621  0.13135409  0.37903314  1
  O  O420  1  0.12829417  0.13271433  0.86841970  1
  O  O421  1  0.13123727  0.63023690  0.37652399  1
  O  O422  1  0.13208036  0.63246922  0.88346257  1
  O  O423  1  0.63626412  0.12054154  0.38497338  1
  O  O424  1  0.62635844  0.13182315  0.88649204  1
  O  O425  1  0.63740304  0.62112149  0.38578467  1
  O  O426  1  0.64241307  0.63965845  0.86145908  1
