# generated using pymatgen
data_V85Zn86O256
_symmetry_space_group_name_H-M   'P 1'
_cell_length_a   16.93027374
_cell_length_b   16.92678097
_cell_length_c   16.93018477
_cell_angle_alpha   90.02808625
_cell_angle_beta   89.94150390
_cell_angle_gamma   90.00034548
_symmetry_Int_Tables_number   1
_chemical_formula_structural   V85Zn86O256
_chemical_formula_sum   'V85 Zn86 O256'
_cell_volume   4851.76518747
_cell_formula_units_Z   1
loop_
 _symmetry_equiv_pos_site_id
 _symmetry_equiv_pos_as_xyz
  1  'x, y, z'
loop_
 _atom_site_type_symbol
 _atom_site_label
 _atom_site_symmetry_multiplicity
 _atom_site_fract_x
 _atom_site_fract_y
 _atom_site_fract_z
 _atom_site_occupancy
  V  V0  1  0.50170006  0.00145050  0.01023874  1
  V  V1  1  0.50319218  0.62921273  0.62565665  1
  V  V2  1  0.11528536  0.87491506  0.25304498  1
  V  V3  1  0.61878332  0.75592165  0.87429486  1
  V  V4  1  0.37896456  0.87363978  -0.01176703  1
  V  V5  1  0.50313182  0.11808982  0.62782206  1
  V  V6  1  0.37363515  0.74736136  0.62604119  1
  V  V7  1  -0.00202480  0.73638227  0.24847038  1
  V  V8  1  0.25263155  0.37325708  0.12230247  1
  V  V9  1  0.12785812  0.13139486  0.49989941  1
  V  V10  1  0.12557116  -0.00149258  0.62526533  1
  V  V11  1  0.37837497  0.49123008  0.37555103  1
  V  V12  1  0.74754599  0.00254590  0.24086687  1
  V  V13  1  0.00046463  0.49828634  0.50669399  1
  V  V14  1  0.87285563  0.62471131  0.74161769  1
  V  V15  1  0.01842191  0.49708069  -0.00664814  1
  V  V16  1  0.87798465  0.50220735  0.36821364  1
  V  V17  1  0.87356221  0.73982647  0.12557126  1
  V  V18  1  0.50457729  0.25427968  0.24820078  1
  V  V19  1  0.24848769  0.74138970  0.00065454  1
  V  V20  1  0.37955020  0.24406342  0.12203091  1
  V  V21  1  0.62264431  0.87887319  0.24555949  1
  V  V22  1  0.75011649  0.26361876  0.00149747  1
  V  V23  1  0.87613087  0.37524203  0.50036567  1
  V  V24  1  0.12345719  0.87295165  0.75040374  1
  V  V25  1  0.25087101  0.87209263  0.12421125  1
  V  V26  1  0.26699279  0.26011022  0.50306758  1
  V  V27  1  0.49644869  0.25313537  0.74536138  1
  V  V28  1  0.74966715  0.24890645  0.50051836  1
  V  V29  1  0.37279692  0.87622301  0.50244044  1
  V  V30  1  0.12459322  0.00100801  0.12366047  1
  V  V31  1  0.24802271  0.60823294  0.87279236  1
  V  V32  1  0.38950068  0.49776321  0.87025534  1
  V  V33  1  0.87076725  0.26493735  0.12128934  1
  V  V34  1  0.38480418  0.12188099  0.24547584  1
  V  V35  1  0.87030487  0.49871235  0.88645216  1
  V  V36  1  -0.00743989  0.36320560  0.86688579  1
  V  V37  1  0.62738385  0.25810550  0.37284024  1
  V  V38  1  0.61700249  0.25227780  0.87818964  1
  V  V39  1  0.62805793  0.50236185  0.62468146  1
  V  V40  1  0.87546030  0.12795997  0.75234181  1
  V  V41  1  0.12554221  0.50285350  0.63795705  1
  V  V42  1  0.87524463  0.24988612  0.62834590  1
  V  V43  1  0.87251751  0.86681797  0.00058175  1
  V  V44  1  0.62098149  0.37879353  0.75788563  1
  V  V45  1  -0.00048581  0.87277282  0.87694368  1
  V  V46  1  0.75303668  0.48854729  0.24448910  1
  V  V47  1  0.38405930  0.74657155  0.12287152  1
  V  V48  1  0.24789288  0.74671833  0.50185882  1
  V  V49  1  0.12382582  0.37363377  0.24703866  1
  V  V50  1  0.12327739  0.75135033  0.37443127  1
  V  V51  1  0.24964878  -0.00040482  0.24965078  1
  V  V52  1  0.75141285  0.86724623  0.60814430  1
  V  V53  1  0.25294621  0.62415172  0.37614724  1
  V  V54  1  0.12960191  0.13276720  -0.01105964  1
  V  V55  1  0.37552684  -0.00103596  0.37621445  1
  V  V56  1  0.25215856  0.50074962  0.24884097  1
  V  V57  1  0.75312510  0.62856416  0.37116184  1
  V  V58  1  -0.00001318  -0.00118774  0.00040147  1
  V  V59  1  0.62370872  0.63527953  0.01580521  1
  V  V60  1  0.74643903  0.87158959  0.11987860  1
  V  V61  1  0.36400454  0.13346141  0.74828623  1
  V  V62  1  0.37470914  0.00593549  0.87213122  1
  V  V63  1  0.50074774  0.49207087  0.50030670  1
  V  V64  1  0.49914171  0.87273773  0.37435248  1
  V  V65  1  0.74876545  0.37477770  0.62706012  1
  V  V66  1  0.62980545  0.75214998  0.38284460  1
  V  V67  1  0.12544488  0.62140342  0.50538057  1
  V  V68  1  0.38644405  0.37704122  -0.00125937  1
  V  V69  1  0.74537792  0.12458982  0.87749925  1
  V  V70  1  0.12604417  0.74144959  0.87985262  1
  V  V71  1  0.38435896  0.62553922  0.24723572  1
  V  V72  1  0.74783276  0.12387869  0.37449063  1
  V  V73  1  -0.00227344  0.00076129  0.49465834  1
  V  V74  1  0.62156607  0.12247927  0.01338155  1
  V  V75  1  -0.00006609  0.13026993  0.62938966  1
  V  V76  1  -0.00292317  0.12854588  0.12398228  1
  V  V77  1  0.87155922  -0.00167946  0.87529835  1
  V  V78  1  0.73972716  -0.00257523  0.74168692  1
  V  V79  1  0.62274581  0.48050272  0.13169097  1
  V  V80  1  0.25176671  0.12681205  0.37486203  1
  V  V81  1  0.12507045  0.35603381  0.75029025  1
  V  V82  1  -0.00410706  0.74431725  0.74890745  1
  V  V83  1  0.87597607  -0.00234545  0.37296943  1
  V  V84  1  0.74782503  0.63283726  0.88073817  1
  Zn  Zn85  1  0.13257284  0.50571798  0.11703330  1
  Zn  Zn86  1  0.49435381  0.75792153  0.75552743  1
  Zn  Zn87  1  0.50201692  0.37290617  0.37698935  1
  Zn  Zn88  1  0.00131843  0.37205083  0.37332187  1
  Zn  Zn89  1  0.12325993  0.25201460  0.37409925  1
  Zn  Zn90  1  0.61763891  0.88015270  0.74479423  1
  Zn  Zn91  1  0.63241871  0.63004190  0.50129372  1
  Zn  Zn92  1  0.87621197  0.75199201  0.60898518  1
  Zn  Zn93  1  0.50597320  0.74619041  0.24639822  1
  Zn  Zn94  1  0.24340495  0.00569598  0.76105904  1
  Zn  Zn95  1  0.25692435  0.24082324  -0.01349935  1
  Zn  Zn96  1  0.26638073  0.37487949  0.63107783  1
  Zn  Zn97  1  -0.00170514  0.25293971  0.24913732  1
  Zn  Zn98  1  0.87430829  0.12799117  0.24573015  1
  Zn  Zn99  1  0.00887664  0.62432430  0.11198540  1
  Zn  Zn100  1  0.24768111  0.87521908  0.62760849  1
  Zn  Zn101  1  0.50397051  0.50419144  0.00692128  1
  Zn  Zn102  1  0.50513734  -0.00327245  0.50632045  1
  Zn  Zn103  1  0.74971823  0.50166750  0.75376008  1
  Zn  Zn104  1  0.62732183  0.12091011  0.50793571  1
  Zn  Zn105  1  0.37080327  0.62224534  0.74854865  1
  Zn  Zn106  1  -0.05188674  0.83764371  0.42494638  1
  Zn  Zn107  1  0.19054766  0.18779790  0.18199055  1
  Zn  Zn108  1  0.19016483  0.19269867  0.68091083  1
  Zn  Zn109  1  0.18772658  0.68322248  0.18560393  1
  Zn  Zn110  1  0.18691726  0.68283311  0.69040695  1
  Zn  Zn111  1  0.68950859  0.19270025  0.18765181  1
  Zn  Zn112  1  0.68552998  0.18787055  0.69107740  1
  Zn  Zn113  1  0.69368298  0.68944198  0.19651833  1
  Zn  Zn114  1  0.69199690  0.69304956  0.68916250  1
  Zn  Zn115  1  0.31147531  0.30954535  0.31168358  1
  Zn  Zn116  1  0.31068353  0.31551028  0.81391627  1
  Zn  Zn117  1  0.31073080  0.81058897  0.31092199  1
  Zn  Zn118  1  0.30815501  0.81041566  0.81183081  1
  Zn  Zn119  1  0.81610707  0.31332865  0.31077479  1
  Zn  Zn120  1  0.80820303  0.31257220  0.81481023  1
  Zn  Zn121  1  0.80937001  0.81122360  0.30455368  1
  Zn  Zn122  1  0.80726618  0.81158071  0.81154373  1
  Zn  Zn123  1  0.18661358  0.43731844  0.43557285  1
  Zn  Zn124  1  0.20029336  0.40504562  0.92105204  1
  Zn  Zn125  1  0.18572481  0.93788213  0.43790326  1
  Zn  Zn126  1  0.18955347  0.93583064  0.93821909  1
  Zn  Zn127  1  0.69073872  0.44062644  0.43713072  1
  Zn  Zn128  1  0.68310771  0.44452252  0.93976497  1
  Zn  Zn129  1  0.68548573  0.94133328  0.43754692  1
  Zn  Zn130  1  0.68600546  0.93889486  0.93895688  1
  Zn  Zn131  1  0.31143258  0.06095981  0.06047943  1
  Zn  Zn132  1  0.31335167  0.06560022  0.56734405  1
  Zn  Zn133  1  0.31461758  0.56128851  0.06061496  1
  Zn  Zn134  1  0.32874142  0.53260665  0.57910253  1
  Zn  Zn135  1  0.81163902  0.06417680  0.06079287  1
  Zn  Zn136  1  0.81304744  0.05893550  0.56143649  1
  Zn  Zn137  1  0.80719838  0.56136352  0.06205268  1
  Zn  Zn138  1  0.81118169  0.56467092  0.55908447  1
  Zn  Zn139  1  0.44018552  0.43497849  0.18847049  1
  Zn  Zn140  1  0.44139707  0.43552943  0.68848851  1
  Zn  Zn141  1  0.43676563  0.93393129  0.18457364  1
  Zn  Zn142  1  0.43509234  0.93760237  0.69333252  1
  Zn  Zn143  1  0.94028084  0.44191771  0.18266994  1
  Zn  Zn144  1  0.93770995  0.44054228  0.69149234  1
  Zn  Zn145  1  0.93434484  0.93699672  0.18698756  1
  Zn  Zn146  1  0.93382059  0.93850906  0.68635606  1
  Zn  Zn147  1  0.06231913  0.06681233  0.31088327  1
  Zn  Zn148  1  0.05909874  0.06276806  0.81238002  1
  Zn  Zn149  1  0.06554511  0.55879375  0.31272711  1
  Zn  Zn150  1  0.05725177  0.56329988  0.81879977  1
  Zn  Zn151  1  0.56496998  0.06121142  0.31739571  1
  Zn  Zn152  1  0.55567074  0.06347573  0.81906654  1
  Zn  Zn153  1  0.56734674  0.56164005  0.31079930  1
  Zn  Zn154  1  0.56313925  0.57100514  0.81131520  1
  Zn  Zn155  1  0.44035370  0.18613320  0.43673955  1
  Zn  Zn156  1  0.43883137  0.18400438  0.93460933  1
  Zn  Zn157  1  0.44144474  0.68373550  0.43968199  1
  Zn  Zn158  1  0.44042144  0.68092263  0.94004917  1
  Zn  Zn159  1  0.93760984  0.18679335  0.43531944  1
  Zn  Zn160  1  0.93483695  0.18687728  0.94231836  1
  Zn  Zn161  1  0.94008497  0.67489199  0.43700932  1
  Zn  Zn162  1  0.93694124  0.68227237  0.93655489  1
  Zn  Zn163  1  0.05946272  0.31706193  0.05733006  1
  Zn  Zn164  1  0.06302551  0.31400283  0.56560442  1
  Zn  Zn165  1  0.06289236  0.80981725  0.06426836  1
  Zn  Zn166  1  0.04984498  0.80569584  0.55980032  1
  Zn  Zn167  1  0.56114598  0.30816946  0.06471665  1
  Zn  Zn168  1  0.56253897  0.30995565  0.56466107  1
  Zn  Zn169  1  0.56256135  0.81572266  0.05787683  1
  Zn  Zn170  1  0.56400885  0.81800375  0.56659385  1
  O  O171  1  0.11825542  0.11793770  0.11855303  1
  O  O172  1  0.11793847  0.11969846  0.62089318  1
  O  O173  1  0.12349539  0.61893943  0.12325577  1
  O  O174  1  0.12367323  0.61478687  0.61890513  1
  O  O175  1  0.62888290  0.12872039  0.11241618  1
  O  O176  1  0.60802081  0.12936695  0.62896435  1
  O  O177  1  0.63124633  0.63153425  0.11684169  1
  O  O178  1  0.62261634  0.62062533  0.62519412  1
  O  O179  1  0.37654914  0.38782434  0.36978946  1
  O  O180  1  0.37554308  0.39068220  0.88366070  1
  O  O181  1  0.37863157  0.87736711  0.38125057  1
  O  O182  1  0.37159019  0.87704380  0.88471788  1
  O  O183  1  0.87547727  0.38569586  0.38191941  1
  O  O184  1  0.88300847  0.38477284  0.86434734  1
  O  O185  1  0.86976042  0.89106573  0.36568679  1
  O  O186  1  0.87683068  0.87685376  0.88310021  1
  O  O187  1  0.25607251  0.00587520  0.37028600  1
  O  O188  1  0.26609103  -0.00517894  0.87751005  1
  O  O189  1  0.25936541  0.50472286  0.36991077  1
  O  O190  1  0.25883967  0.50597472  0.88412917  1
  O  O191  1  0.75535900  0.00744687  0.36470200  1
  O  O192  1  0.75449666  0.00534397  0.86887868  1
  O  O193  1  0.75697486  0.50355427  0.36421074  1
  O  O194  1  0.75341420  0.50991004  0.87417498  1
  O  O195  1  0.25441880  0.49288400  0.13382204  1
  O  O196  1  0.22624456  0.49809821  0.62277047  1
  O  O197  1  0.24459454  0.99245335  0.12947741  1
  O  O198  1  0.23471265  0.99968609  0.62656614  1
  O  O199  1  0.74264693  0.50301835  0.13796681  1
  O  O200  1  0.74009353  0.49692742  0.62638099  1
  O  O201  1  0.75564095  0.99273755  0.13543170  1
  O  O202  1  0.75308194  0.99492017  0.63787046  1
  O  O203  1  0.01102613  0.37596505  0.24727643  1
  O  O204  1  0.00306287  0.37351349  0.75848442  1
  O  O205  1  0.01215482  0.86945454  0.24330032  1
  O  O206  1  0.00690808  0.87148831  0.75794559  1
  O  O207  1  0.49547321  0.35811567  0.25535026  1
  O  O208  1  0.51092434  0.36817741  0.74738132  1
  O  O209  1  0.50664583  0.87419093  0.25525229  1
  O  O210  1  0.50537212  0.87041001  0.74430838  1
  O  O211  1  0.48886242  0.12988815  0.25632405  1
  O  O212  1  0.49219425  0.13191541  0.74361328  1
  O  O213  1  0.48822946  0.62709741  0.25451772  1
  O  O214  1  0.49699801  0.63150470  0.73649769  1
  O  O215  1  1.00118185  0.12879977  0.23437652  1
  O  O216  1  0.98832632  0.11873642  0.74121443  1
  O  O217  1  1.00425963  0.63399796  0.24765277  1
  O  O218  1  0.98612891  0.63350443  0.76075548  1
  O  O219  1  0.37724332  0.25476154  0.00512845  1
  O  O220  1  0.36559702  0.25328648  0.49399467  1
  O  O221  1  0.37145520  0.75496260  0.00371374  1
  O  O222  1  0.36960793  0.75405176  0.50857878  1
  O  O223  1  0.86363346  0.24648452  0.01101522  1
  O  O224  1  0.86900729  0.25468961  0.50644663  1
  O  O225  1  0.88115341  0.76133925  0.00542680  1
  O  O226  1  0.92801076  0.76151824  0.50704512  1
  O  O227  1  0.12706853  0.23906795  0.50140996  1
  O  O228  1  0.12353784  0.23395649  1.00670377  1
  O  O229  1  0.12654020  0.74105651  0.49641482  1
  O  O230  1  0.13535969  0.75656916  0.99055905  1
  O  O231  1  0.63222225  0.24458068  0.49355433  1
  O  O232  1  0.62774897  0.24345953  0.99466412  1
  O  O233  1  0.62138729  0.75275496  0.48612200  1
  O  O234  1  0.62380860  0.74137497  0.99258606  1
  O  O235  1  0.48902538  0.24846070  0.13281543  1
  O  O236  1  0.50126263  0.24402088  0.63952818  1
  O  O237  1  0.48734525  0.75592221  0.12561175  1
  O  O238  1  0.49106847  0.74348874  0.62107219  1
  O  O239  1  0.98814942  0.24523527  0.12057939  1
  O  O240  1  0.99243255  0.23669752  0.61973319  1
  O  O241  1  0.99338159  0.74647240  0.13047362  1
  O  O242  1  0.99945062  0.75262172  0.64716436  1
  O  O243  1  0.00291310  0.25149124  0.36853462  1
  O  O244  1  -0.01080125  0.26438446  0.87789205  1
  O  O245  1  0.00560525  0.75082930  0.36369305  1
  O  O246  1  0.00826774  0.75383332  0.87268490  1
  O  O247  1  0.51016120  0.24914331  0.36929105  1
  O  O248  1  0.51138421  0.24573468  0.86556686  1
  O  O249  1  0.50592564  0.75851818  0.37249539  1
  O  O250  1  0.51397008  0.74299652  0.87485211  1
  O  O251  1  0.24585285  0.13423832  0.49714982  1
  O  O252  1  0.23517471  0.12516006  1.00140488  1
  O  O253  1  0.23916637  0.62684298  0.49442707  1
  O  O254  1  0.25572585  0.63613238  0.99184049  1
  O  O255  1  0.75134449  0.13065690  0.49224470  1
  O  O256  1  0.74027872  0.12778135  0.99330711  1
  O  O257  1  0.74840509  0.61837779  0.48041004  1
  O  O258  1  0.73559951  0.62231056  0.99288759  1
  O  O259  1  0.26704819  0.38481031  0.01706675  1
  O  O260  1  0.24444816  0.36065630  0.49826818  1
  O  O261  1  0.25804313  0.86399437  0.00499448  1
  O  O262  1  0.25901604  0.86814321  0.50040515  1
  O  O263  1  0.74399002  0.36237013  -0.00612296  1
  O  O264  1  0.75627797  0.37017501  0.50705090  1
  O  O265  1  0.75752323  0.88202240  0.01165568  1
  O  O266  1  0.75401517  0.88130518  0.50945651  1
  O  O267  1  0.13467542  0.48881473  0.24866263  1
  O  O268  1  0.11387011  0.50192309  0.73867001  1
  O  O269  1  0.12896973  0.99318596  0.24564976  1
  O  O270  1  0.12348797  0.99265739  0.74387718  1
  O  O271  1  0.63598317  0.50148582  0.23893109  1
  O  O272  1  0.62436502  0.49456824  0.74419340  1
  O  O273  1  0.63239443  0.98835926  0.25468598  1
  O  O274  1  0.63753148  1.00332047  0.75821290  1
  O  O275  1  0.37009942  0.00435617  0.25355824  1
  O  O276  1  0.36868030  0.01165438  0.75605588  1
  O  O277  1  0.37296841  0.50737186  0.25567511  1
  O  O278  1  0.38130806  0.50178639  0.76727620  1
  O  O279  1  0.86685896  0.00456984  0.25422183  1
  O  O280  1  0.86535958  0.00912278  0.75580031  1
  O  O281  1  0.86594782  0.49632454  0.25445092  1
  O  O282  1  0.87266510  0.51052639  0.75848219  1
  O  O283  1  0.12464433  0.37317147  0.36246461  1
  O  O284  1  0.10623970  0.38347171  0.85409257  1
  O  O285  1  0.13182972  0.86620853  0.36428961  1
  O  O286  1  0.12058145  0.86661690  0.86910315  1
  O  O287  1  0.62728007  0.36169338  0.37940458  1
  O  O288  1  0.62778861  0.36882594  0.86762531  1
  O  O289  1  0.61954626  0.87025927  0.36774102  1
  O  O290  1  0.63144440  0.85754153  0.87935469  1
  O  O291  1  0.36863053  0.13155650  0.13357130  1
  O  O292  1  0.38305046  0.12518553  0.64087135  1
  O  O293  1  0.36984783  0.63432598  0.13365862  1
  O  O294  1  0.38289440  0.62973096  0.62485010  1
  O  O295  1  0.88402535  0.13074873  0.12319159  1
  O  O296  1  0.88109405  0.12693318  0.63244673  1
  O  O297  1  0.87801680  0.63744399  0.11539780  1
  O  O298  1  0.86777619  0.62933464  0.63739516  1
  O  O299  1  0.26303467  0.25664438  0.11974969  1
  O  O300  1  0.25348104  0.25538155  0.60897049  1
  O  O301  1  0.25774171  0.75391096  0.11759053  1
  O  O302  1  0.25482829  0.74930486  0.61866542  1
  O  O303  1  0.76191653  0.24819686  0.11700114  1
  O  O304  1  0.75400918  0.25354941  0.62055146  1
  O  O305  1  0.76095354  0.76074056  0.13308791  1
  O  O306  1  0.75656695  0.76091733  0.62043738  1
  O  O307  1  0.24808006  0.24302932  0.38437622  1
  O  O308  1  0.23477057  0.29548615  0.89197551  1
  O  O309  1  0.24459107  0.74358634  0.38164614  1
  O  O310  1  0.24341169  0.74259291  0.88275780  1
  O  O311  1  0.74705118  0.24366414  0.37795308  1
  O  O312  1  0.73936963  0.24367136  0.88138605  1
  O  O313  1  0.74397382  0.74239031  0.36819666  1
  O  O314  1  0.74068037  0.73927857  0.87542213  1
  O  O315  1  0.00643222  0.11958614  0.00829950  1
  O  O316  1  0.00804447  0.11861515  0.50646574  1
  O  O317  1  -0.00030213  0.60354094  -0.00826842  1
  O  O318  1  0.01751048  0.61107043  0.49331334  1
  O  O319  1  0.50692413  0.11329096  -0.00262989  1
  O  O320  1  0.49468729  0.12866079  0.51977214  1
  O  O321  1  0.51908799  0.62300115  0.00251274  1
  O  O322  1  0.50767251  0.61787434  0.51106092  1
  O  O323  1  0.50481675  0.38784655  0.50009203  1
  O  O324  1  0.49023018  0.37740676  1.00558457  1
  O  O325  1  0.48682474  0.87464451  0.49530412  1
  O  O326  1  0.49138684  0.88755477  1.00179298  1
  O  O327  1  0.99451484  0.38112311  0.49799701  1
  O  O328  1  1.00278233  0.38500713  0.98150337  1
  O  O329  1  1.01932551  0.89795234  0.49520862  1
  O  O330  1  0.99297426  0.87911158  0.99670330  1
  O  O331  1  0.49794211  0.49766880  0.38074094  1
  O  O332  1  0.49197102  0.50698155  0.88025777  1
  O  O333  1  0.49037018  0.99011111  0.37456465  1
  O  O334  1  0.48314207  1.00211410  0.88514836  1
  O  O335  1  0.99290003  0.49722345  0.38192602  1
  O  O336  1  0.98959199  0.49301346  0.88123968  1
  O  O337  1  0.98889444  1.01053961  0.38012799  1
  O  O338  1  0.99173162  0.99207808  0.88022299  1
  O  O339  1  0.00342362  0.00684358  0.11962756  1
  O  O340  1  0.00732712  0.00874866  0.61899724  1
  O  O341  1  0.00250513  0.49691798  0.10299207  1
  O  O342  1  0.00577906  0.49764048  0.61324873  1
  O  O343  1  0.49290023  0.00114292  0.10972591  1
  O  O344  1  0.49464628  0.01498401  0.62686463  1
  O  O345  1  0.51847341  0.49711140  0.13073588  1
  O  O346  1  0.51348154  0.50826520  0.61985854  1
  O  O347  1  0.24815966  0.37890053  0.23994135  1
  O  O348  1  0.23019855  0.37075420  0.74443699  1
  O  O349  1  0.24283387  0.88006492  0.24334911  1
  O  O350  1  0.23395515  0.87574135  0.74903474  1
  O  O351  1  0.74980728  0.38965609  0.25409771  1
  O  O352  1  0.73788505  0.37669461  0.74452743  1
  O  O353  1  0.74255276  0.88332368  0.24001379  1
  O  O354  1  0.74521889  0.88950483  0.75118063  1
  O  O355  1  0.25748894  0.11876483  0.25437776  1
  O  O356  1  0.26021236  0.12793713  0.74610056  1
  O  O357  1  0.25964544  0.61995479  0.25753757  1
  O  O358  1  0.25292720  0.62775113  0.76640037  1
  O  O359  1  0.74964571  0.11756469  0.25512457  1
  O  O360  1  0.75372043  0.11507522  0.75498191  1
  O  O361  1  0.74893495  0.61294633  0.26338336  1
  O  O362  1  0.75670811  0.62481809  0.75991130  1
  O  O363  1  0.37092932  0.11855829  0.36771267  1
  O  O364  1  0.37518150  0.12081767  0.86084276  1
  O  O365  1  0.36977289  0.62269223  0.36640181  1
  O  O366  1  0.36891022  0.61250595  0.87675952  1
  O  O367  1  0.86330706  0.11895815  0.37056742  1
  O  O368  1  0.86841264  0.12047229  0.86982064  1
  O  O369  1  0.87020921  0.61064712  0.37556360  1
  O  O370  1  0.86406264  0.61831018  0.87174280  1
  O  O371  1  0.13563071  0.37865171  0.12704441  1
  O  O372  1  0.11670367  0.38493274  0.63938727  1
  O  O373  1  0.13138602  0.87996524  0.13123748  1
  O  O374  1  0.12098714  0.88176718  0.63235899  1
  O  O375  1  0.62778345  0.38205565  0.12500327  1
  O  O376  1  0.62946550  0.38307323  0.63227825  1
  O  O377  1  0.63426765  0.86957751  0.13144224  1
  O  O378  1  0.64410703  0.87204338  0.62746030  1
  O  O379  1  0.12759421  0.26268687  0.24578423  1
  O  O380  1  0.11828179  0.25724081  0.74383282  1
  O  O381  1  0.11958499  0.75665993  0.25379888  1
  O  O382  1  0.11852218  0.75481504  0.75933682  1
  O  O383  1  0.61598627  0.24424932  0.25800471  1
  O  O384  1  0.61876112  0.25788878  0.75866651  1
  O  O385  1  0.62449126  0.76273350  0.25871415  1
  O  O386  1  0.62514742  0.74991026  0.76584564  1
  O  O387  1  0.38021485  0.24037106  0.24347940  1
  O  O388  1  0.38143722  0.24360055  0.75711709  1
  O  O389  1  0.37511968  0.74308403  0.24033800  1
  O  O390  1  0.37254824  0.74925597  0.73643961  1
  O  O391  1  0.87489085  0.24850040  0.23499136  1
  O  O392  1  0.86440753  0.23518724  0.74504252  1
  O  O393  1  0.88775885  0.75690181  0.23877125  1
  O  O394  1  0.88154604  0.74134434  0.75683255  1
  O  O395  1  0.39041722  0.51676487  0.48209218  1
  O  O396  1  0.38388801  0.49487292  0.99489715  1
  O  O397  1  0.37460290  0.99158237  0.49639729  1
  O  O398  1  0.38128737  0.99379405  0.99564033  1
  O  O399  1  0.88308225  0.49575173  0.49473617  1
  O  O400  1  0.87303928  0.49936788  0.98836614  1
  O  O401  1  0.88561101  1.00515233  0.48899101  1
  O  O402  1  0.88030674  0.99082166  0.99515358  1
  O  O403  1  0.11893949  0.00449661  0.00508851  1
  O  O404  1  0.12377163  0.01344199  0.50600429  1
  O  O405  1  0.11875752  0.49005932  -0.00920878  1
  O  O406  1  0.11874024  0.50284318  0.50679249  1
  O  O407  1  0.60995857  0.00611794  -0.00539737  1
  O  O408  1  0.61635041  0.00979080  0.49003246  1
  O  O409  1  0.62662010  0.50839028  0.01915950  1
  O  O410  1  0.62033734  0.50260552  0.50817882  1
  O  O411  1  0.37246649  0.36576867  0.12172168  1
  O  O412  1  0.36532658  0.42499118  0.61092889  1
  O  O413  1  0.36747140  0.86698081  0.11655920  1
  O  O414  1  0.36990906  0.86787790  0.61736255  1
  O  O415  1  0.87776485  0.36337093  0.12293321  1
  O  O416  1  0.86899354  0.37051271  0.62292154  1
  O  O417  1  0.86902530  0.86814429  0.11724666  1
  O  O418  1  0.85766245  0.87323970  0.63280529  1
  O  O419  1  0.13342357  0.12596569  0.38319431  1
  O  O420  1  0.11787528  0.12102388  0.89025412  1
  O  O421  1  0.13360713  0.63005150  0.37973825  1
  O  O422  1  0.13266356  0.63364529  0.87359057  1
  O  O423  1  0.63769411  0.13420840  0.37392667  1
  O  O424  1  0.62839935  0.13396339  0.88120356  1
  O  O425  1  0.63202930  0.63575008  0.37391513  1
  O  O426  1  0.63164948  0.63209119  0.88330936  1
