# generated using pymatgen
data_V85Zn86O256
_symmetry_space_group_name_H-M   'P 1'
_cell_length_a   16.92842411
_cell_length_b   16.93132534
_cell_length_c   16.92021791
_cell_angle_alpha   90.03506580
_cell_angle_beta   89.96347444
_cell_angle_gamma   89.95996919
_symmetry_Int_Tables_number   1
_chemical_formula_structural   V85Zn86O256
_chemical_formula_sum   'V85 Zn86 O256'
_cell_volume   4849.68087939
_cell_formula_units_Z   1
loop_
 _symmetry_equiv_pos_site_id
 _symmetry_equiv_pos_as_xyz
  1  'x, y, z'
loop_
 _atom_site_type_symbol
 _atom_site_label
 _atom_site_symmetry_multiplicity
 _atom_site_fract_x
 _atom_site_fract_y
 _atom_site_fract_z
 _atom_site_occupancy
  V  V0  1  0.74982459  0.12519719  0.87499064  1
  V  V1  1  0.13741782  0.75422456  0.87569945  1
  V  V2  1  -0.00060493  0.75058082  0.74145482  1
  V  V3  1  0.74693893  0.38329663  0.62592291  1
  V  V4  1  0.49823382  0.00108677  0.51422987  1
  V  V5  1  0.75946123  0.75060013  0.50186978  1
  V  V6  1  0.49229299  0.12445809  0.13085658  1
  V  V7  1  0.36722761  0.25027805  0.12947505  1
  V  V8  1  -0.00224148  0.87285428  0.87415175  1
  V  V9  1  0.87154510  0.25716170  0.12784108  1
  V  V10  1  0.01568156  0.62305842  0.62308047  1
  V  V11  1  0.63176972  0.37240595  0.24586074  1
  V  V12  1  0.75907655  0.87565588  0.11408844  1
  V  V13  1  0.24997084  0.62718357  0.87806197  1
  V  V14  1  0.74776466  0.25560118  0.00539478  1
  V  V15  1  0.73544086  0.00106032  0.74306465  1
  V  V16  1  0.37467367  0.62411769  0.25108875  1
  V  V17  1  0.11064257  0.74698228  0.37455158  1
  V  V18  1  0.24765659  0.86922555  0.12372746  1
  V  V19  1  0.49706608  0.24622189  0.25029734  1
  V  V20  1  0.13334991  0.37263164  0.24430499  1
  V  V21  1  0.37083983  0.75833302  0.61785171  1
  V  V22  1  0.37089552  0.00039950  0.88100358  1
  V  V23  1  0.37234167  0.62404307  0.74553394  1
  V  V24  1  0.87468213  0.12538464  0.25191619  1
  V  V25  1  0.38028810  0.12651282  0.74938988  1
  V  V26  1  0.38115992  0.24872707  0.62651834  1
  V  V27  1  0.00001607  -0.00305758  0.00000233  1
  V  V28  1  0.88733677  0.12747051  0.74450254  1
  V  V29  1  0.88847985  0.74983965  0.12213401  1
  V  V30  1  0.11961987  0.00958812  0.62718973  1
  V  V31  1  0.75333228  0.12066651  0.37975197  1
  V  V32  1  0.62434068  0.11931716  0.51563955  1
  V  V33  1  0.11636231  0.24998534  0.87089195  1
  V  V34  1  0.62566758  -0.00049174  0.12573743  1
  V  V35  1  0.49959857  0.62293339  0.62407742  1
  V  V36  1  0.87538251  0.37714928  -0.00124603  1
  V  V37  1  0.62173927  0.25213124  0.87555870  1
  V  V38  1  0.50176005  0.74857525  0.24890101  1
  V  V39  1  0.11187417  0.87249538  0.25544199  1
  V  V40  1  0.62223887  0.38397623  0.74690138  1
  V  V41  1  0.74980176  -0.00166945  0.25238128  1
  V  V42  1  0.13046970  0.49529979  0.12098625  1
  V  V43  1  0.00100258  0.12689301  0.12063867  1
  V  V44  1  0.49733519  -0.00585498  0.00272793  1
  V  V45  1  0.01755776  0.50242991  0.50304752  1
  V  V46  1  0.11422076  0.37883344  0.74520034  1
  V  V47  1  0.37153091  0.74612458  0.11803989  1
  V  V48  1  0.24337464  0.12666918  0.88066683  1
  V  V49  1  0.26061458  0.00039231  0.25454936  1
  V  V50  1  0.24583264  0.75795093  0.49742674  1
  V  V51  1  0.88257463  -0.01199193  0.37600498  1
  V  V52  1  0.86970130  0.63118464  0.74304615  1
  V  V53  1  0.36920529  0.37880446  0.00486546  1
  V  V54  1  0.25179431  0.24829553  0.50163359  1
  V  V55  1  0.74503721  0.86850004  0.63155912  1
  V  V56  1  0.12172551  0.63039555  0.00000032  1
  V  V57  1  0.62103671  0.49508191  0.11770295  1
  V  V58  1  0.24915923  0.38229453  0.62563814  1
  V  V59  1  0.37643237  0.49895698  0.37485987  1
  V  V60  1  0.24734421  0.62621275  0.38029238  1
  V  V61  1  0.13084635  0.87457529  0.74084243  1
  V  V62  1  0.12506509  0.00251671  0.12425735  1
  V  V63  1  0.37532696  0.50075204  0.87737821  1
  V  V64  1  0.24231860  0.25154089  0.00312470  1
  V  V65  1  0.25106614  -0.00063410  0.74299805  1
  V  V66  1  -0.00043046  -0.00214590  0.50276405  1
  V  V67  1  0.50206025  0.37351516  0.37578758  1
  V  V68  1  0.87070436  0.50926880  0.87312258  1
  V  V69  1  0.62978237  0.62353442  0.50663683  1
  V  V70  1  0.49825166  0.61664301  0.11548009  1
  V  V71  1  0.62695936  0.87102771  0.24862491  1
  V  V72  1  0.12553094  0.24410183  0.37441758  1
  V  V73  1  0.74903812  0.62326507  0.36745269  1
  V  V74  1  0.49708288  0.37679919  0.87861682  1
  V  V75  1  0.50614632  0.49937798  0.50105100  1
  V  V76  1  0.75489010  0.49625275  0.24290634  1
  V  V77  1  0.49467044  0.88505043  0.37539518  1
  V  V78  1  0.62316650  0.12609764  0.00224843  1
  V  V79  1  0.00206488  0.37540062  0.37437538  1
  V  V80  1  0.62686081  0.24520372  0.37640640  1
  V  V81  1  0.87329627  -0.00147720  0.87691137  1
  V  V82  1  0.87548342  0.37709985  0.50282112  1
  V  V83  1  0.62549650  0.75055263  0.37394730  1
  V  V84  1  0.26502716  0.12117677  0.37261554  1
  Zn  Zn85  1  0.75038627  0.24934197  0.50794890  1
  Zn  Zn86  1  0.88510354  0.63241435  0.25213441  1
  Zn  Zn87  1  0.50625198  0.75622239  0.74863039  1
  Zn  Zn88  1  -0.00593222  0.37260565  0.86903891  1
  Zn  Zn89  1  0.00021896  0.50114089  -0.00116335  1
  Zn  Zn90  1  0.75292618  0.74004086  -0.00834423  1
  Zn  Zn91  1  0.88540780  0.25731716  0.64092332  1
  Zn  Zn92  1  0.63138713  0.62329226  -0.01296715  1
  Zn  Zn93  1  0.36822606  0.88518176  0.49374703  1
  Zn  Zn94  1  0.88111595  0.86970705  0.50542706  1
  Zn  Zn95  1  -0.00052090  0.24883271  0.25190906  1
  Zn  Zn96  1  0.12573424  0.12393044  0.50484080  1
  Zn  Zn97  1  0.24184058  0.50191417  0.74508026  1
  Zn  Zn98  1  0.87872150  0.50198512  0.37184222  1
  Zn  Zn99  1  0.36871987  0.86801954  0.00170350  1
  Zn  Zn100  1  0.37735729  0.37531315  0.50237583  1
  Zn  Zn101  1  0.74302175  0.50762086  0.75255234  1
  Zn  Zn102  1  0.50531809  0.87444808  0.86437840  1
  Zn  Zn103  1  0.00734134  0.62614481  0.13669682  1
  Zn  Zn104  1  0.50379828  0.24647001  0.74656817  1
  Zn  Zn105  1  0.25289897  0.49524086  0.24610667  1
  Zn  Zn106  1  0.63175522  0.75112818  0.86618108  1
  Zn  Zn107  1  0.18706175  0.18343747  0.18977642  1
  Zn  Zn108  1  0.19079668  0.19097297  0.69196146  1
  Zn  Zn109  1  0.18562509  0.68647355  0.19190167  1
  Zn  Zn110  1  0.19114600  0.69012108  0.68729950  1
  Zn  Zn111  1  0.68762253  0.18594377  0.18825826  1
  Zn  Zn112  1  0.69622234  0.19637400  0.69079065  1
  Zn  Zn113  1  0.70145440  0.67310487  0.15619045  1
  Zn  Zn114  1  0.68460976  0.69139025  0.68944107  1
  Zn  Zn115  1  0.31409980  0.31048068  0.31491314  1
  Zn  Zn116  1  0.30727954  0.31344118  0.81150209  1
  Zn  Zn117  1  0.31064946  0.81232296  0.30982676  1
  Zn  Zn118  1  0.33896646  0.82670810  0.79595578  1
  Zn  Zn119  1  0.81437094  0.31148516  0.31848827  1
  Zn  Zn120  1  0.80900842  0.31347497  0.81406461  1
  Zn  Zn121  1  0.81344900  0.80977095  0.30762299  1
  Zn  Zn122  1  0.80970324  0.81350368  0.81239505  1
  Zn  Zn123  1  0.19126298  0.43304388  0.43394839  1
  Zn  Zn124  1  0.18745179  0.43730160  0.93369375  1
  Zn  Zn125  1  0.18249512  0.93655170  0.43516987  1
  Zn  Zn126  1  0.18597833  0.93773139  0.93857836  1
  Zn  Zn127  1  0.68896455  0.43827932  0.43521019  1
  Zn  Zn128  1  0.69080922  0.43876711  0.93587983  1
  Zn  Zn129  1  0.68544773  0.93529446  0.44267116  1
  Zn  Zn130  1  0.68586767  0.93298005  0.93209892  1
  Zn  Zn131  1  0.30848412  0.06613320  0.06572075  1
  Zn  Zn132  1  0.31361324  0.06405854  0.56330615  1
  Zn  Zn133  1  0.30761788  0.56280113  0.05953818  1
  Zn  Zn134  1  0.31234472  0.56377564  0.55739865  1
  Zn  Zn135  1  0.81450119  0.06421921  0.06107454  1
  Zn  Zn136  1  0.81405355  0.05854787  0.56570985  1
  Zn  Zn137  1  0.81624821  0.56189523  0.06658464  1
  Zn  Zn138  1  0.81899191  0.56074042  0.56468056  1
  Zn  Zn139  1  0.43856228  0.43316693  0.18873308  1
  Zn  Zn140  1  0.43702940  0.43846649  0.68877029  1
  Zn  Zn141  1  0.43692506  0.93315954  0.18690832  1
  Zn  Zn142  1  0.43573027  0.94002720  0.68354475  1
  Zn  Zn143  1  0.94484735  0.44008742  0.18696334  1
  Zn  Zn144  1  0.93730135  0.44490681  0.68528666  1
  Zn  Zn145  1  0.93565399  0.93766776  0.18802291  1
  Zn  Zn146  1  0.93228910  0.93857201  0.68602011  1
  Zn  Zn147  1  0.06197281  0.06200868  0.31228740  1
  Zn  Zn148  1  0.06349992  0.06287939  0.81380306  1
  Zn  Zn149  1  0.06498767  0.56021870  0.31067343  1
  Zn  Zn150  1  0.05703297  0.56171303  0.81500034  1
  Zn  Zn151  1  0.56228894  0.06130580  0.31469288  1
  Zn  Zn152  1  0.55937219  0.06181372  0.81737137  1
  Zn  Zn153  1  0.56500686  0.56118880  0.30882508  1
  Zn  Zn154  1  0.55811772  0.56684960  0.81452167  1
  Zn  Zn155  1  0.44068429  0.18318856  0.44221130  1
  Zn  Zn156  1  0.43434050  0.18817965  0.94135930  1
  Zn  Zn157  1  0.43810031  0.68982235  0.43687016  1
  Zn  Zn158  1  0.44378447  0.68741512  0.93539654  1
  Zn  Zn159  1  0.95614713  0.20222739  0.47856534  1
  Zn  Zn160  1  0.93570659  0.18441925  0.93905040  1
  Zn  Zn161  1  0.93712816  0.67964903  0.43809417  1
  Zn  Zn162  1  0.93547003  0.69199692  0.93607398  1
  Zn  Zn163  1  0.05995008  0.31314306  0.06170209  1
  Zn  Zn164  1  0.06338320  0.31278599  0.56674201  1
  Zn  Zn165  1  0.06637881  0.81615522  0.05820782  1
  Zn  Zn166  1  0.06325092  0.81624887  0.55993522  1
  Zn  Zn167  1  0.55604513  0.31477236  0.06207338  1
  Zn  Zn168  1  0.56544195  0.31065409  0.56303810  1
  Zn  Zn169  1  0.56540837  0.80953663  0.05706793  1
  Zn  Zn170  1  0.56591758  0.81205796  0.56574609  1
  O  O171  1  0.11371883  0.11448648  0.13236568  1
  O  O172  1  0.13185200  0.11351841  0.62807694  1
  O  O173  1  0.12721794  0.62144984  0.11566564  1
  O  O174  1  0.11554770  0.62371666  0.63141264  1
  O  O175  1  0.61739254  0.11922754  0.12055389  1
  O  O176  1  0.63112880  0.13396834  0.61324350  1
  O  O177  1  0.60755863  0.60796161  0.14016818  1
  O  O178  1  0.61786164  0.62661955  0.61253009  1
  O  O179  1  0.38343673  0.38039951  0.37773388  1
  O  O180  1  0.37783061  0.38139666  0.87858239  1
  O  O181  1  0.39077222  0.86700033  0.37501131  1
  O  O182  1  0.36240557  0.89328966  0.88805412  1
  O  O183  1  0.89025914  0.37884664  0.37618753  1
  O  O184  1  0.87517316  0.38039640  0.88267390  1
  O  O185  1  0.86649266  0.88577815  0.37726093  1
  O  O186  1  0.89055016  0.88431502  0.86476209  1
  O  O187  1  0.24565317  0.00541284  0.36333578  1
  O  O188  1  0.25097619  0.00992061  0.87170656  1
  O  O189  1  0.25802277  0.50722447  0.37454845  1
  O  O190  1  0.25922628  0.50770534  0.87136965  1
  O  O191  1  0.75259849  0.00481583  0.37157849  1
  O  O192  1  0.75779258  0.00351053  0.86912764  1
  O  O193  1  0.74852159  0.50746248  0.36279356  1
  O  O194  1  0.76448528  0.49869891  0.87192572  1
  O  O195  1  0.23668253  0.50351729  0.12722894  1
  O  O196  1  0.25456337  0.48616290  0.62076358  1
  O  O197  1  0.24180771  0.99729032  0.13554507  1
  O  O198  1  0.24576035  1.00321717  0.63825476  1
  O  O199  1  0.74037691  0.49579452  0.13854363  1
  O  O200  1  0.75373810  0.48834715  0.62931322  1
  O  O201  1  0.74931042  0.99425352  0.13179935  1
  O  O202  1  0.74651049  0.99709615  0.63872935  1
  O  O203  1  0.01075478  0.37228306  0.25944669  1
  O  O204  1  0.00996427  0.37366532  0.74609280  1
  O  O205  1  0.01347247  0.87860868  0.24847921  1
  O  O206  1  0.00787270  0.86953228  0.75320624  1
  O  O207  1  0.50999539  0.36620670  0.25776228  1
  O  O208  1  0.50369664  0.37187049  0.76010128  1
  O  O209  1  0.50752894  0.87169150  0.25619856  1
  O  O210  1  0.45280804  0.86252155  0.75985323  1
  O  O211  1  0.50546499  0.12925356  0.23879025  1
  O  O212  1  0.48502859  0.12655547  0.75751526  1
  O  O213  1  0.48764872  0.62759591  0.24805587  1
  O  O214  1  0.48870405  0.62450103  0.73759372  1
  O  O215  1  0.99200290  0.12540025  0.24048259  1
  O  O216  1  0.98620050  0.12200756  0.75323241  1
  O  O217  1  0.99889247  0.62470285  0.25072566  1
  O  O218  1  0.99717379  0.63262767  0.74269062  1
  O  O219  1  0.36433049  0.25629828  0.00812654  1
  O  O220  1  0.36747190  0.24879872  0.50723261  1
  O  O221  1  0.37549134  0.74603143  0.01443215  1
  O  O222  1  0.36593560  0.74979739  0.50330505  1
  O  O223  1  0.86686366  0.25498618  0.00655112  1
  O  O224  1  0.86409336  0.27160758  0.48190714  1
  O  O225  1  0.87166693  0.74847751  0.01462578  1
  O  O226  1  0.86286750  0.74801405  0.49457577  1
  O  O227  1  0.13878378  0.24911339  0.49327892  1
  O  O228  1  0.13702970  0.25886546  0.99329093  1
  O  O229  1  0.13070016  0.75655697  0.48374260  1
  O  O230  1  0.12420198  0.74485546  0.98825417  1
  O  O231  1  0.62613417  0.23769476  0.49263080  1
  O  O232  1  0.63045828  0.24783196  0.99871479  1
  O  O233  1  0.63417439  0.74074678  0.49359310  1
  O  O234  1  0.63188693  0.74292113  1.00109930  1
  O  O235  1  0.49090026  0.24174503  0.12821030  1
  O  O236  1  0.48550604  0.25433261  0.62560043  1
  O  O237  1  0.49183881  0.74043916  0.13202215  1
  O  O238  1  0.49013891  0.73826953  0.61873243  1
  O  O239  1  0.99223932  0.24138185  0.12521565  1
  O  O240  1  0.98308020  0.24086899  0.58657813  1
  O  O241  1  0.99082485  0.75587677  0.12067495  1
  O  O242  1  1.00799878  0.74441492  0.63446809  1
  O  O243  1  0.01066024  0.25697892  0.38046461  1
  O  O244  1  0.01321808  0.24955869  0.88397776  1
  O  O245  1  0.01211432  0.74544197  0.37989039  1
  O  O246  1  0.00847695  0.75818743  0.86476016  1
  O  O247  1  0.51032839  0.24959519  0.37240153  1
  O  O248  1  0.50464104  0.25696046  0.87560457  1
  O  O249  1  0.50836078  0.75474728  0.36925878  1
  O  O250  1  0.49494608  0.75610242  0.86783106  1
  O  O251  1  0.24759562  0.12981080  0.49162030  1
  O  O252  1  0.25206987  0.13436187  0.98953972  1
  O  O253  1  0.25330038  0.63312942  0.48556578  1
  O  O254  1  0.24049816  0.62427886  0.98514216  1
  O  O255  1  0.74128254  0.12399722  0.49576629  1
  O  O256  1  0.74476208  0.13414638  0.99544603  1
  O  O257  1  0.74518365  0.62738458  0.49497133  1
  O  O258  1  0.73446456  0.63316394  1.04370109  1
  O  O259  1  0.26092800  0.36645689  -0.00618934  1
  O  O260  1  0.25384622  0.36551308  0.50559219  1
  O  O261  1  0.24737581  0.88148784  0.01944256  1
  O  O262  1  0.25274143  0.86364674  0.49046595  1
  O  O263  1  0.75899786  0.36310971  -0.00239289  1
  O  O264  1  0.75506423  0.37780871  0.50720239  1
  O  O265  1  0.75288080  0.88676669  0.01474660  1
  O  O266  1  0.75249117  0.86501317  0.50580475  1
  O  O267  1  0.12940803  0.48934729  0.24224471  1
  O  O268  1  0.12404960  0.48338612  0.75616920  1
  O  O269  1  0.12907099  0.98908506  0.24372904  1
  O  O270  1  0.13075849  0.99486031  0.74591603  1
  O  O271  1  0.63012920  0.48784863  0.24550645  1
  O  O272  1  0.62258382  0.48767866  0.75426735  1
  O  O273  1  0.62987964  0.99346249  0.24402871  1
  O  O274  1  0.63728791  1.00336197  0.75689707  1
  O  O275  1  0.35934976  -0.00487478  0.24636162  1
  O  O276  1  0.36672971  0.00839254  0.75801914  1
  O  O277  1  0.37429378  0.50495979  0.25692472  1
  O  O278  1  0.36967669  0.51025072  0.75420617  1
  O  O279  1  0.86980782  0.00504476  0.25796338  1
  O  O280  1  0.86928901  0.01078521  0.76040383  1
  O  O281  1  0.86687240  0.49851904  0.25030642  1
  O  O282  1  0.87530440  0.51259928  0.75643491  1
  O  O283  1  0.11946562  0.36437296  0.36992982  1
  O  O284  1  0.12190749  0.36822321  0.86336255  1
  O  O285  1  0.12606148  0.86456874  0.36248479  1
  O  O286  1  0.11779725  0.87118347  0.86736997  1
  O  O287  1  0.62154195  0.36374687  0.37033654  1
  O  O288  1  0.61508309  0.37244038  0.87292345  1
  O  O289  1  0.61843033  0.86934128  0.36952228  1
  O  O290  1  0.61618615  0.86999012  0.87955376  1
  O  O291  1  0.38241567  0.13537074  0.12277162  1
  O  O292  1  0.36684989  0.13521591  0.63750045  1
  O  O293  1  0.37778530  0.62627231  0.13208512  1
  O  O294  1  0.38014534  0.62850837  0.62777015  1
  O  O295  1  0.88022960  0.13417280  0.13040970  1
  O  O296  1  0.86920972  0.12464163  0.64248746  1
  O  O297  1  0.88431313  0.63807150  0.12682435  1
  O  O298  1  0.88974230  0.61987715  0.63835217  1
  O  O299  1  0.25655932  0.24206947  0.11802046  1
  O  O300  1  0.25720651  0.25777089  0.61815917  1
  O  O301  1  0.25817832  0.75762951  0.13478569  1
  O  O302  1  0.25649059  0.74243973  0.60886521  1
  O  O303  1  0.75833427  0.24430393  0.11711430  1
  O  O304  1  0.76089137  0.26532322  0.62465304  1
  O  O305  1  0.75745446  0.76986215  0.12470289  1
  O  O306  1  0.75051802  0.76027879  0.61745083  1
  O  O307  1  0.24625633  0.24308490  0.38201820  1
  O  O308  1  0.24225534  0.24429422  0.88235225  1
  O  O309  1  0.24522206  0.74333863  0.37890389  1
  O  O310  1  0.24065192  0.74515446  0.86681139  1
  O  O311  1  0.73857555  0.24077220  0.37484089  1
  O  O312  1  0.74112949  0.24527977  0.88465592  1
  O  O313  1  0.74408868  0.74302921  0.37904190  1
  O  O314  1  0.75118127  0.75259165  0.87983821  1
  O  O315  1  -0.00476787  0.11412336  0.01230808  1
  O  O316  1  0.01160424  0.10398549  0.48709609  1
  O  O317  1  0.01413755  0.62560195  -0.00186010  1
  O  O318  1  -0.00128970  0.61066293  0.50629891  1
  O  O319  1  0.50249603  0.11755269  0.01073954  1
  O  O320  1  0.51328615  0.11348856  0.49843292  1
  O  O321  1  0.49965061  0.62163632  0.01365638  1
  O  O322  1  0.50878852  0.61922157  0.50213208  1
  O  O323  1  0.50197941  0.38282964  0.49513247  1
  O  O324  1  0.48609425  0.37007929  0.98659309  1
  O  O325  1  0.50357832  0.88814753  0.49424840  1
  O  O326  1  0.49233806  0.88842868  1.00984908  1
  O  O327  1  0.99703319  0.38641806  0.49413602  1
  O  O328  1  0.98485914  0.37440934  0.99759406  1
  O  O329  1  0.99762929  0.88829445  0.50044386  1
  O  O330  1  1.00410285  0.88779275  0.98986942  1
  O  O331  1  0.49652876  0.49510020  0.37974698  1
  O  O332  1  0.48344304  0.49226798  0.86963270  1
  O  O333  1  0.50524246  0.99125665  0.38423919  1
  O  O334  1  0.48834872  0.99872778  0.88592700  1
  O  O335  1  1.00388751  0.49237414  0.38557254  1
  O  O336  1  0.98645382  0.49507116  0.87881924  1
  O  O337  1  0.98934821  0.99925183  0.37697546  1
  O  O338  1  0.99681652  0.99510710  0.88159408  1
  O  O339  1  0.00339691  0.00410351  0.11856826  1
  O  O340  1  0.00868437  -0.00155658  0.61935100  1
  O  O341  1  0.01479433  0.50289833  0.11914810  1
  O  O342  1  0.00232240  0.50507200  0.61060513  1
  O  O343  1  0.50178559  0.00694351  0.12234763  1
  O  O344  1  0.50364760  -0.00187594  0.61400949  1
  O  O345  1  0.50651485  0.50445423  0.12989294  1
  O  O346  1  0.49420470  0.51200421  0.61474145  1
  O  O347  1  0.23742558  0.37422311  0.25687094  1
  O  O348  1  0.24102501  0.37835823  0.74117972  1
  O  O349  1  0.24283401  0.88496316  0.24416360  1
  O  O350  1  0.24330557  0.88780561  0.75780572  1
  O  O351  1  0.73882634  0.37877215  0.25820518  1
  O  O352  1  0.74004492  0.37808350  0.74513683  1
  O  O353  1  0.74403161  0.88257828  0.24333424  1
  O  O354  1  0.75584895  0.88912497  0.74058814  1
  O  O355  1  0.24686139  0.10924711  0.25670769  1
  O  O356  1  0.25823867  0.12001049  0.76179351  1
  O  O357  1  0.26149869  0.62369611  0.25928840  1
  O  O358  1  0.25240360  0.62057436  0.75932014  1
  O  O359  1  0.75322372  0.11725050  0.25755650  1
  O  O360  1  0.75194071  0.11485273  0.75699459  1
  O  O361  1  0.75068419  0.61565668  0.25335687  1
  O  O362  1  0.76642800  0.62497632  0.73712234  1
  O  O363  1  0.36434099  0.13119299  0.37397853  1
  O  O364  1  0.36658925  0.11799738  0.87260333  1
  O  O365  1  0.37084856  0.61981036  0.36813905  1
  O  O366  1  0.36852040  0.61968831  0.86857059  1
  O  O367  1  0.86062218  0.11801849  0.37134911  1
  O  O368  1  0.86820822  0.11864065  0.86947469  1
  O  O369  1  0.86030093  0.62281254  0.37242628  1
  O  O370  1  0.88365867  0.62023360  0.85930409  1
  O  O371  1  0.12161769  0.38047231  0.13291907  1
  O  O372  1  0.13248570  0.36901648  0.63754300  1
  O  O373  1  0.12968425  0.87880946  0.13621252  1
  O  O374  1  0.12515767  0.88411912  0.63730349  1
  O  O375  1  0.61663319  0.37954207  0.13590587  1
  O  O376  1  0.63193761  0.36966644  0.63515617  1
  O  O377  1  0.63438924  0.88176073  0.12940715  1
  O  O378  1  0.64471918  0.87822205  0.61635207  1
  O  O379  1  0.12273901  0.25460031  0.25685348  1
  O  O380  1  0.13025938  0.26267041  0.75978805  1
  O  O381  1  0.12869160  0.76292952  0.26043974  1
  O  O382  1  0.12133548  0.75882085  0.75493841  1
  O  O383  1  0.62019516  0.25386932  0.25597565  1
  O  O384  1  0.62353285  0.25914456  0.75943920  1
  O  O385  1  0.62020600  0.75604509  0.25287190  1
  O  O386  1  0.61898588  0.75682759  0.74598791  1
  O  O387  1  0.38107844  0.25637642  0.23816913  1
  O  O388  1  0.37346999  0.24339841  0.74428130  1
  O  O389  1  0.38069185  0.74102473  0.24329241  1
  O  O390  1  0.36369268  0.73251115  0.73433094  1
  O  O391  1  0.87572824  0.24531966  0.24401935  1
  O  O392  1  0.87081630  0.23337090  0.75654784  1
  O  O393  1  0.86968226  0.75036903  0.22977314  1
  O  O394  1  0.88572157  0.73950556  0.75133721  1
  O  O395  1  0.38828177  0.50061525  0.49104944  1
  O  O396  1  0.36851808  0.49098346  0.99161785  1
  O  O397  1  0.39146322  1.00229448  0.50359860  1
  O  O398  1  0.38054256  1.00433290  0.99696408  1
  O  O399  1  0.88137182  0.48988648  0.49382640  1
  O  O400  1  0.87395649  0.49319596  0.99567322  1
  O  O401  1  0.88171046  1.00142217  0.49162731  1
  O  O402  1  0.88230512  1.00494258  0.98576223  1
  O  O403  1  0.11780788  -0.00341795  0.01535843  1
  O  O404  1  0.12173024  -0.00281899  0.51177677  1
  O  O405  1  0.12552478  0.50702822  0.00357935  1
  O  O406  1  0.11604635  0.49547873  0.49705789  1
  O  O407  1  0.61579392  0.00645165  0.00641800  1
  O  O408  1  0.61836131  0.01308648  0.49957321  1
  O  O409  1  0.62935650  0.49701502  0.01460901  1
  O  O410  1  0.61421736  0.50847233  0.49261007  1
  O  O411  1  0.37922740  0.36536588  0.11537880  1
  O  O412  1  0.36733285  0.36759471  0.62519767  1
  O  O413  1  0.36638382  0.86319245  0.12676215  1
  O  O414  1  0.37549837  0.86113657  0.61548919  1
  O  O415  1  0.88049120  0.36290322  0.12029866  1
  O  O416  1  0.87049212  0.37671259  0.61784210  1
  O  O417  1  0.86624323  0.87077703  0.12653995  1
  O  O418  1  0.85540475  0.88514285  0.61983669  1
  O  O419  1  0.13330032  0.13630357  0.37120427  1
  O  O420  1  0.13369124  0.13430761  0.86956462  1
  O  O421  1  0.13457785  0.63895505  0.36736137  1
  O  O422  1  0.13074672  0.63292799  0.87772143  1
  O  O423  1  0.63472829  0.12897660  0.38032813  1
  O  O424  1  0.62790980  0.13147087  0.88373670  1
  O  O425  1  0.63438601  0.62866960  0.38087363  1
  O  O426  1  0.62193657  0.63055295  0.87499782  1
