# generated using pymatgen
data_V85Zn86O256
_symmetry_space_group_name_H-M   'P 1'
_cell_length_a   16.92965382
_cell_length_b   16.92402430
_cell_length_c   16.93202116
_cell_angle_alpha   89.99159923
_cell_angle_beta   90.04673771
_cell_angle_gamma   90.03314951
_symmetry_Int_Tables_number   1
_chemical_formula_structural   V85Zn86O256
_chemical_formula_sum   'V85 Zn86 O256'
_cell_volume   4851.32420342
_cell_formula_units_Z   1
loop_
 _symmetry_equiv_pos_site_id
 _symmetry_equiv_pos_as_xyz
  1  'x, y, z'
loop_
 _atom_site_type_symbol
 _atom_site_label
 _atom_site_symmetry_multiplicity
 _atom_site_fract_x
 _atom_site_fract_y
 _atom_site_fract_z
 _atom_site_occupancy
  V  V0  1  0.49425411  0.11940941  0.62764879  1
  V  V1  1  0.24699244  0.64101192  0.88262919  1
  V  V2  1  0.12369770  0.62619191  0.49885572  1
  V  V3  1  0.37917548  0.01007176  0.88158392  1
  V  V4  1  0.37132928  0.24429152  0.63090409  1
  V  V5  1  0.62483992  0.36744994  0.24970290  1
  V  V6  1  0.87227985  0.76188600  0.13313465  1
  V  V7  1  0.49413471  0.63118683  0.61225417  1
  V  V8  1  0.87513434  0.50203490  0.87450915  1
  V  V9  1  0.49738767  0.37286025  0.38165446  1
  V  V10  1  0.74932937  0.11395830  0.37210108  1
  V  V11  1  0.25023037  0.50372088  0.75295989  1
  V  V12  1  0.00790007  0.01737525  0.00503976  1
  V  V13  1  -0.00165571  0.24428956  0.24657218  1
  V  V14  1  0.49498395  0.23880263  0.75267784  1
  V  V15  1  0.11796535  0.11800366  0.49985342  1
  V  V16  1  0.75843268  0.13030040  0.86810176  1
  V  V17  1  -0.00071804  0.50045073  0.50214829  1
  V  V18  1  0.49709906  0.87433682  0.88255155  1
  V  V19  1  0.61881483  0.37868151  0.74652560  1
  V  V20  1  0.12572536  0.87122793  0.76999538  1
  V  V21  1  0.12613173  0.37767656  0.25256963  1
  V  V22  1  0.50528525  0.88213776  0.36374350  1
  V  V23  1  0.88674865  0.87854015  -0.00163942  1
  V  V24  1  0.87543501  0.11377420  0.24430779  1
  V  V25  1  0.24875450  0.11431823  0.37182648  1
  V  V26  1  0.25006192  0.38322704  0.12862541  1
  V  V27  1  0.00254008  0.75362007  0.76499343  1
  V  V28  1  -0.00089382  0.37213267  0.37593898  1
  V  V29  1  0.37449214  0.24796804  0.12588186  1
  V  V30  1  0.88032235  -0.00205833  0.38080317  1
  V  V31  1  0.11839963  0.74821034  0.36390486  1
  V  V32  1  0.58699469  0.06976654  0.05660741  1
  V  V33  1  0.88243408  0.00319188  0.87338074  1
  V  V34  1  0.75180677  0.75978043  0.00175220  1
  V  V35  1  0.55825465  0.70025741  0.30394652  1
  V  V36  1  0.37769192  0.75622610  0.12373503  1
  V  V37  1  0.63762524  0.89754808  0.23932918  1
  V  V38  1  0.74847020  0.37439310  0.62335628  1
  V  V39  1  0.12838641  0.01669146  0.12961047  1
  V  V40  1  0.37203227  0.11472084  0.24700169  1
  V  V41  1  0.62798626  0.87773073  0.74554105  1
  V  V42  1  0.74588572  0.50294759  0.74909659  1
  V  V43  1  0.37235039  0.50358584  0.87615208  1
  V  V44  1  0.75300296  0.49624258  0.24849198  1
  V  V45  1  0.00099886  0.37658617  0.87568624  1
  V  V46  1  0.49866113  0.37720340  0.87397155  1
  V  V47  1  0.36463961  0.62748709  0.24828743  1
  V  V48  1  0.37442941  0.37476831  0.50017104  1
  V  V49  1  0.12944503  0.87739719  0.24765308  1
  V  V50  1  0.87442270  0.37281732  0.50127441  1
  V  V51  1  0.24868039  0.37396893  0.62512324  1
  V  V52  1  0.74877863  0.62735420  0.87541086  1
  V  V53  1  0.25411608  0.00805844  0.75170547  1
  V  V54  1  0.50005610  0.49696013  0.00021326  1
  V  V55  1  0.87348316  0.50137679  0.37561617  1
  V  V56  1  -0.00196260  0.63300892  0.12696513  1
  V  V57  1  0.24751560  0.24508860  0.49939478  1
  V  V58  1  0.12248103  0.50291637  0.12700258  1
  V  V59  1  0.49703310  0.24344765  0.25089682  1
  V  V60  1  0.87534028  0.24063332  0.12204067  1
  V  V61  1  0.12351014  0.24082837  0.88020333  1
  V  V62  1  -0.00487412  0.11954966  0.63164733  1
  V  V63  1  0.87582843  0.63029367  0.25319265  1
  V  V64  1  0.24754485  0.62177650  0.36968074  1
  V  V65  1  0.62546003  0.11915557  0.50352869  1
  V  V66  1  0.00157668  0.87610739  0.37816690  1
  V  V67  1  0.73930539  0.74874502  0.50038952  1
  V  V68  1  0.62304498  0.75170308  0.87134861  1
  V  V69  1  0.25371090  0.74956046  0.50175047  1
  V  V70  1  -0.00358263  0.63197930  0.62754628  1
  V  V71  1  0.24553884  0.24609180  0.00226074  1
  V  V72  1  0.61501345  0.50460638  0.60724260  1
  V  V73  1  0.50227611  0.63038089  0.12384790  1
  V  V74  1  0.12440004  0.50060775  0.62547575  1
  V  V75  1  0.12422584  -0.00852408  0.62211278  1
  V  V76  1  0.75827131  -0.00151303  0.74387980  1
  V  V77  1  0.62575237  0.24584760  0.37657703  1
  V  V78  1  0.37108583  0.49777000  0.37261333  1
  V  V79  1  0.62683354  0.24932191  0.87682453  1
  V  V80  1  0.25202762  0.88045573  0.12350359  1
  V  V81  1  0.12352862  0.37310293  0.75371769  1
  V  V82  1  0.87408868  0.37491955  0.00230361  1
  V  V83  1  0.26115414  0.86926650  0.62798568  1
  V  V84  1  0.62451592  0.49288240  0.12243524  1
  Zn  Zn85  1  0.49589845  -0.00394702  0.50040862  1
  Zn  Zn86  1  0.75147032  0.24516086  0.50133166  1
  Zn  Zn87  1  0.25286582  0.12860760  0.87477469  1
  Zn  Zn88  1  0.37058876  -0.00720379  0.37235347  1
  Zn  Zn89  1  0.37451838  0.87480952  0.00126487  1
  Zn  Zn90  1  0.12045666  0.63740051  -0.00944385  1
  Zn  Zn91  1  0.87368448  0.63239362  0.74978057  1
  Zn  Zn92  1  0.73387236  0.62616870  0.37919884  1
  Zn  Zn93  1  0.62508889  -0.00189537  0.62846965  1
  Zn  Zn94  1  0.62638229  0.62571607  -0.00008631  1
  Zn  Zn95  1  -0.00495004  0.24175080  0.75383495  1
  Zn  Zn96  1  0.48963012  0.75241890  0.74207321  1
  Zn  Zn97  1  0.75003854  0.36681283  0.12698744  1
  Zn  Zn98  1  0.12344473  0.24637706  0.37415910  1
  Zn  Zn99  1  0.86605495  0.76796012  0.62897623  1
  Zn  Zn100  1  0.38009358  0.87216547  0.49648747  1
  Zn  Zn101  1  0.37370551  0.37452560  0.00204540  1
  Zn  Zn102  1  0.00111345  0.50348238  0.00076349  1
  Zn  Zn103  1  0.87289258  0.24249994  0.62958757  1
  Zn  Zn104  1  0.37222915  0.63712878  0.74201543  1
  Zn  Zn105  1  0.87162485  0.87418879  0.50551439  1
  Zn  Zn106  1  0.75019354  0.24813830  -0.00143653  1
  Zn  Zn107  1  0.19071406  0.19226634  0.19072334  1
  Zn  Zn108  1  0.18070052  0.18579182  0.68766658  1
  Zn  Zn109  1  0.17314110  0.70742264  0.15711115  1
  Zn  Zn110  1  0.18679610  0.68977045  0.69093769  1
  Zn  Zn111  1  0.69898927  0.14395959  0.16967124  1
  Zn  Zn112  1  0.68586115  0.18517006  0.69190779  1
  Zn  Zn113  1  0.69463395  0.68220663  0.18244771  1
  Zn  Zn114  1  0.68276800  0.68815783  0.68186667  1
  Zn  Zn115  1  0.30833482  0.30697589  0.31237354  1
  Zn  Zn116  1  0.31177644  0.31409762  0.81482845  1
  Zn  Zn117  1  0.31341111  0.81043938  0.30479426  1
  Zn  Zn118  1  0.31569457  0.81626070  0.81207833  1
  Zn  Zn119  1  0.81175804  0.30439925  0.31295551  1
  Zn  Zn120  1  0.81510285  0.31553583  0.80622852  1
  Zn  Zn121  1  0.80335096  0.81332160  0.32029471  1
  Zn  Zn122  1  0.81752075  0.81797698  0.81306235  1
  Zn  Zn123  1  0.18789791  0.43770724  0.43577493  1
  Zn  Zn124  1  0.18666657  0.43915449  0.94371183  1
  Zn  Zn125  1  0.18797164  0.93379994  0.43929095  1
  Zn  Zn126  1  0.19251140  0.94371567  0.94500520  1
  Zn  Zn127  1  0.68886048  0.43575439  0.43473586  1
  Zn  Zn128  1  0.68766192  0.43441386  0.93732262  1
  Zn  Zn129  1  0.68533104  0.93109600  0.43627770  1
  Zn  Zn130  1  0.69570138  0.93670439  0.93747750  1
  Zn  Zn131  1  0.31170427  0.06444966  0.06178478  1
  Zn  Zn132  1  0.31296664  0.05611611  0.56065977  1
  Zn  Zn133  1  0.31191356  0.56428559  0.06295138  1
  Zn  Zn134  1  0.31385750  0.56127131  0.55788999  1
  Zn  Zn135  1  0.80126075  0.05895918  0.05552792  1
  Zn  Zn136  1  0.81239127  0.05484607  0.56151885  1
  Zn  Zn137  1  0.81257772  0.56476270  0.06284286  1
  Zn  Zn138  1  0.80884839  0.56902813  0.56217639  1
  Zn  Zn139  1  0.43682979  0.43620332  0.19048103  1
  Zn  Zn140  1  0.43537160  0.44008960  0.68567986  1
  Zn  Zn141  1  0.45690091  0.94525462  0.17589868  1
  Zn  Zn142  1  0.43822772  0.93602766  0.69742577  1
  Zn  Zn143  1  0.93878571  0.43530296  0.18597296  1
  Zn  Zn144  1  0.93568461  0.43765427  0.68887567  1
  Zn  Zn145  1  0.94774761  0.93621329  0.19025479  1
  Zn  Zn146  1  0.94379962  0.93526618  0.68929594  1
  Zn  Zn147  1  0.06124404  0.06073957  0.31120828  1
  Zn  Zn148  1  0.06395550  0.05587750  0.81407276  1
  Zn  Zn149  1  0.05842004  0.56210693  0.30949756  1
  Zn  Zn150  1  0.06412886  0.56643163  0.81319646  1
  Zn  Zn151  1  0.56166987  0.06131681  0.30940490  1
  Zn  Zn152  1  0.58310657  0.04577510  0.85965212  1
  Zn  Zn153  1  0.55684281  0.53877809  0.31122590  1
  Zn  Zn154  1  0.55859422  0.56879187  0.80636225  1
  Zn  Zn155  1  0.43416190  0.18210473  0.43920596  1
  Zn  Zn156  1  0.44233653  0.18416370  0.94522561  1
  Zn  Zn157  1  0.43554594  0.68667405  0.44141267  1
  Zn  Zn158  1  0.43616291  0.68702011  0.93818323  1
  Zn  Zn159  1  0.93663270  0.18590093  0.43868866  1
  Zn  Zn160  1  0.93676904  0.18646970  0.93463154  1
  Zn  Zn161  1  0.93097918  0.69271732  0.43930324  1
  Zn  Zn162  1  0.93545490  0.68783786  0.94182550  1
  Zn  Zn163  1  0.05927301  0.31169992  0.06358946  1
  Zn  Zn164  1  0.06160699  0.30764702  0.56466009  1
  Zn  Zn165  1  0.06255292  0.81650945  0.06255536  1
  Zn  Zn166  1  0.06332189  0.81061209  0.56188205  1
  Zn  Zn167  1  0.58015388  0.27093927  0.08123169  1
  Zn  Zn168  1  0.56087718  0.30643022  0.56322381  1
  Zn  Zn169  1  0.56752336  0.81563333  0.06422919  1
  Zn  Zn170  1  0.56404519  0.81360997  0.55736471  1
  O  O171  1  0.12820194  0.11589203  0.13119500  1
  O  O172  1  0.11971800  0.11400066  0.61817045  1
  O  O173  1  0.11239382  0.60830958  0.14872454  1
  O  O174  1  0.11675634  0.61939671  0.62177594  1
  O  O175  1  0.60085583  0.16313251  0.11927135  1
  O  O176  1  0.61580010  0.12453499  0.61895570  1
  O  O177  1  0.61817504  0.61354611  0.12346134  1
  O  O178  1  0.61337019  0.60929030  0.62777903  1
  O  O179  1  0.37652089  0.37790862  0.37741730  1
  O  O180  1  0.38022442  0.38778034  0.87615721  1
  O  O181  1  0.38902110  0.87334602  0.36722601  1
  O  O182  1  0.38080371  0.88315376  0.88098294  1
  O  O183  1  0.87743750  0.37874780  0.38306743  1
  O  O184  1  0.87990555  0.38355152  0.88121428  1
  O  O185  1  0.88582056  0.88229843  0.36927075  1
  O  O186  1  0.87378180  0.89037792  0.88656401  1
  O  O187  1  0.24902360  0.01025173  0.37613219  1
  O  O188  1  0.25925025  0.00462567  0.87054694  1
  O  O189  1  0.25326157  0.51286391  0.37459267  1
  O  O190  1  0.25640857  0.50036761  0.86895794  1
  O  O191  1  0.75671392  0.00949109  0.37763475  1
  O  O192  1  0.76201779  0.00997561  0.86712599  1
  O  O193  1  0.75191290  0.50309426  0.36373008  1
  O  O194  1  0.75420927  0.50787753  0.87149180  1
  O  O195  1  0.24191327  0.49122715  0.12376901  1
  O  O196  1  0.24465234  0.49539150  0.63232958  1
  O  O197  1  0.23615246  0.99888424  0.12127147  1
  O  O198  1  0.24362349  0.99247143  0.63426983  1
  O  O199  1  0.74649304  0.49682764  0.13512940  1
  O  O200  1  0.73743061  0.49275614  0.62743482  1
  O  O201  1  0.69536131  1.05257572  0.09522089  1
  O  O202  1  0.74651608  1.00379594  0.64048313  1
  O  O203  1  0.00273021  0.36449784  0.25605373  1
  O  O204  1  0.01400616  0.38065874  0.75469780  1
  O  O205  1  0.01780370  0.87629779  0.26063228  1
  O  O206  1  0.01786599  0.86983896  0.75302288  1
  O  O207  1  0.50242561  0.36595013  0.26100342  1
  O  O208  1  0.50407912  0.37058945  0.75344466  1
  O  O209  1  0.51197761  0.88111621  0.25696194  1
  O  O210  1  0.50947286  0.87112519  0.76273583  1
  O  O211  1  0.48980552  0.13820223  0.25870098  1
  O  O212  1  0.50443917  0.13751333  0.74355402  1
  O  O213  1  0.49914854  0.62839128  0.24725897  1
  O  O214  1  0.49466071  0.62826135  0.73565098  1
  O  O215  1  0.99256197  0.13771799  0.25544152  1
  O  O216  1  1.00771447  0.12184149  0.73546630  1
  O  O217  1  0.98318897  0.61970556  0.24308586  1
  O  O218  1  1.00147645  0.63448406  0.74386791  1
  O  O219  1  0.37045413  0.25318987  0.00902513  1
  O  O220  1  0.36211793  0.25208050  0.50666306  1
  O  O221  1  0.38165253  0.74965800  0.01832246  1
  O  O222  1  0.35822106  0.75163539  0.49428155  1
  O  O223  1  0.87790220  0.25774733  0.00594574  1
  O  O224  1  0.87444192  0.26120967  0.50647607  1
  O  O225  1  0.87117811  0.76037212  0.00659671  1
  O  O226  1  0.86957245  0.75319881  0.50882262  1
  O  O227  1  0.13526193  0.24173650  0.50082817  1
  O  O228  1  0.13191417  0.25850816  0.99228776  1
  O  O229  1  0.13350599  0.74254743  0.48904696  1
  O  O230  1  0.13022780  0.73139447  1.05038771  1
  O  O231  1  0.62455001  0.23627733  0.49441138  1
  O  O232  1  0.63230183  0.26739420  0.97973405  1
  O  O233  1  0.63873215  0.74937299  0.50150300  1
  O  O234  1  0.63516965  0.75047091  0.99010938  1
  O  O235  1  0.48050528  0.26562762  0.13832797  1
  O  O236  1  0.49244193  0.24070316  0.63219466  1
  O  O237  1  0.50115598  0.73506913  0.12133107  1
  O  O238  1  0.50652607  0.73476168  0.62157484  1
  O  O239  1  0.98731208  0.25371927  0.13358722  1
  O  O240  1  1.00466867  0.23142856  0.62770285  1
  O  O241  1  0.98605915  0.73933637  0.12830639  1
  O  O242  1  1.00303292  0.74178392  0.63421133  1
  O  O243  1  -0.00006722  0.25595741  0.36857191  1
  O  O244  1  0.00756827  0.25800707  0.87505355  1
  O  O245  1  0.01386805  0.75052751  0.37485241  1
  O  O246  1  -0.00059147  0.74319380  0.86470036  1
  O  O247  1  0.50093858  0.25544524  0.37109372  1
  O  O248  1  0.50572968  0.25624481  0.86844613  1
  O  O249  1  0.50127439  0.75565070  0.36953380  1
  O  O250  1  0.50886879  0.75333455  0.87410945  1
  O  O251  1  0.24167810  0.12918951  0.49531312  1
  O  O252  1  0.25150466  0.14214140  0.99861612  1
  O  O253  1  0.24288347  0.62892557  0.49202955  1
  O  O254  1  0.25091863  0.62179067  0.98470213  1
  O  O255  1  0.74240340  0.12446235  0.49547367  1
  O  O256  1  0.76213360  0.13422508  0.97317870  1
  O  O257  1  0.75091424  0.63349917  0.49314863  1
  O  O258  1  0.75013753  0.63276527  0.98834935  1
  O  O259  1  0.25162794  0.36783559  0.01114714  1
  O  O260  1  0.25237451  0.36517560  0.50441271  1
  O  O261  1  0.25357721  0.87900843  0.01798070  1
  O  O262  1  0.25067624  0.86559922  0.50883397  1
  O  O263  1  0.76387825  0.37314284  -0.00014222  1
  O  O264  1  0.75699535  0.37286467  0.50571128  1
  O  O265  1  0.76244662  0.86647765  -0.00132404  1
  O  O266  1  0.75257379  0.85872501  0.49120386  1
  O  O267  1  0.11652979  0.48360160  0.24687919  1
  O  O268  1  0.13492315  0.49484695  0.74766631  1
  O  O269  1  0.12132869  0.99655036  0.23602663  1
  O  O270  1  0.13191197  0.98722497  0.74608567  1
  O  O271  1  0.63231039  0.48789246  0.24256228  1
  O  O272  1  0.62651219  0.49059875  0.74524030  1
  O  O273  1  0.63115914  0.99890042  0.24651387  1
  O  O274  1  0.63829590  0.99261765  0.75846349  1
  O  O275  1  0.38470580  0.01313559  0.24390307  1
  O  O276  1  0.36187168  -0.00698686  0.76382887  1
  O  O277  1  0.38162020  0.50880906  0.26353397  1
  O  O278  1  0.36169510  0.49917749  0.75611996  1
  O  O279  1  0.88349549  0.00996570  0.25557202  1
  O  O280  1  0.86653491  -0.00679221  0.75896961  1
  O  O281  1  0.86780916  0.50222743  0.25419519  1
  O  O282  1  0.86613826  0.49949705  0.76189994  1
  O  O283  1  0.11950766  0.37111487  0.36896680  1
  O  O284  1  0.12105486  0.37163756  0.86985445  1
  O  O285  1  0.12400295  0.86708692  0.36813744  1
  O  O286  1  0.13309853  0.87816322  0.86810574  1
  O  O287  1  0.61556174  0.36818133  0.37263791  1
  O  O288  1  0.61864511  0.37393069  0.86300734  1
  O  O289  1  0.61273333  0.87914590  0.36054019  1
  O  O290  1  0.62035406  0.86744822  0.86914281  1
  O  O291  1  0.36786017  0.13654813  0.13309714  1
  O  O292  1  0.38167046  0.13182125  0.62104472  1
  O  O293  1  0.38275801  0.62769768  0.13261737  1
  O  O294  1  0.38968718  0.61346630  0.62443229  1
  O  O295  1  0.86895185  0.12711403  0.13213155  1
  O  O296  1  0.89232423  0.12111597  0.61555900  1
  O  O297  1  0.87978944  0.63189641  0.13209981  1
  O  O298  1  0.89016417  0.61650316  0.63072861  1
  O  O299  1  0.25567968  0.26086655  0.12070242  1
  O  O300  1  0.25122838  0.25323910  0.62073011  1
  O  O301  1  0.26791423  0.76758103  0.13678936  1
  O  O302  1  0.24071046  0.75789033  0.61495750  1
  O  O303  1  0.76379018  0.24629346  0.12108337  1
  O  O304  1  0.74672622  0.26364902  0.62429267  1
  O  O305  1  0.76039705  0.74189286  0.11093947  1
  O  O306  1  0.75373845  0.73839385  0.61145623  1
  O  O307  1  0.24661677  0.23931851  0.38536733  1
  O  O308  1  0.24256773  0.25226735  0.88366536  1
  O  O309  1  0.24270688  0.73816298  0.37769243  1
  O  O310  1  0.25407110  0.73922080  0.87696141  1
  O  O311  1  0.74292004  0.23820541  0.37929505  1
  O  O312  1  0.74408236  0.24797600  0.86626579  1
  O  O313  1  0.75532016  0.73891020  0.38939081  1
  O  O314  1  0.74684571  0.74472622  0.88074002  1
  O  O315  1  -0.00201564  0.11558177  0.00456445  1
  O  O316  1  0.01355938  0.12814591  0.50652727  1
  O  O317  1  -0.00007867  0.62282282  0.01184592  1
  O  O318  1  0.00522670  0.62085766  0.50754398  1
  O  O319  1  0.52530845  0.12759581  -0.00631929  1
  O  O320  1  0.50603171  0.12255233  0.50986293  1
  O  O321  1  0.50190594  0.61398792  0.00686061  1
  O  O322  1  0.49749752  0.62187942  0.51160352  1
  O  O323  1  0.48749304  0.36250076  0.49304221  1
  O  O324  1  0.49715061  0.38931668  0.99248899  1
  O  O325  1  0.50143140  0.87463458  0.48253128  1
  O  O326  1  0.50109838  0.87013260  0.98639084  1
  O  O327  1  0.99363968  0.37827805  0.49817769  1
  O  O328  1  0.98924116  0.37963316  0.99490761  1
  O  O329  1  1.00434943  0.86832993  0.48198507  1
  O  O330  1  0.99089190  0.88316604  1.00487868  1
  O  O331  1  0.48900427  0.48156375  0.37865580  1
  O  O332  1  0.49219297  0.50092465  0.88000782  1
  O  O333  1  0.49661960  0.99077900  0.37497183  1
  O  O334  1  0.48329073  0.99132693  0.86465504  1
  O  O335  1  0.99435411  0.49208174  0.38283669  1
  O  O336  1  0.99139781  0.49728160  0.87545935  1
  O  O337  1  0.99312691  0.99090492  0.37256265  1
  O  O338  1  0.99671423  1.00436580  0.89172114  1
  O  O339  1  0.01359572  -0.00135099  0.11473128  1
  O  O340  1  0.01271780  0.00910266  0.62778615  1
  O  O341  1  0.00451905  0.50780551  0.12402806  1
  O  O342  1  0.00697619  0.50484645  0.62104776  1
  O  O343  1  0.52224240  0.01269921  0.10885968  1
  O  O344  1  0.49990231  0.01084159  0.63019006  1
  O  O345  1  0.50239834  0.50599067  0.11887729  1
  O  O346  1  0.51089720  0.50185523  0.62450805  1
  O  O347  1  0.23816403  0.36817769  0.24206210  1
  O  O348  1  0.23959062  0.38158030  0.74693238  1
  O  O349  1  0.23980096  0.87904979  0.24399359  1
  O  O350  1  0.23912419  0.88014299  0.74452153  1
  O  O351  1  0.74566302  0.37936690  0.25140627  1
  O  O352  1  0.73928094  0.38309273  0.74104396  1
  O  O353  1  0.73549288  0.87690931  0.25490269  1
  O  O354  1  0.74323371  0.88871493  0.75860138  1
  O  O355  1  0.25874179  0.13205396  0.26112913  1
  O  O356  1  0.24265014  0.11171672  0.75133677  1
  O  O357  1  0.26099520  0.62762144  0.25467718  1
  O  O358  1  0.25046536  0.61803553  0.75947931  1
  O  O359  1  0.76341670  0.12870009  0.26081502  1
  O  O360  1  0.75215763  0.11200702  0.75385279  1
  O  O361  1  0.75937854  0.61400555  0.25271753  1
  O  O362  1  0.74945615  0.62127707  0.75997532  1
  O  O363  1  0.36569630  0.12177747  0.36705871  1
  O  O364  1  0.37560886  0.11448230  0.87704581  1
  O  O365  1  0.36870358  0.61809512  0.36984778  1
  O  O366  1  0.36594596  0.61577712  0.87267318  1
  O  O367  1  0.86974544  0.11798168  0.36965414  1
  O  O368  1  0.87583324  0.11396713  0.86933160  1
  O  O369  1  0.88048964  0.61508308  0.36711921  1
  O  O370  1  0.86707402  0.61830908  0.87374924  1
  O  O371  1  0.12742721  0.38446782  0.13153277  1
  O  O372  1  0.12947606  0.37882326  0.63279473  1
  O  O373  1  0.13369146  0.88478093  0.13244635  1
  O  O374  1  0.13199787  0.88305153  0.62613442  1
  O  O375  1  0.62775258  0.37208473  0.13193341  1
  O  O376  1  0.62676477  0.38255247  0.62768333  1
  O  O377  1  0.62332151  0.87524824  0.14076825  1
  O  O378  1  0.61596641  0.87802951  0.64153530  1
  O  O379  1  0.11509482  0.25924065  0.24926661  1
  O  O380  1  0.12260130  0.25899881  0.75941623  1
  O  O381  1  0.13161777  0.75990609  0.25546820  1
  O  O382  1  0.12072551  0.76459134  0.75090441  1
  O  O383  1  0.61318550  0.25330240  0.26030631  1
  O  O384  1  0.61609630  0.26345796  0.75217545  1
  O  O385  1  0.62420874  0.74999048  0.24669320  1
  O  O386  1  0.62811268  0.75701552  0.76072676  1
  O  O387  1  0.37854398  0.24300832  0.24503525  1
  O  O388  1  0.38267162  0.25628939  0.74408720  1
  O  O389  1  0.38150631  0.73785025  0.24023178  1
  O  O390  1  0.37471685  0.75115530  0.74546086  1
  O  O391  1  0.88089100  0.24081174  0.24238728  1
  O  O392  1  0.88499673  0.26292540  0.73990913  1
  O  O393  1  0.86372428  0.74173458  0.24342379  1
  O  O394  1  0.88563853  0.75196140  0.74774969  1
  O  O395  1  0.36567437  0.48832497  0.48452853  1
  O  O396  1  0.38131321  0.49963089  0.99251403  1
  O  O397  1  0.37727132  0.99243113  0.49331623  1
  O  O398  1  0.37139500  0.99954511  0.98563183  1
  O  O399  1  0.87836259  0.49039444  0.49606529  1
  O  O400  1  0.87392393  0.49481407  0.98994207  1
  O  O401  1  0.87342193  0.99698095  0.48437869  1
  O  O402  1  0.88335020  0.99704116  0.99823112  1
  O  O403  1  0.11501426  0.00213562  0.01011847  1
  O  O404  1  0.13161180  0.00647952  0.51030524  1
  O  O405  1  0.12216915  0.50701111  0.01309070  1
  O  O406  1  0.11987551  0.50568411  0.50478293  1
  O  O407  1  0.61806687  0.01096241  -0.03165097  1
  O  O408  1  0.62225336  0.00859010  0.50365250  1
  O  O409  1  0.61852460  0.49967775  0.00519385  1
  O  O410  1  0.62443901  0.49568327  0.50922147  1
  O  O411  1  0.36349480  0.37264958  0.12752721  1
  O  O412  1  0.36683367  0.36867486  0.62000167  1
  O  O413  1  0.37603514  0.87333931  0.12683499  1
  O  O414  1  0.36335124  0.87971686  0.62490513  1
  O  O415  1  0.87307463  0.36711154  0.11700801  1
  O  O416  1  0.86371489  0.38134067  0.61632024  1
  O  O417  1  0.88019603  0.86642069  0.12341682  1
  O  O418  1  0.87986505  0.88122126  0.61937783  1
  O  O419  1  0.12988097  0.12479520  0.38196239  1
  O  O420  1  0.12609931  0.13816730  0.87151289  1
  O  O421  1  0.12998454  0.62885655  0.37406651  1
  O  O422  1  0.14104093  0.62381862  0.87591135  1
  O  O423  1  0.63111325  0.12557379  0.38190971  1
  O  O424  1  0.63998994  0.14321820  0.85859321  1
  O  O425  1  0.61218791  0.63096723  0.35762519  1
  O  O426  1  0.63155967  0.63258810  0.87573451  1
