# generated using pymatgen
data_V85Zn86O256
_symmetry_space_group_name_H-M   'P 1'
_cell_length_a   16.93312201
_cell_length_b   16.94158788
_cell_length_c   16.93460470
_cell_angle_alpha   90.07052459
_cell_angle_beta   90.03669521
_cell_angle_gamma   89.97592356
_symmetry_Int_Tables_number   1
_chemical_formula_structural   V85Zn86O256
_chemical_formula_sum   'V85 Zn86 O256'
_cell_volume   4858.09225220
_cell_formula_units_Z   1
loop_
 _symmetry_equiv_pos_site_id
 _symmetry_equiv_pos_as_xyz
  1  'x, y, z'
loop_
 _atom_site_type_symbol
 _atom_site_label
 _atom_site_symmetry_multiplicity
 _atom_site_fract_x
 _atom_site_fract_y
 _atom_site_fract_z
 _atom_site_occupancy
  V  V0  1  0.75444433  0.23872708  -0.00274073  1
  V  V1  1  0.01039673  0.37379483  0.86895153  1
  V  V2  1  0.24868162  0.50608394  0.26601868  1
  V  V3  1  0.63084700  0.24433326  0.87583557  1
  V  V4  1  0.50167197  -0.00251168  0.50740728  1
  V  V5  1  0.00135257  0.62982616  0.13026038  1
  V  V6  1  0.38301721  0.25252670  0.11947757  1
  V  V7  1  0.86647254  -0.00705974  0.36902320  1
  V  V8  1  0.62435696  0.37588343  0.75087617  1
  V  V9  1  0.13016222  0.49993079  0.12935858  1
  V  V10  1  0.62082085  -0.00122271  0.13272282  1
  V  V11  1  0.37250892  0.12615221  0.75010643  1
  V  V12  1  0.25113103  0.36848244  0.12405033  1
  V  V13  1  0.74689107  0.37394214  0.62350766  1
  V  V14  1  0.73744995  -0.00201830  0.74590134  1
  V  V15  1  0.62554010  0.75505036  0.87124254  1
  V  V16  1  -0.00096288  -0.00547961  0.49021306  1
  V  V17  1  0.25114500  0.74678475  0.48156952  1
  V  V18  1  0.50426202  0.88106177  0.87536607  1
  V  V19  1  0.11270458  0.87176476  0.25265804  1
  V  V20  1  0.24418445  0.50690254  0.75803722  1
  V  V21  1  0.12414585  -0.00282371  0.62007133  1
  V  V22  1  0.37564707  0.13587555  0.25617812  1
  V  V23  1  0.61967705  0.50145636  0.62414282  1
  V  V24  1  0.87868451  0.62836793  0.73335155  1
  V  V25  1  0.75131707  0.61977703  0.37186707  1
  V  V26  1  0.86779789  0.00009934  0.87215958  1
  V  V27  1  0.50048279  0.25038382  0.75159575  1
  V  V28  1  0.84620169  0.57781038  0.21322833  1
  V  V29  1  0.87765899  0.75275238  0.13626030  1
  V  V30  1  0.73446588  0.87441772  0.62718187  1
  V  V31  1  0.12096038  0.50878108  0.62819220  1
  V  V32  1  0.74851925  0.75511657  0.00055337  1
  V  V33  1  0.37527728  0.25144227  0.62272816  1
  V  V34  1  0.62059254  0.62183844  0.49558776  1
  V  V35  1  0.00941412  0.24958834  0.74653989  1
  V  V36  1  0.12358246  0.87349757  0.75041168  1
  V  V37  1  0.38318183  0.38817401  0.50442088  1
  V  V38  1  -0.00264504  0.12254246  0.12321560  1
  V  V39  1  0.74512995  0.87962839  0.14350568  1
  V  V40  1  0.12600497  0.00232414  0.12250961  1
  V  V41  1  0.49813973  0.62286021  0.62328779  1
  V  V42  1  0.87776508  0.50134266  0.86990837  1
  V  V43  1  0.87391877  0.37213715  0.49888472  1
  V  V44  1  0.24211317  0.37654873  0.63071552  1
  V  V45  1  0.13059141  0.36643709  0.26201006  1
  V  V46  1  0.37928132  0.50764741  0.87806337  1
  V  V47  1  0.36941777  0.75259896  0.62407519  1
  V  V48  1  0.10535950  0.74375874  0.36714028  1
  V  V49  1  -0.00055212  0.87131787  0.87240468  1
  V  V50  1  0.74093239  0.24872229  0.49247684  1
  V  V51  1  0.87642569  0.87124456  0.50571514  1
  V  V52  1  0.50793865  0.87756171  0.36537968  1
  V  V53  1  0.87275540  0.24897543  0.12739475  1
  V  V54  1  0.62286417  0.12144125  0.50211268  1
  V  V55  1  0.75413472  0.74704905  0.50510337  1
  V  V56  1  0.51425431  0.37424456  0.36522367  1
  V  V57  1  0.13757362  0.62446835  0.00121350  1
  V  V58  1  0.50220573  0.75583768  0.74790775  1
  V  V59  1  0.49641205  0.37602275  0.88207970  1
  V  V60  1  0.87333456  0.87202887  -0.00178112  1
  V  V61  1  0.00366465  0.24448341  0.25977172  1
  V  V62  1  0.00403363  0.50038199  -0.00097849  1
  V  V63  1  0.61884783  0.61338915  0.00347299  1
  V  V64  1  0.74979758  0.50136869  0.74862560  1
  V  V65  1  0.87140530  0.24762443  0.62447794  1
  V  V66  1  0.24975978  -0.00097528  0.75002621  1
  V  V67  1  0.63989124  0.37800892  0.23585275  1
  V  V68  1  0.38093663  0.87788047  0.00229910  1
  V  V69  1  0.75084840  0.62754495  0.87092584  1
  V  V70  1  -0.00006068  0.50699097  0.50335809  1
  V  V71  1  0.87713344  0.37230336  -0.00393512  1
  V  V72  1  0.25136702  0.87578415  0.12737543  1
  V  V73  1  0.37020900  0.00301572  0.37433441  1
  V  V74  1  0.74203757  0.12265316  0.36496449  1
  V  V75  1  0.38220625  0.75100962  0.12790049  1
  V  V76  1  0.50286920  0.12702927  0.12088436  1
  V  V77  1  0.37616913  0.62903428  0.26076665  1
  V  V78  1  0.13144550  0.74485744  0.87509676  1
  V  V79  1  -0.00500485  0.12035139  0.61935699  1
  V  V80  1  -0.00124556  0.74564495  0.73448650  1
  V  V81  1  -0.00064024  -0.00212652  -0.00338967  1
  V  V82  1  0.86897746  0.12271184  0.75280313  1
  V  V83  1  0.87570436  0.49784387  0.37419705  1
  V  V84  1  0.37568059  0.00294458  0.88268317  1
  Zn  Zn85  1  0.42312757  0.42120940  0.03841991  1
  Zn  Zn86  1  0.12553068  0.62318566  0.49341996  1
  Zn  Zn87  1  0.86784647  0.11817116  0.24807851  1
  Zn  Zn88  1  0.24960849  0.25109868  -0.00528507  1
  Zn  Zn89  1  0.75884854  0.40265897  0.12672413  1
  Zn  Zn90  1  0.62318873  0.11809537  -0.00305296  1
  Zn  Zn91  1  0.24636817  0.12898924  0.87635949  1
  Zn  Zn92  1  0.51045971  0.74828627  0.24616588  1
  Zn  Zn93  1  0.50545988  0.60349359  0.12848362  1
  Zn  Zn94  1  0.50399319  0.12039418  0.62725230  1
  Zn  Zn95  1  0.12902928  0.13199818  0.47389531  1
  Zn  Zn96  1  0.24516939  0.25013943  0.48012366  1
  Zn  Zn97  1  0.63103599  0.75543626  0.36745968  1
  Zn  Zn98  1  0.25589493  0.74659158  -0.00278034  1
  Zn  Zn99  1  0.12969178  0.24829608  0.87154106  1
  Zn  Zn100  1  0.12769640  0.12972853  -0.00365722  1
  Zn  Zn101  1  0.37076416  0.63118214  0.75505422  1
  Zn  Zn102  1  0.24704532  0.00566697  0.25528349  1
  Zn  Zn103  1  0.00361485  0.36912925  0.37945347  1
  Zn  Zn104  1  0.38165751  0.50875709  0.38665646  1
  Zn  Zn105  1  0.24911600  0.87344761  0.62042945  1
  Zn  Zn106  1  0.37377929  0.87648782  0.49685713  1
  Zn  Zn107  1  0.19242510  0.18529387  0.30502420  1
  Zn  Zn108  1  0.18199618  0.18970929  0.62365459  1
  Zn  Zn109  1  0.19317290  0.68952130  0.18925749  1
  Zn  Zn110  1  0.18657859  0.68639062  0.68512051  1
  Zn  Zn111  1  0.68123999  0.19522061  0.18914075  1
  Zn  Zn112  1  0.68652937  0.18475970  0.68559130  1
  Zn  Zn113  1  0.68381732  0.68687589  0.18525553  1
  Zn  Zn114  1  0.68653504  0.69056050  0.68612596  1
  Zn  Zn115  1  0.32302499  0.31932821  0.31235496  1
  Zn  Zn116  1  0.31178830  0.31704284  0.81123221  1
  Zn  Zn117  1  0.31666219  0.81922565  0.30967845  1
  Zn  Zn118  1  0.31324909  0.81518661  0.81244927  1
  Zn  Zn119  1  0.80996641  0.31090496  0.31122681  1
  Zn  Zn120  1  0.81468240  0.31150024  0.81148794  1
  Zn  Zn121  1  0.81507389  0.80688106  0.31867317  1
  Zn  Zn122  1  0.81336016  0.81259940  0.80561499  1
  Zn  Zn123  1  0.18947415  0.43238727  0.44424150  1
  Zn  Zn124  1  0.19113235  0.43687653  0.93938428  1
  Zn  Zn125  1  0.18659835  0.93374191  0.43461465  1
  Zn  Zn126  1  0.19051949  0.93641718  0.93847792  1
  Zn  Zn127  1  0.68362907  0.44006306  0.43490339  1
  Zn  Zn128  1  0.69118538  0.43195728  0.93538000  1
  Zn  Zn129  1  0.68643699  0.93945247  0.44057314  1
  Zn  Zn130  1  0.68568274  0.94170437  0.94056109  1
  Zn  Zn131  1  0.31026085  0.06858381  0.06533639  1
  Zn  Zn132  1  0.31328021  0.06420459  0.56057880  1
  Zn  Zn133  1  0.32626859  0.55652374  0.07775446  1
  Zn  Zn134  1  0.30622819  0.56925301  0.56599238  1
  Zn  Zn135  1  0.80885726  0.05744637  0.06350940  1
  Zn  Zn136  1  0.80745757  0.05708619  0.55953044  1
  Zn  Zn137  1  0.81481802  0.56854797  0.04351626  1
  Zn  Zn138  1  0.80947372  0.55927006  0.55943714  1
  Zn  Zn139  1  0.43756717  0.44261533  0.20385013  1
  Zn  Zn140  1  0.43343306  0.43993661  0.69408084  1
  Zn  Zn141  1  0.43967994  0.94604241  0.18922337  1
  Zn  Zn142  1  0.43752458  0.93529206  0.68878320  1
  Zn  Zn143  1  0.94839826  0.42818049  0.18396595  1
  Zn  Zn144  1  0.93795303  0.43633278  0.68617752  1
  Zn  Zn145  1  0.93442576  0.93581494  0.18604618  1
  Zn  Zn146  1  0.93287730  0.93320923  0.68361748  1
  Zn  Zn147  1  0.05476560  0.05403827  0.30724701  1
  Zn  Zn148  1  0.06038735  0.06371033  0.80995127  1
  Zn  Zn149  1  0.05293532  0.56101931  0.30841947  1
  Zn  Zn150  1  0.06342024  0.56611273  0.81250098  1
  Zn  Zn151  1  0.55937368  0.06459356  0.31149432  1
  Zn  Zn152  1  0.55863402  0.06430054  0.81396099  1
  Zn  Zn153  1  0.55949472  0.55506713  0.31352608  1
  Zn  Zn154  1  0.55982790  0.56690490  0.81331912  1
  Zn  Zn155  1  0.43907205  0.19240395  0.43903193  1
  Zn  Zn156  1  0.43757177  0.18920031  0.94123932  1
  Zn  Zn157  1  0.44096179  0.69393836  0.43823585  1
  Zn  Zn158  1  0.44026793  0.68972934  0.93958105  1
  Zn  Zn159  1  0.92997776  0.18000096  0.43712385  1
  Zn  Zn160  1  0.94163953  0.18557285  0.93393558  1
  Zn  Zn161  1  0.93294964  0.68407187  0.43695954  1
  Zn  Zn162  1  0.94150757  0.68718485  0.93685966  1
  Zn  Zn163  1  0.06667973  0.30905265  0.06602872  1
  Zn  Zn164  1  0.06010571  0.31703980  0.56301785  1
  Zn  Zn165  1  0.06361413  0.81114004  0.06206706  1
  Zn  Zn166  1  0.06493445  0.81231042  0.55539186  1
  Zn  Zn167  1  0.57358937  0.31022599  0.06974061  1
  Zn  Zn168  1  0.56023802  0.30998933  0.56117063  1
  Zn  Zn169  1  0.56490393  0.81540821  0.06148955  1
  Zn  Zn170  1  0.56165901  0.80926564  0.55443039  1
  O  O171  1  0.11380394  0.10725329  0.12328596  1
  O  O172  1  0.10542698  0.10589909  0.63669153  1
  O  O173  1  0.11779553  0.62320739  0.12300904  1
  O  O174  1  0.12632216  0.61232057  0.61981986  1
  O  O175  1  0.61949009  0.11892343  0.12501094  1
  O  O176  1  0.62197904  0.12918784  0.60964622  1
  O  O177  1  0.62470757  0.62280269  0.10902972  1
  O  O178  1  0.61739471  0.62267364  0.61872502  1
  O  O179  1  0.37785910  0.38057534  0.39608904  1
  O  O180  1  0.38666227  0.38710438  0.86953486  1
  O  O181  1  0.38573557  0.88586359  0.37584193  1
  O  O182  1  0.38111732  0.88151428  0.88296009  1
  O  O183  1  0.87413977  0.37932165  0.38471870  1
  O  O184  1  0.88342931  0.38001338  0.87962591  1
  O  O185  1  0.86232917  0.88176534  0.39086246  1
  O  O186  1  0.88051496  0.87844756  0.87776319  1
  O  O187  1  0.26548452  -0.00536503  0.37599241  1
  O  O188  1  0.25894588  -0.00110567  0.86648401  1
  O  O189  1  0.24836961  0.49795518  0.36842704  1
  O  O190  1  0.25597107  0.49463301  0.86217752  1
  O  O191  1  0.75567869  0.00909052  0.38135106  1
  O  O192  1  0.76183288  -0.01050026  0.86457673  1
  O  O193  1  0.75907790  0.51115128  0.38153733  1
  O  O194  1  0.75688371  0.50441220  0.86645401  1
  O  O195  1  0.24711820  0.49043426  0.13701542  1
  O  O196  1  0.24329446  0.49549982  0.63384948  1
  O  O197  1  0.24045809  0.99327602  0.12544111  1
  O  O198  1  0.24067052  0.99659778  0.63102582  1
  O  O199  1  0.79283424  0.51505140  0.14119076  1
  O  O200  1  0.74259407  0.49333419  0.63028322  1
  O  O201  1  0.74841111  0.98481890  0.12965806  1
  O  O202  1  0.74968141  0.98567844  0.63108426  1
  O  O203  1  0.01197757  0.36158743  0.25262385  1
  O  O204  1  -0.00865537  0.36285826  0.75761212  1
  O  O205  1  0.01441229  0.87195435  0.24001245  1
  O  O206  1  0.00253673  0.86679698  0.75348530  1
  O  O207  1  0.49495776  0.36724475  0.26433127  1
  O  O208  1  0.50659781  0.37077323  0.75841916  1
  O  O209  1  0.49873885  0.87845067  0.26311531  1
  O  O210  1  0.49685187  0.86403172  0.75863181  1
  O  O211  1  0.48703517  0.11932463  0.23683027  1
  O  O212  1  0.48913820  0.12972964  0.74826338  1
  O  O213  1  0.49156501  0.62414293  0.24580694  1
  O  O214  1  0.49844298  0.64025863  0.74360373  1
  O  O215  1  0.99470818  0.12772022  0.23708464  1
  O  O216  1  0.98566211  0.12791516  0.74103774  1
  O  O217  1  0.97617302  0.60773630  0.23000381  1
  O  O218  1  0.99038491  0.63337802  0.75364243  1
  O  O219  1  0.37167610  0.25098291  0.01429222  1
  O  O220  1  0.37203560  0.25850638  0.51477384  1
  O  O221  1  0.37432251  0.75850915  0.00678951  1
  O  O222  1  0.36364450  0.75158767  0.50420013  1
  O  O223  1  0.87379953  0.25559714  0.00209133  1
  O  O224  1  0.86633596  0.25309811  0.50609871  1
  O  O225  1  0.86698069  0.75387690  0.00458001  1
  O  O226  1  0.86292112  0.75462128  0.49639288  1
  O  O227  1  0.13094474  0.24087447  0.52416691  1
  O  O228  1  0.12736276  0.24870510  0.99497763  1
  O  O229  1  0.13062719  0.75063118  0.48085808  1
  O  O230  1  0.12834067  0.74206439  0.99334258  1
  O  O231  1  0.63588538  0.24544686  0.50305987  1
  O  O232  1  0.63901750  0.24809439  0.99364789  1
  O  O233  1  0.63601804  0.73849320  0.49443253  1
  O  O234  1  0.63194796  0.74548361  0.99105411  1
  O  O235  1  0.49448838  0.24390441  0.12232028  1
  O  O236  1  0.49112414  0.25021776  0.63430708  1
  O  O237  1  0.48959674  0.75592066  0.12523541  1
  O  O238  1  0.49471049  0.74536845  0.63050390  1
  O  O239  1  0.99110624  0.24048193  0.12956990  1
  O  O240  1  0.98969221  0.24051853  0.62858998  1
  O  O241  1  0.99101708  0.74095853  0.11845224  1
  O  O242  1  1.00891791  0.75102410  0.63535111  1
  O  O243  1  -0.00807407  0.24582681  0.36300642  1
  O  O244  1  -0.00010004  0.25731352  0.86376044  1
  O  O245  1  0.00698886  0.75047278  0.37427781  1
  O  O246  1  0.01130036  0.75588975  0.87058682  1
  O  O247  1  0.49971457  0.27852893  0.39722971  1
  O  O248  1  0.50478520  0.25790304  0.86973362  1
  O  O249  1  0.50185733  0.76891677  0.37594746  1
  O  O250  1  0.50575267  0.75888282  0.86836007  1
  O  O251  1  0.23763141  0.13849983  0.52650249  1
  O  O252  1  0.24666533  0.12879285  0.99600737  1
  O  O253  1  0.24413316  0.64226972  0.50081675  1
  O  O254  1  0.23934236  0.62486041  1.01316506  1
  O  O255  1  0.74258487  0.13077621  0.49440778  1
  O  O256  1  0.75518633  0.13642513  0.99801854  1
  O  O257  1  0.74485882  0.63036843  0.49457277  1
  O  O258  1  0.74219363  0.63886548  0.99118536  1
  O  O259  1  0.24575737  0.37639774  0.01994516  1
  O  O260  1  0.25916097  0.37242276  0.51676146  1
  O  O261  1  0.26143045  0.87403153  0.01019824  1
  O  O262  1  0.25022163  0.86111646  0.50084529  1
  O  O263  1  0.76625409  0.37134822  0.00220450  1
  O  O264  1  0.75253267  0.36706934  0.50232603  1
  O  O265  1  0.75396235  0.86506140  0.00217045  1
  O  O266  1  0.75104378  0.86684844  0.50966049  1
  O  O267  1  0.12973232  0.49394234  0.24711029  1
  O  O268  1  0.13547795  0.50405807  0.74594116  1
  O  O269  1  0.12515045  0.98545529  0.24080775  1
  O  O270  1  0.13129146  0.99244280  0.74461374  1
  O  O271  1  0.61111384  0.47742045  0.24705261  1
  O  O272  1  0.63001676  0.49781625  0.74544700  1
  O  O273  1  0.62629297  1.00585761  0.23346198  1
  O  O274  1  0.63862762  1.00710578  0.75604246  1
  O  O275  1  0.37374009  0.01007392  0.25870668  1
  O  O276  1  0.36942354  0.00419828  0.75723574  1
  O  O277  1  0.36465658  0.51069480  0.26345670  1
  O  O278  1  0.36469415  0.50726407  0.76052573  1
  O  O279  1  0.87837047  -0.00346582  0.26466267  1
  O  O280  1  0.86859669  0.00425064  0.75460221  1
  O  O281  1  0.88318476  0.48641273  0.26448910  1
  O  O282  1  0.87099299  0.50755386  0.75237363  1
  O  O283  1  0.12354499  0.37716912  0.36566474  1
  O  O284  1  0.11285303  0.37636162  0.87583854  1
  O  O285  1  0.12549042  0.86694973  0.35858393  1
  O  O286  1  0.11909498  0.86945100  0.86920723  1
  O  O287  1  0.62001618  0.37626611  0.36646505  1
  O  O288  1  0.62009218  0.36659476  0.86885048  1
  O  O289  1  0.61191434  0.87706521  0.37945302  1
  O  O290  1  0.61489976  0.86888753  0.88250462  1
  O  O291  1  0.38292549  0.13267181  0.13171851  1
  O  O292  1  0.37799933  0.13530225  0.63355855  1
  O  O293  1  0.37529645  0.64063974  0.13734951  1
  O  O294  1  0.38144184  0.63738453  0.62594905  1
  O  O295  1  0.88008730  0.12815792  0.12643770  1
  O  O296  1  0.88119532  0.12398311  0.62758615  1
  O  O297  1  0.88008548  0.63606819  0.11904767  1
  O  O298  1  0.87094786  0.62124005  0.63431482  1
  O  O299  1  0.25924671  0.26619468  0.12890854  1
  O  O300  1  0.26122638  0.26911520  0.64366553  1
  O  O301  1  0.26186940  0.76047074  0.12390798  1
  O  O302  1  0.25605839  0.75194175  0.61939639  1
  O  O303  1  0.76459700  0.24740415  0.11636175  1
  O  O304  1  0.75359881  0.25539790  0.61793033  1
  O  O305  1  0.75488664  0.75981627  0.11723821  1
  O  O306  1  0.74742995  0.76065768  0.61828291  1
  O  O307  1  0.25151058  0.25614244  0.36904860  1
  O  O308  1  0.24837538  0.25052369  0.87404922  1
  O  O309  1  0.24699277  0.75430901  0.38025239  1
  O  O310  1  0.23652290  0.75598196  0.87626540  1
  O  O311  1  0.75738097  0.23850448  0.38505595  1
  O  O312  1  0.74224813  0.25743497  0.88334942  1
  O  O313  1  0.75123518  0.73509136  0.38359235  1
  O  O314  1  0.74308699  0.74993227  0.87871100  1
  O  O315  1  -0.00113202  0.11727784  0.00969010  1
  O  O316  1  0.00055282  0.11535437  0.50627294  1
  O  O317  1  0.00761928  0.61834527  0.00932464  1
  O  O318  1  -0.00008600  0.61084910  0.49751397  1
  O  O319  1  0.50133208  0.12646287  0.01442276  1
  O  O320  1  0.50629190  0.11782334  0.49995224  1
  O  O321  1  0.51617904  0.62727057  -0.00001408  1
  O  O322  1  0.50908966  0.63264750  0.50970692  1
  O  O323  1  0.48411563  0.38243830  0.51425303  1
  O  O324  1  0.50988683  0.36976819  0.98698334  1
  O  O325  1  0.49707458  0.88266317  0.49199355  1
  O  O326  1  0.48864780  0.87255931  0.99156733  1
  O  O327  1  0.99078204  0.38212767  0.49905721  1
  O  O328  1  0.99275151  0.37823921  0.99308300  1
  O  O329  1  0.98960455  0.88171931  0.50355858  1
  O  O330  1  0.99278915  0.87825485  0.99407153  1
  O  O331  1  0.49779524  0.48170743  0.38097446  1
  O  O332  1  0.48747953  0.49443060  0.87065619  1
  O  O333  1  0.49341573  0.99262953  0.38239229  1
  O  O334  1  0.49167021  0.98885181  0.86977807  1
  O  O335  1  0.99199696  0.49486966  0.38413792  1
  O  O336  1  0.99698612  0.49284949  0.87731968  1
  O  O337  1  0.98756480  1.00007111  0.38566194  1
  O  O338  1  0.98937376  0.99081972  0.87541663  1
  O  O339  1  0.00172125  0.00383144  0.11844722  1
  O  O340  1  0.00134184  0.00283001  0.61528657  1
  O  O341  1  0.01010393  0.50280884  0.11665020  1
  O  O342  1  0.00987120  0.49234007  0.61805857  1
  O  O343  1  0.51391408  0.00454107  0.12308756  1
  O  O344  1  0.49267038  -0.00019712  0.61200747  1
  O  O345  1  0.45273496  0.50386364  0.11126298  1
  O  O346  1  0.50166665  0.51652544  0.63594959  1
  O  O347  1  0.24643223  0.38373767  0.24467037  1
  O  O348  1  0.25715579  0.39291136  0.73830295  1
  O  O349  1  0.24425541  0.87878180  0.23792834  1
  O  O350  1  0.24556710  0.88543537  0.74685060  1
  O  O351  1  0.74547758  0.37884950  0.24581903  1
  O  O352  1  0.74464538  0.38046411  0.74443084  1
  O  O353  1  0.75168455  0.86949610  0.24074366  1
  O  O354  1  0.75277534  0.88042131  0.73475561  1
  O  O355  1  0.27157629  0.12165048  0.24394400  1
  O  O356  1  0.26320437  0.11191461  0.74966235  1
  O  O357  1  0.25915227  0.61595353  0.24684378  1
  O  O358  1  0.25190458  0.61156792  0.74640514  1
  O  O359  1  0.74811976  0.13214448  0.26138750  1
  O  O360  1  0.76177036  0.11532400  0.74097543  1
  O  O361  1  0.76074601  0.62557982  0.25538857  1
  O  O362  1  0.75675781  0.62266424  0.75361541  1
  O  O363  1  0.38571379  0.12168966  0.36336106  1
  O  O364  1  0.37739965  0.11700185  0.86852500  1
  O  O365  1  0.38055865  0.62856112  0.36602006  1
  O  O366  1  0.38167860  0.61336747  0.87408783  1
  O  O367  1  0.86237618  0.11234987  0.37277394  1
  O  O368  1  0.87973796  0.11316738  0.86454182  1
  O  O369  1  0.86822653  0.61183850  0.37225021  1
  O  O370  1  0.86864098  0.61915656  0.87180111  1
  O  O371  1  0.13500612  0.37797205  0.13751578  1
  O  O372  1  0.13819913  0.38624365  0.62448255  1
  O  O373  1  0.13223333  0.87816962  0.13051869  1
  O  O374  1  0.12353559  0.88425065  0.63023125  1
  O  O375  1  0.64146504  0.38167591  0.12740521  1
  O  O376  1  0.62722053  0.38080081  0.63050920  1
  O  O377  1  0.63666304  0.88395106  0.12281717  1
  O  O378  1  0.63531875  0.87093573  0.62118521  1
  O  O379  1  0.11594126  0.25574705  0.24615194  1
  O  O380  1  0.10898486  0.24320344  0.74158255  1
  O  O381  1  0.12752119  0.75822551  0.25855053  1
  O  O382  1  0.12002282  0.75272341  0.75649351  1
  O  O383  1  0.62278845  0.27552300  0.24224717  1
  O  O384  1  0.62161105  0.25381040  0.75658632  1
  O  O385  1  0.62353634  0.74645377  0.25482211  1
  O  O386  1  0.61861641  0.74759163  0.76282249  1
  O  O387  1  0.37689641  0.24024614  0.24127091  1
  O  O388  1  0.38083877  0.24302591  0.74546789  1
  O  O389  1  0.38042332  0.74664496  0.24484170  1
  O  O390  1  0.38069753  0.75025252  0.74288251  1
  O  O391  1  0.88257116  0.24834199  0.24060259  1
  O  O392  1  0.87664750  0.23978382  0.74314366  1
  O  O393  1  0.87407209  0.75187974  0.23642582  1
  O  O394  1  0.88621762  0.74000862  0.75336185  1
  O  O395  1  0.36757313  0.49188234  0.50553814  1
  O  O396  1  0.35735432  0.49856183  0.97937616  1
  O  O397  1  0.38208260  1.00187816  0.49220223  1
  O  O398  1  0.37074759  0.99438074  0.98911754  1
  O  O399  1  0.87998155  0.49248931  0.49404315  1
  O  O400  1  0.88348506  0.49211837  0.98930526  1
  O  O401  1  0.88020092  0.99189222  0.49353275  1
  O  O402  1  0.87724386  0.99285393  0.99067620  1
  O  O403  1  0.11579319  -0.00578646  0.00698065  1
  O  O404  1  0.11628289  -0.00306572  0.50530575  1
  O  O405  1  0.12334743  0.50685923  0.00635202  1
  O  O406  1  0.11740725  0.50047641  0.50715783  1
  O  O407  1  0.64042878  0.00691924  0.01970953  1
  O  O408  1  0.61397820  0.00848584  0.49901500  1
  O  O409  1  0.63483087  0.51567293  -0.00908354  1
  O  O410  1  0.63029108  0.51330518  0.50958677  1
  O  O411  1  0.36745450  0.36822213  0.13058574  1
  O  O412  1  0.36854884  0.37334234  0.62167149  1
  O  O413  1  0.37112968  0.87563662  0.12004131  1
  O  O414  1  0.37439246  0.86277107  0.62173113  1
  O  O415  1  0.87825831  0.36510975  0.11468416  1
  O  O416  1  0.86658811  0.37027959  0.61722639  1
  O  O417  1  0.86358200  0.87080436  0.11931198  1
  O  O418  1  0.86297970  0.87656597  0.61093366  1
  O  O419  1  0.12815555  0.11422393  0.36419960  1
  O  O420  1  0.12507882  0.12655186  0.87568409  1
  O  O421  1  0.11614494  0.63936575  0.36880974  1
  O  O422  1  0.12152958  0.63312432  0.88774540  1
  O  O423  1  0.63132321  0.12116609  0.38522748  1
  O  O424  1  0.61801791  0.14023147  0.87775534  1
  O  O425  1  0.63221092  0.61974796  0.38160571  1
  O  O426  1  0.63065828  0.63441269  0.88067742  1
