# generated using pymatgen
data_V85Zn86O256
_symmetry_space_group_name_H-M   'P 1'
_cell_length_a   16.92479477
_cell_length_b   16.92759314
_cell_length_c   16.92743009
_cell_angle_alpha   90.06446101
_cell_angle_beta   89.99836313
_cell_angle_gamma   89.98737555
_symmetry_Int_Tables_number   1
_chemical_formula_structural   V85Zn86O256
_chemical_formula_sum   'V85 Zn86 O256'
_cell_volume   4849.63849615
_cell_formula_units_Z   1
loop_
 _symmetry_equiv_pos_site_id
 _symmetry_equiv_pos_as_xyz
  1  'x, y, z'
loop_
 _atom_site_type_symbol
 _atom_site_label
 _atom_site_symmetry_multiplicity
 _atom_site_fract_x
 _atom_site_fract_y
 _atom_site_fract_z
 _atom_site_occupancy
  V  V0  1  -0.00187364  0.74980277  0.25014374  1
  V  V1  1  0.73195253  0.75174618  -0.00866156  1
  V  V2  1  0.87225026  -0.00341483  0.86969761  1
  V  V3  1  0.75383221  0.24989651  0.50351914  1
  V  V4  1  0.62834708  0.00363185  0.63428171  1
  V  V5  1  0.50326980  0.24688643  0.75040433  1
  V  V6  1  0.74512982  0.62735154  0.36305692  1
  V  V7  1  -0.00313163  0.87443780  0.38112593  1
  V  V8  1  0.24774080  0.00281335  0.75587666  1
  V  V9  1  0.25165321  0.36063856  0.12258288  1
  V  V10  1  0.37356801  0.75051731  0.12407115  1
  V  V11  1  0.87685966  0.24836517  0.62865160  1
  V  V12  1  0.24173389  0.62290734  0.87120833  1
  V  V13  1  0.75855313  0.75890792  0.49218876  1
  V  V14  1  0.38128729  0.24781146  0.62636452  1
  V  V15  1  0.37134946  0.61133476  0.74500266  1
  V  V16  1  0.50294152  0.87292222  0.87548195  1
  V  V17  1  0.37492245  0.12385270  0.74767931  1
  V  V18  1  -0.00131751  0.12612680  0.12030276  1
  V  V19  1  0.12220912  0.85951343  0.75411740  1
  V  V20  1  0.87445893  0.12492391  0.24780085  1
  V  V21  1  0.00153974  -0.00151955  -0.00262018  1
  V  V22  1  0.37372117  0.37589378  0.50379551  1
  V  V23  1  0.24194408  0.75076605  -0.00582793  1
  V  V24  1  0.12398165  0.25017743  0.37651388  1
  V  V25  1  0.87123752  0.26654986  0.11734327  1
  V  V26  1  0.62346455  0.63689737  0.49360569  1
  V  V27  1  0.00044147  0.24987772  0.25081797  1
  V  V28  1  0.37501168  0.35564792  0.00500464  1
  V  V29  1  0.00025192  0.49913871  0.50396680  1
  V  V30  1  0.74896337  0.12325412  0.37431475  1
  V  V31  1  0.74940615  0.12119980  0.87224123  1
  V  V32  1  0.37287082  0.00340915  0.87769354  1
  V  V33  1  0.87255739  -0.00390962  0.38021932  1
  V  V34  1  0.75708069  0.87662898  0.62574217  1
  V  V35  1  0.13691365  0.24678432  0.87250624  1
  V  V36  1  0.10493534  0.36984398  0.74965951  1
  V  V37  1  0.49043873  0.75404198  0.74764904  1
  V  V38  1  0.50164064  0.50183090  0.50104100  1
  V  V39  1  0.51042575  0.74711374  0.25462571  1
  V  V40  1  0.49916136  0.63355666  0.62350817  1
  V  V41  1  0.25631013  0.74433718  0.49960537  1
  V  V42  1  0.25015007  0.24945726  0.50376822  1
  V  V43  1  0.50031882  0.00354718  0.50682513  1
  V  V44  1  0.87614617  0.62997382  0.75292276  1
  V  V45  1  0.62964065  0.12372952  0.00672735  1
  V  V46  1  0.88161572  0.12527917  0.75239246  1
  V  V47  1  0.25245447  0.37589767  0.63730472  1
  V  V48  1  0.37230818  0.50221804  0.88988105  1
  V  V49  1  0.86946128  0.49880069  0.36857846  1
  V  V50  1  0.37594264  0.12788148  0.24493115  1
  V  V51  1  0.49675949  0.25347488  0.24270706  1
  V  V52  1  0.12782189  0.49902575  0.63152363  1
  V  V53  1  0.87393736  0.87011093  0.00123236  1
  V  V54  1  -0.00487948  0.62352899  0.12298655  1
  V  V55  1  0.49472496  0.37749446  0.37187141  1
  V  V56  1  0.36533700  0.62607190  0.25535988  1
  V  V57  1  0.50025669  0.38192055  0.87717771  1
  V  V58  1  0.25258092  0.86962609  0.62671895  1
  V  V59  1  0.73950651  0.62423869  0.86512531  1
  V  V60  1  0.25018056  -0.00418544  0.24912351  1
  V  V61  1  0.12946725  0.62179737  0.49363308  1
  V  V62  1  0.81807015  0.41894740  0.55088009  1
  V  V63  1  0.12226805  0.12204187  0.50222410  1
  V  V64  1  0.00337455  0.63426118  0.63180812  1
  V  V65  1  0.50502885  -0.00151878  0.00563584  1
  V  V66  1  0.37700520  0.00048704  0.37776469  1
  V  V67  1  -0.00629459  0.36964309  0.88967588  1
  V  V68  1  0.25060610  0.12500499  0.37571462  1
  V  V69  1  0.12350389  -0.00177414  0.62742143  1
  V  V70  1  0.62208444  0.87989955  0.24957083  1
  V  V71  1  0.13882665  0.12762430  -0.00452475  1
  V  V72  1  0.62500364  0.25161341  0.87511701  1
  V  V73  1  0.74520190  0.00143639  0.23759709  1
  V  V74  1  -0.00456778  0.37385480  0.38112614  1
  V  V75  1  0.13170214  0.74911718  0.37293174  1
  V  V76  1  0.62046959  0.12602672  0.50753696  1
  V  V77  1  0.13004049  0.50158895  0.12185200  1
  V  V78  1  0.00267570  0.85567724  0.87307220  1
  V  V79  1  0.50189688  0.12406609  0.12548111  1
  V  V80  1  0.63756696  0.38108955  0.24617516  1
  V  V81  1  0.37708938  0.87266093  0.50452566  1
  V  V82  1  0.62397793  0.24975223  0.37572081  1
  V  V83  1  0.61169276  0.61568029  -0.00811978  1
  V  V84  1  0.62954826  0.87050434  0.75175722  1
  Zn  Zn85  1  0.12176193  0.62547558  -0.00662759  1
  Zn  Zn86  1  0.12602633  -0.00076036  0.12381903  1
  Zn  Zn87  1  0.00349169  0.12763319  0.63272583  1
  Zn  Zn88  1  0.37368960  0.87489088  -0.00003934  1
  Zn  Zn89  1  -0.00714093  0.49755181  0.00250275  1
  Zn  Zn90  1  0.87551165  0.62348202  0.25194441  1
  Zn  Zn91  1  0.12345985  0.87756025  0.24820254  1
  Zn  Zn92  1  0.88282684  0.75858823  0.62786416  1
  Zn  Zn93  1  0.62621901  0.48817854  0.11513907  1
  Zn  Zn94  1  0.86611969  0.49818317  0.88087708  1
  Zn  Zn95  1  0.50765969  0.87226021  0.37973772  1
  Zn  Zn96  1  0.24674532  0.87492627  0.12067198  1
  Zn  Zn97  1  0.24850347  0.50014411  0.25277946  1
  Zn  Zn98  1  0.64799179  0.50310108  0.62417013  1
  Zn  Zn99  1  0.49931560  0.61982472  0.12132434  1
  Zn  Zn100  1  -0.00742305  -0.00454392  0.50543023  1
  Zn  Zn101  1  0.87370112  0.75106096  0.12454566  1
  Zn  Zn102  1  0.74471926  0.86993161  0.12379501  1
  Zn  Zn103  1  0.36474727  0.50824672  0.37927709  1
  Zn  Zn104  1  0.12949512  0.37600609  0.25195925  1
  Zn  Zn105  1  0.66466123  0.39007351  0.74356521  1
  Zn  Zn106  1  0.75106647  0.26772735  0.00288752  1
  Zn  Zn107  1  0.18549245  0.18384559  0.18739850  1
  Zn  Zn108  1  0.18859962  0.18844135  0.69269218  1
  Zn  Zn109  1  0.18491033  0.68895447  0.18287985  1
  Zn  Zn110  1  0.19319877  0.68421470  0.68398614  1
  Zn  Zn111  1  0.68784446  0.19334506  0.18778436  1
  Zn  Zn112  1  0.69359373  0.18877896  0.69012537  1
  Zn  Zn113  1  0.72896931  0.63180067  0.14094775  1
  Zn  Zn114  1  0.68398540  0.69401407  0.68339426  1
  Zn  Zn115  1  0.31211489  0.31425966  0.31137878  1
  Zn  Zn116  1  0.31444290  0.31715008  0.81240655  1
  Zn  Zn117  1  0.31704436  0.81204202  0.31520381  1
  Zn  Zn118  1  0.31380078  0.81204912  0.81363955  1
  Zn  Zn119  1  0.81658127  0.31008057  0.31589804  1
  Zn  Zn120  1  0.81433174  0.30172727  0.81966880  1
  Zn  Zn121  1  0.81058588  0.81511072  0.31032805  1
  Zn  Zn122  1  0.81445926  0.80827908  0.81076338  1
  Zn  Zn123  1  0.18926523  0.43551144  0.43783205  1
  Zn  Zn124  1  0.18913881  0.43690044  0.93706580  1
  Zn  Zn125  1  0.18740738  0.93531279  0.43685155  1
  Zn  Zn126  1  0.18542301  0.93476700  0.93643103  1
  Zn  Zn127  1  0.67828098  0.44536302  0.42776816  1
  Zn  Zn128  1  0.68578093  0.43874730  0.92959300  1
  Zn  Zn129  1  0.68575439  0.93742930  0.43478652  1
  Zn  Zn130  1  0.68681675  0.93785573  0.93717809  1
  Zn  Zn131  1  0.31607198  0.06197306  0.06522790  1
  Zn  Zn132  1  0.31034450  0.06158671  0.56735487  1
  Zn  Zn133  1  0.30987481  0.56504564  0.06436671  1
  Zn  Zn134  1  0.31383866  0.55981145  0.56594243  1
  Zn  Zn135  1  0.81523981  0.06483976  0.05742252  1
  Zn  Zn136  1  0.80908007  0.06341728  0.56507015  1
  Zn  Zn137  1  0.80376947  0.46034216  0.06051697  1
  Zn  Zn138  1  0.81773162  0.58634312  0.55592936  1
  Zn  Zn139  1  0.43988075  0.44395272  0.17859877  1
  Zn  Zn140  1  0.51169210  0.43887106  0.69166619  1
  Zn  Zn141  1  0.43667394  0.93543691  0.18669772  1
  Zn  Zn142  1  0.43877859  0.94003457  0.68595240  1
  Zn  Zn143  1  0.94517156  0.43854890  0.19191176  1
  Zn  Zn144  1  0.88026732  0.41902430  0.72194281  1
  Zn  Zn145  1  0.93564287  0.93634419  0.18864110  1
  Zn  Zn146  1  0.94019640  0.93684158  0.69298575  1
  Zn  Zn147  1  0.06113736  0.06108171  0.31310189  1
  Zn  Zn148  1  0.06313820  0.05979861  0.81624243  1
  Zn  Zn149  1  0.06464130  0.56045188  0.31107590  1
  Zn  Zn150  1  0.05641996  0.55620272  0.80997654  1
  Zn  Zn151  1  0.56293755  0.06057972  0.31566261  1
  Zn  Zn152  1  0.56074818  0.06290698  0.81491084  1
  Zn  Zn153  1  0.55887850  0.56303467  0.30924484  1
  Zn  Zn154  1  0.56156025  0.56554034  0.81200896  1
  Zn  Zn155  1  0.43897162  0.18827799  0.43561249  1
  Zn  Zn156  1  0.43883505  0.18337073  0.93479983  1
  Zn  Zn157  1  0.43730386  0.69014202  0.43347692  1
  Zn  Zn158  1  0.42936552  0.69338233  0.93119226  1
  Zn  Zn159  1  0.93672493  0.18330575  0.44068973  1
  Zn  Zn160  1  0.94286158  0.19087683  0.93600623  1
  Zn  Zn161  1  0.93831140  0.68641199  0.43674623  1
  Zn  Zn162  1  0.92959225  0.67859352  0.94240913  1
  Zn  Zn163  1  0.06990491  0.30810739  0.06175342  1
  Zn  Zn164  1  0.05891238  0.31179535  0.56391174  1
  Zn  Zn165  1  0.06450479  0.81297845  0.06427118  1
  Zn  Zn166  1  0.06787252  0.81336287  0.55912143  1
  Zn  Zn167  1  0.56206406  0.31314661  0.06170230  1
  Zn  Zn168  1  0.56555226  0.31441565  0.56457191  1
  Zn  Zn169  1  0.56029736  0.81289633  0.07051203  1
  Zn  Zn170  1  0.56613105  0.81425993  0.56522824  1
  O  O171  1  0.11317441  0.12486097  0.11618893  1
  O  O172  1  0.12567448  0.11739393  0.62066592  1
  O  O173  1  0.11645854  0.61714461  0.12380738  1
  O  O174  1  0.12275817  0.61703098  0.61786988  1
  O  O175  1  0.62133285  0.13223403  0.11332816  1
  O  O176  1  0.63259870  0.11798678  0.61876443  1
  O  O177  1  0.61852693  0.63812987  0.09526483  1
  O  O178  1  0.61701183  0.62386679  0.61474540  1
  O  O179  1  0.38556834  0.37032888  0.38358863  1
  O  O180  1  0.37670838  0.38077242  0.88782742  1
  O  O181  1  0.37556085  0.88324549  0.38980721  1
  O  O182  1  0.38379438  0.88785578  0.87351054  1
  O  O183  1  0.88332904  0.38195922  0.37704804  1
  O  O184  1  0.89115129  0.37330854  0.87331410  1
  O  O185  1  0.88222046  0.88492891  0.37153164  1
  O  O186  1  0.88157802  0.88103635  0.87876928  1
  O  O187  1  0.25568159  0.00708055  0.37104724  1
  O  O188  1  0.25861917  -0.00636388  0.86565373  1
  O  O189  1  0.25392394  0.48953220  0.36682583  1
  O  O190  1  0.26038722  0.50731076  0.87637308  1
  O  O191  1  0.75578183  0.00552391  0.36809335  1
  O  O192  1  0.76054233  0.00799844  0.88157642  1
  O  O193  1  0.75898111  0.51270625  0.38248445  1
  O  O194  1  0.74429045  0.52099479  0.87087026  1
  O  O195  1  0.24420642  0.49337297  0.12873952  1
  O  O196  1  0.23950491  0.48784051  0.61811711  1
  O  O197  1  0.25072655  0.99803159  0.13581019  1
  O  O198  1  0.24119162  0.98951520  0.63173192  1
  O  O199  1  0.73504342  0.51963377  0.12773058  1
  O  O200  1  0.76389518  0.49391318  0.60451118  1
  O  O201  1  0.75614983  1.00241170  0.13563081  1
  O  O202  1  0.73915045  0.99039465  0.61902669  1
  O  O203  1  0.00392959  0.36757425  0.26364262  1
  O  O204  1  0.00406438  0.37641370  0.75479437  1
  O  O205  1  0.00150673  0.86853671  0.26071126  1
  O  O206  1  0.00984645  0.87533035  0.76054510  1
  O  O207  1  0.49714620  0.36806336  0.25684094  1
  O  O208  1  0.48490854  0.35629358  0.76480739  1
  O  O209  1  0.50422417  0.86827806  0.25196377  1
  O  O210  1  0.50349562  0.87149756  0.75396287  1
  O  O211  1  0.49492306  0.13022052  0.24769159  1
  O  O212  1  0.49196379  0.13723582  0.75474891  1
  O  O213  1  0.49263683  0.63733027  0.24953076  1
  O  O214  1  0.49107430  0.63353509  0.74256815  1
  O  O215  1  0.99619742  0.12949100  0.24134167  1
  O  O216  1  0.98682539  0.11806732  0.75176323  1
  O  O217  1  1.00105378  0.63450535  0.24696386  1
  O  O218  1  0.99654237  0.62612484  0.74072332  1
  O  O219  1  0.37353970  0.25728313  -0.00376358  1
  O  O220  1  0.37206954  0.25172254  0.50912029  1
  O  O221  1  0.36639839  0.75155809  0.00841407  1
  O  O222  1  0.36504470  0.75755360  0.49531240  1
  O  O223  1  0.87630145  0.24814663  0.01521260  1
  O  O224  1  0.86049520  0.24320428  0.50437665  1
  O  O225  1  0.86973937  0.76323371  -0.00268217  1
  O  O226  1  0.86142737  0.74640093  0.50413262  1
  O  O227  1  0.12934993  0.24064058  0.49816051  1
  O  O228  1  0.12466171  0.24040457  0.98599005  1
  O  O229  1  0.13570163  0.74258257  0.49306333  1
  O  O230  1  0.13813650  0.74748849  1.00187665  1
  O  O231  1  0.63158822  0.24403698  0.49881672  1
  O  O232  1  0.62372868  0.24305416  0.98915480  1
  O  O233  1  0.63209445  0.74257809  0.50082116  1
  O  O234  1  0.63169848  0.76240659  0.99301183  1
  O  O235  1  0.50271111  0.24336756  0.13735989  1
  O  O236  1  0.48831037  0.25303496  0.63266867  1
  O  O237  1  0.49026924  0.74787381  0.13646388  1
  O  O238  1  0.49895562  0.74060691  0.62750408  1
  O  O239  1  0.99242757  0.24504021  0.12859345  1
  O  O240  1  0.98281856  0.24328033  0.61412457  1
  O  O241  1  1.00124684  0.74430094  0.13453798  1
  O  O242  1  1.00264025  0.73792811  0.61407833  1
  O  O243  1  0.00154804  0.25604206  0.37445336  1
  O  O244  1  0.01026531  0.26350412  0.87672372  1
  O  O245  1  0.00813568  0.75540381  0.37155157  1
  O  O246  1  -0.00340710  0.75764635  0.88303346  1
  O  O247  1  0.50543149  0.25738857  0.36829118  1
  O  O248  1  0.50760315  0.25423198  0.87057510  1
  O  O249  1  0.49433876  0.75598855  0.35930645  1
  O  O250  1  0.49389649  0.76677208  0.86637360  1
  O  O251  1  0.24113239  0.12852424  0.49794074  1
  O  O252  1  0.23756723  0.11814779  1.00445008  1
  O  O253  1  0.24375015  0.63399612  0.50742367  1
  O  O254  1  0.24816048  0.63146476  0.98908593  1
  O  O255  1  0.73923900  0.13196260  0.49586030  1
  O  O256  1  0.74309906  0.12723866  0.99159737  1
  O  O257  1  0.74135915  0.64061809  0.49036323  1
  O  O258  1  0.73023016  0.64024998  0.98240357  1
  O  O259  1  0.26343415  0.37681717  0.01049458  1
  O  O260  1  0.25254808  0.36496887  0.51102343  1
  O  O261  1  0.25352523  0.86666148  -0.00203103  1
  O  O262  1  0.25634545  0.86919220  0.50734582  1
  O  O263  1  0.74424791  0.38017294  0.00261933  1
  O  O264  1  0.74560915  0.36745726  0.49229456  1
  O  O265  1  0.75501595  0.86828159  0.00078532  1
  O  O266  1  0.74315651  0.86425631  0.50546488  1
  O  O267  1  0.12549875  0.49570522  0.23774158  1
  O  O268  1  0.12043406  0.48984397  0.73609277  1
  O  O269  1  0.13655491  1.00244306  0.24940831  1
  O  O270  1  0.13226928  0.99462455  0.74515876  1
  O  O271  1  0.62298289  0.48147998  0.25947543  1
  O  O272  1  0.60876585  0.49554815  0.73827256  1
  O  O273  1  0.63386712  0.99617704  0.25170461  1
  O  O274  1  0.61693058  0.99469340  0.73868285  1
  O  O275  1  0.37096711  0.00682575  0.25722793  1
  O  O276  1  0.36963677  0.00567686  0.75397620  1
  O  O277  1  0.37713011  0.51835565  0.24837654  1
  O  O278  1  0.38204815  0.51301442  0.75694942  1
  O  O279  1  0.86786182  0.00637926  0.25824179  1
  O  O280  1  0.87638725  0.00441360  0.76371939  1
  O  O281  1  0.88101048  0.50185208  0.26545046  1
  O  O282  1  0.88307772  0.52273766  0.76460590  1
  O  O283  1  0.11672389  0.36508610  0.37569626  1
  O  O284  1  0.12143996  0.36524217  0.86794936  1
  O  O285  1  0.11833043  0.86611852  0.37277965  1
  O  O286  1  0.11446202  0.87719779  0.86585002  1
  O  O287  1  0.61130104  0.36940963  0.36904765  1
  O  O288  1  0.61597974  0.36757972  0.86726946  1
  O  O289  1  0.62362016  0.87928662  0.35919547  1
  O  O290  1  0.61653408  0.88550666  0.86095534  1
  O  O291  1  0.38273490  0.12231369  0.13832587  1
  O  O292  1  0.37192329  0.13085600  0.63785645  1
  O  O293  1  0.37688702  0.63572922  0.13267165  1
  O  O294  1  0.37992762  0.62382623  0.63724371  1
  O  O295  1  0.88639862  0.12820865  0.12810919  1
  O  O296  1  0.87462698  0.12839777  0.63529776  1
  O  O297  1  0.89048578  0.62965136  0.13236467  1
  O  O298  1  0.88733617  0.62949957  0.63338878  1
  O  O299  1  0.24569452  0.26129948  0.12544968  1
  O  O300  1  0.25961883  0.25361410  0.62336583  1
  O  O301  1  0.25618657  0.75087956  0.11558512  1
  O  O302  1  0.24706577  0.76239457  0.61512294  1
  O  O303  1  0.76869060  0.24596099  0.12422151  1
  O  O304  1  0.76123960  0.24912234  0.61662443  1
  O  O305  1  0.75539321  0.74185038  0.10264871  1
  O  O306  1  0.75138019  0.75950827  0.61189022  1
  O  O307  1  0.24520538  0.24438304  0.38209761  1
  O  O308  1  0.23643311  0.25309931  0.87023321  1
  O  O309  1  0.23943289  0.75574366  0.38320455  1
  O  O310  1  0.25903465  0.73851701  0.88318488  1
  O  O311  1  0.74482362  0.24304632  0.38270113  1
  O  O312  1  0.74131189  0.24116593  0.88260560  1
  O  O313  1  0.75411532  0.74704050  0.38619398  1
  O  O314  1  0.75010698  0.74783901  0.88562524  1
  O  O315  1  0.00404513  0.11722160  0.00483189  1
  O  O316  1  0.01337887  0.11900186  0.50082417  1
  O  O317  1  0.00474671  0.62516604  0.00924938  1
  O  O318  1  0.00930141  0.61823510  0.50365519  1
  O  O319  1  0.50742122  0.11856390  0.00426188  1
  O  O320  1  0.51199128  0.12038901  0.49826934  1
  O  O321  1  0.51068127  0.63637047  -0.01156541  1
  O  O322  1  0.50416275  0.62472417  0.50276917  1
  O  O323  1  0.49666479  0.38398175  0.49352561  1
  O  O324  1  0.48617609  0.36799090  0.99229567  1
  O  O325  1  0.49374116  0.88152139  0.50170083  1
  O  O326  1  0.49990132  0.88201468  0.99329528  1
  O  O327  1  1.00597590  0.38411807  0.49020035  1
  O  O328  1  1.00406196  0.37324653  0.99241727  1
  O  O329  1  1.00408971  0.87691630  0.48669384  1
  O  O330  1  0.99387693  0.88051158  0.99485056  1
  O  O331  1  0.49385423  0.49409801  0.38392109  1
  O  O332  1  0.49105093  0.48662819  0.86974800  1
  O  O333  1  0.49511979  0.99878517  0.38944474  1
  O  O334  1  0.49379891  0.99351494  0.88354488  1
  O  O335  1  0.99464946  0.49476316  0.38522982  1
  O  O336  1  1.00861296  0.47948190  0.87980751  1
  O  O337  1  0.99156897  0.99204082  0.37538660  1
  O  O338  1  0.99253686  0.99549216  0.88622826  1
  O  O339  1  -0.00196971  0.00686789  0.11361682  1
  O  O340  1  0.01211082  -0.00014485  0.62452734  1
  O  O341  1  0.00869877  0.50671643  0.12493255  1
  O  O342  1  0.01016550  0.51091415  0.61086908  1
  O  O343  1  0.49480533  0.00498432  0.11258004  1
  O  O344  1  0.50896934  -0.00149501  0.61366081  1
  O  O345  1  0.51461980  0.50774420  0.12905934  1
  O  O346  1  0.49169965  0.51619769  0.60886553  1
  O  O347  1  0.25274836  0.37429106  0.23440599  1
  O  O348  1  0.24024011  0.37053487  0.73937750  1
  O  O349  1  0.25200699  0.88820404  0.25454652  1
  O  O350  1  0.24655476  0.88125639  0.74351490  1
  O  O351  1  0.73529742  0.36821603  0.25924823  1
  O  O352  1  0.77433510  0.37995469  0.75133642  1
  O  O353  1  0.74312872  0.88406281  0.24646045  1
  O  O354  1  0.73970060  0.86689120  0.74107997  1
  O  O355  1  0.25802676  0.11779475  0.25394079  1
  O  O356  1  0.25692608  0.11050089  0.74647709  1
  O  O357  1  0.26290138  0.62784695  0.24582699  1
  O  O358  1  0.26464918  0.62847757  0.75385068  1
  O  O359  1  0.75231704  0.11991115  0.25448480  1
  O  O360  1  0.75996636  0.12760061  0.76535036  1
  O  O361  1  0.75263014  0.63783273  0.26113659  1
  O  O362  1  0.75240391  0.63793553  0.75916937  1
  O  O363  1  0.37047616  0.11972542  0.36824999  1
  O  O364  1  0.37912562  0.11208685  0.86457022  1
  O  O365  1  0.37469088  0.62740744  0.35991855  1
  O  O366  1  0.36947534  0.61725403  0.86559546  1
  O  O367  1  0.86915805  0.12073194  0.36644649  1
  O  O368  1  0.87018230  0.11982924  0.87264093  1
  O  O369  1  0.86679275  0.61675582  0.37694316  1
  O  O370  1  0.85645028  0.63138207  0.86925760  1
  O  O371  1  0.13804453  0.37899290  0.12442520  1
  O  O372  1  0.12768556  0.37799333  0.63185826  1
  O  O373  1  0.12836528  0.88071786  0.13025584  1
  O  O374  1  0.13158772  0.88140869  0.63086412  1
  O  O375  1  0.62280624  0.36968067  0.14181869  1
  O  O376  1  0.60978402  0.38688122  0.63651019  1
  O  O377  1  0.62786411  0.87286288  0.14130591  1
  O  O378  1  0.63264357  0.88336591  0.63282707  1
  O  O379  1  0.11804424  0.24831774  0.25873192  1
  O  O380  1  0.12301526  0.25489209  0.76047764  1
  O  O381  1  0.11799372  0.75032906  0.25901636  1
  O  O382  1  0.13239940  0.76112407  0.74436334  1
  O  O383  1  0.61641915  0.25703575  0.25724291  1
  O  O384  1  0.61904681  0.24769710  0.75985107  1
  O  O385  1  0.60934607  0.75604501  0.24873892  1
  O  O386  1  0.60849760  0.76193020  0.74229778  1
  O  O387  1  0.38467221  0.23899881  0.25841285  1
  O  O388  1  0.37756890  0.24120266  0.74613464  1
  O  O389  1  0.37877338  0.74312065  0.24437316  1
  O  O390  1  0.38567338  0.74225807  0.75173496  1
  O  O391  1  0.88104747  0.24476075  0.24041177  1
  O  O392  1  0.87484860  0.23822425  0.74093177  1
  O  O393  1  0.88807930  0.75046039  0.25096370  1
  O  O394  1  0.87745543  0.73897287  0.74520351  1
  O  O395  1  0.38098558  0.49324576  0.49809274  1
  O  O396  1  0.37607144  0.49937796  0.99188355  1
  O  O397  1  0.38225374  0.99703445  0.49994401  1
  O  O398  1  0.38292192  1.00003862  0.99217641  1
  O  O399  1  0.88136995  0.49632467  0.49695749  1
  O  O400  1  0.87975264  0.50691855  0.99275006  1
  O  O401  1  0.87469745  1.01031762  0.48503630  1
  O  O402  1  0.88033686  0.98962446  0.99178880  1
  O  O403  1  0.11603563  0.00721165  -0.00188773  1
  O  O404  1  0.12722407  0.00551879  0.50991782  1
  O  O405  1  0.12459443  0.50071662  0.01181047  1
  O  O406  1  0.11991628  0.50619321  0.50491588  1
  O  O407  1  0.61643373  0.01018526  -0.00436267  1
  O  O408  1  0.61902918  0.00739614  0.50708306  1
  O  O409  1  0.61678916  0.51381515  -0.00977184  1
  O  O410  1  0.61579774  0.51238994  0.50140657  1
  O  O411  1  0.36846279  0.37533291  0.11262816  1
  O  O412  1  0.36623821  0.36491412  0.62008937  1
  O  O413  1  0.37111775  0.86264117  0.12439937  1
  O  O414  1  0.36694281  0.88185044  0.61378910  1
  O  O415  1  0.87711890  0.36829957  0.12872612  1
  O  O416  1  0.88304239  0.36798401  0.61738090  1
  O  O417  1  0.87071308  0.87292002  0.11567541  1
  O  O418  1  0.86244906  0.87882738  0.63011562  1
  O  O419  1  0.13027399  0.12866797  0.38351975  1
  O  O420  1  0.12104441  0.13732720  0.87979169  1
  O  O421  1  0.12129043  0.63207122  0.38644817  1
  O  O422  1  0.13846186  0.61669762  0.86907152  1
  O  O423  1  0.62956164  0.13067609  0.38398817  1
  O  O424  1  0.63147194  0.13009368  0.88126947  1
  O  O425  1  0.63187254  0.62053916  0.38172266  1
  O  O426  1  0.62962886  0.63226734  0.87584500  1
