# generated using pymatgen
data_V85Zn86O256
_symmetry_space_group_name_H-M   'P 1'
_cell_length_a   16.92659340
_cell_length_b   16.93091970
_cell_length_c   16.92547554
_cell_angle_alpha   89.95991384
_cell_angle_beta   89.87443262
_cell_angle_gamma   89.97791068
_symmetry_Int_Tables_number   1
_chemical_formula_structural   V85Zn86O256
_chemical_formula_sum   'V85 Zn86 O256'
_cell_volume   4850.53686976
_cell_formula_units_Z   1
loop_
 _symmetry_equiv_pos_site_id
 _symmetry_equiv_pos_as_xyz
  1  'x, y, z'
loop_
 _atom_site_type_symbol
 _atom_site_label
 _atom_site_symmetry_multiplicity
 _atom_site_fract_x
 _atom_site_fract_y
 _atom_site_fract_z
 _atom_site_occupancy
  V  V0  1  0.12564287  -0.01016884  0.62202079  1
  V  V1  1  0.37576407  0.48516306  0.38036217  1
  V  V2  1  0.62099774  0.12718720  0.00775083  1
  V  V3  1  0.24902227  0.25113968  0.49817739  1
  V  V4  1  0.75022984  0.37906438  0.63897097  1
  V  V5  1  0.11365315  0.75048387  0.37522287  1
  V  V6  1  0.86775101  0.12213573  0.25148514  1
  V  V7  1  0.75090533  0.62882042  0.37709100  1
  V  V8  1  -0.00234306  0.75836007  0.74723752  1
  V  V9  1  0.49949867  0.74730029  0.25061082  1
  V  V10  1  0.73872861  0.61425865  0.87840928  1
  V  V11  1  0.24756143  0.87477993  0.12605599  1
  V  V12  1  0.50017897  0.00237526  0.00966207  1
  V  V13  1  0.11718458  0.50646344  0.12250493  1
  V  V14  1  0.74891901  0.87692321  0.12743254  1
  V  V15  1  0.00598481  0.87852965  0.87089296  1
  V  V16  1  0.12328549  0.23741751  0.37850644  1
  V  V17  1  0.01098322  0.25100195  0.75066409  1
  V  V18  1  0.75129510  0.37751248  0.12763475  1
  V  V19  1  0.25789851  0.37561556  0.12027342  1
  V  V20  1  0.37506278  0.87510490  -0.00160597  1
  V  V21  1  0.88819461  0.63117544  0.24886291  1
  V  V22  1  0.25128349  0.62323747  0.37823871  1
  V  V23  1  0.25859374  0.25380020  -0.00207565  1
  V  V24  1  0.00082543  0.00153548  -0.00020497  1
  V  V25  1  0.50390527  0.25538447  0.74907741  1
  V  V26  1  0.87337303  0.37692895  0.50036527  1
  V  V27  1  0.62659176  0.25767161  0.87219586  1
  V  V28  1  0.12592303  0.37228559  0.24883601  1
  V  V29  1  0.37617506  0.25462634  0.61755132  1
  V  V30  1  0.37210894  0.62221564  0.75145523  1
  V  V31  1  0.12162231  0.49642590  0.63411604  1
  V  V32  1  0.26772559  0.87829778  0.62006006  1
  V  V33  1  0.51567216  0.12706664  0.61050863  1
  V  V34  1  0.87673592  0.38241218  -0.00419439  1
  V  V35  1  0.49684305  0.61970288  0.62404506  1
  V  V36  1  0.75050645  0.25050278  0.00165774  1
  V  V37  1  0.75126721  0.50240184  0.25180852  1
  V  V38  1  0.87179273  0.61669784  0.76231977  1
  V  V39  1  0.47979697  0.87796212  0.37454062  1
  V  V40  1  0.62359682  0.61889015  0.49911525  1
  V  V41  1  0.50303667  0.49334372  0.00236490  1
  V  V42  1  0.74696449  0.24363959  0.49731005  1
  V  V43  1  0.25444658  -0.00231022  0.25564587  1
  V  V44  1  0.12630773  0.12828352  -0.00021669  1
  V  V45  1  0.86631458  -0.01060535  0.36889461  1
  V  V46  1  0.50948757  0.74694209  0.75758814  1
  V  V47  1  0.62702218  0.49442606  0.64085431  1
  V  V48  1  0.62398160  0.75310006  0.37563697  1
  V  V49  1  0.87839265  0.12414564  0.74914726  1
  V  V50  1  0.75013533  0.12491386  0.87518710  1
  V  V51  1  0.25951689  0.12074993  0.37843741  1
  V  V52  1  0.11299116  0.87050590  0.25412562  1
  V  V53  1  0.87536967  0.00132306  0.87302805  1
  V  V54  1  0.49716464  -0.01027756  0.49995203  1
  V  V55  1  0.12681161  0.75365278  0.86932322  1
  V  V56  1  0.61442149  0.37806626  0.25771804  1
  V  V57  1  0.37406695  0.74595424  0.12333481  1
  V  V58  1  0.73699008  0.74958820  -0.00718512  1
  V  V59  1  0.62835162  0.88490088  0.25436419  1
  V  V60  1  0.87739211  0.24988528  0.12516002  1
  V  V61  1  0.00471447  0.38494179  0.87023193  1
  V  V62  1  0.88537227  0.74773906  0.12357806  1
  V  V63  1  0.24568517  0.37361163  0.62924456  1
  V  V64  1  -0.00478106  0.63104954  0.62616115  1
  V  V65  1  0.50930998  0.62644112  0.11860721  1
  V  V66  1  0.73907620  -0.00272513  0.73881510  1
  V  V67  1  0.37930914  -0.00250518  0.87165050  1
  V  V68  1  0.00070219  0.50144572  0.50194532  1
  V  V69  1  0.25573834  0.75431296  0.49920352  1
  V  V70  1  0.24937154  -0.00655362  0.74694766  1
  V  V71  1  0.25016902  0.49873539  0.25082838  1
  V  V72  1  0.49749444  0.48299876  0.49753302  1
  V  V73  1  0.86973415  0.87533271  0.50990677  1
  V  V74  1  0.24785478  0.62437752  0.87767709  1
  V  V75  1  0.37242151  0.49049225  0.88204916  1
  V  V76  1  0.25165185  0.12461660  0.87207140  1
  V  V77  1  0.49806014  0.23571674  0.24995090  1
  V  V78  1  0.00213094  0.37363709  0.37653991  1
  V  V79  1  0.51457491  0.87055481  0.87449037  1
  V  V80  1  0.38021964  0.12028303  0.74294565  1
  V  V81  1  0.00964570  0.12310699  0.61746778  1
  V  V82  1  0.00088232  0.24706120  0.24943368  1
  V  V83  1  0.00430949  -0.00343752  0.48832831  1
  V  V84  1  0.87861980  0.24962862  0.62475296  1
  Zn  Zn85  1  0.74071103  0.75935139  0.51197700  1
  Zn  Zn86  1  0.87842983  0.50438103  0.37479036  1
  Zn  Zn87  1  0.24781276  0.75106402  -0.00176991  1
  Zn  Zn88  1  0.37738577  0.11662990  0.24224124  1
  Zn  Zn89  1  0.38457426  0.24505920  0.11833747  1
  Zn  Zn90  1  0.74310030  0.11844466  0.37551424  1
  Zn  Zn91  1  0.61385537  0.24880099  0.38313563  1
  Zn  Zn92  1  0.12428493  0.62743644  0.50366557  1
  Zn  Zn93  1  -0.00827078  0.50991510  -0.00177579  1
  Zn  Zn94  1  0.49770356  0.37171069  0.87812145  1
  Zn  Zn95  1  0.62841096  0.50542966  0.12260367  1
  Zn  Zn96  1  0.37620491  0.62023374  0.24978406  1
  Zn  Zn97  1  0.24444207  0.49296590  0.75436315  1
  Zn  Zn98  1  0.62820199  0.00603330  0.13189740  1
  Zn  Zn99  1  0.87373269  0.87399111  -0.00071776  1
  Zn  Zn100  1  0.00126980  0.12435310  0.12549540  1
  Zn  Zn101  1  0.12912798  0.25583453  0.87153839  1
  Zn  Zn102  1  0.12313169  -0.00083421  0.12703734  1
  Zn  Zn103  1  0.11455321  0.63342537  0.00520419  1
  Zn  Zn104  1  0.37565754  0.74900712  0.62390794  1
  Zn  Zn105  1  0.85439184  0.75595391  0.63513469  1
  Zn  Zn106  1  0.67076412  0.84286139  0.68394074  1
  Zn  Zn107  1  0.19320984  0.18522233  0.18475358  1
  Zn  Zn108  1  0.18919504  0.18096664  0.68293279  1
  Zn  Zn109  1  0.18682714  0.68749439  0.19182469  1
  Zn  Zn110  1  0.18564321  0.68938103  0.68816951  1
  Zn  Zn111  1  0.68506539  0.19173152  0.19199897  1
  Zn  Zn112  1  0.69136108  0.18933718  0.68817107  1
  Zn  Zn113  1  0.69137123  0.69316562  0.18864638  1
  Zn  Zn114  1  0.68677183  0.67305578  0.69110515  1
  Zn  Zn115  1  0.31368219  0.30875783  0.30959956  1
  Zn  Zn116  1  0.31409486  0.30970520  0.80746508  1
  Zn  Zn117  1  0.30515008  0.80571492  0.30733876  1
  Zn  Zn118  1  0.31880484  0.81202255  0.80913377  1
  Zn  Zn119  1  0.81403030  0.31454852  0.31383811  1
  Zn  Zn120  1  0.82038692  0.31082423  0.81519319  1
  Zn  Zn121  1  0.81278335  0.81233128  0.31202949  1
  Zn  Zn122  1  0.81352521  0.81470884  0.81575036  1
  Zn  Zn123  1  0.18638136  0.43414721  0.44243724  1
  Zn  Zn124  1  0.18404961  0.43744420  0.93957931  1
  Zn  Zn125  1  0.18845294  0.93510035  0.43724066  1
  Zn  Zn126  1  0.18759222  0.93820089  0.93615335  1
  Zn  Zn127  1  0.68861897  0.43680214  0.43947652  1
  Zn  Zn128  1  0.68534310  0.43825934  0.93929358  1
  Zn  Zn129  1  0.68198993  0.94124677  0.44562248  1
  Zn  Zn130  1  0.68887648  0.93945183  0.93839098  1
  Zn  Zn131  1  0.31289267  0.06236727  0.06437706  1
  Zn  Zn132  1  0.31821173  0.06556570  0.55684848  1
  Zn  Zn133  1  0.31218397  0.56257623  0.06053194  1
  Zn  Zn134  1  0.31087579  0.55858936  0.56060997  1
  Zn  Zn135  1  0.81251915  0.06235980  0.06352431  1
  Zn  Zn136  1  0.81764219  0.06129325  0.56274995  1
  Zn  Zn137  1  0.81169237  0.56887342  0.06197441  1
  Zn  Zn138  1  0.81228457  0.56366367  0.56638024  1
  Zn  Zn139  1  0.43477793  0.43901440  0.18638140  1
  Zn  Zn140  1  0.43412757  0.43629239  0.68831903  1
  Zn  Zn141  1  0.43679799  0.93446106  0.18922308  1
  Zn  Zn142  1  0.47916368  0.92342954  0.67314436  1
  Zn  Zn143  1  0.93605420  0.43770815  0.19010273  1
  Zn  Zn144  1  0.93695979  0.43790891  0.68994631  1
  Zn  Zn145  1  0.93556135  0.93608342  0.18482777  1
  Zn  Zn146  1  0.93708557  0.94073112  0.68645210  1
  Zn  Zn147  1  0.06222641  0.05927790  0.30961536  1
  Zn  Zn148  1  0.06776781  0.06375609  0.80945089  1
  Zn  Zn149  1  0.06647377  0.56178507  0.31459052  1
  Zn  Zn150  1  0.06020415  0.56874376  0.81331404  1
  Zn  Zn151  1  0.56470146  0.06255988  0.32694356  1
  Zn  Zn152  1  0.56184426  0.06804411  0.81663089  1
  Zn  Zn153  1  0.55958451  0.56090024  0.31334095  1
  Zn  Zn154  1  0.55986597  0.56169441  0.81830037  1
  Zn  Zn155  1  0.43611450  0.19412933  0.43239988  1
  Zn  Zn156  1  0.43869028  0.18443600  0.93571104  1
  Zn  Zn157  1  0.43554653  0.68240036  0.43839534  1
  Zn  Zn158  1  0.43852427  0.68342715  0.93909651  1
  Zn  Zn159  1  0.93350577  0.18249952  0.43650313  1
  Zn  Zn160  1  0.93948931  0.19193025  0.93597355  1
  Zn  Zn161  1  0.93178507  0.69209378  0.44309422  1
  Zn  Zn162  1  0.93559707  0.68999576  0.93992659  1
  Zn  Zn163  1  0.06554452  0.31578823  0.05985156  1
  Zn  Zn164  1  0.06556829  0.31230121  0.56126464  1
  Zn  Zn165  1  0.06341627  0.81447709  0.05841106  1
  Zn  Zn166  1  0.06363919  0.81664457  0.55874129  1
  Zn  Zn167  1  0.56476187  0.31651215  0.06845267  1
  Zn  Zn168  1  0.56793734  0.31295857  0.56806199  1
  Zn  Zn169  1  0.56287395  0.81600156  0.06384450  1
  Zn  Zn170  1  0.55314455  0.80570546  0.55720505  1
  O  O171  1  0.12534615  0.12179914  0.11158771  1
  O  O172  1  0.11512357  0.11447819  0.62415268  1
  O  O173  1  0.13170189  0.61074020  0.12606253  1
  O  O174  1  0.11074622  0.62070741  0.62592934  1
  O  O175  1  0.63357822  0.12429871  0.11252577  1
  O  O176  1  0.61351424  0.13312261  0.62354184  1
  O  O177  1  0.61301835  0.62600502  0.13270306  1
  O  O178  1  0.61697794  0.61336434  0.61951862  1
  O  O179  1  0.36413120  0.38638152  0.37703610  1
  O  O180  1  0.37453619  0.38719621  0.86910000  1
  O  O181  1  0.38237384  0.86650591  0.36897881  1
  O  O182  1  0.37677335  0.88076813  0.88361567  1
  O  O183  1  0.88324909  0.37857039  0.38402394  1
  O  O184  1  0.88867901  0.36962530  0.88537115  1
  O  O185  1  0.87452310  0.88508199  0.38033350  1
  O  O186  1  0.88789863  0.88327309  0.87689209  1
  O  O187  1  0.24417780  0.00907613  0.36906792  1
  O  O188  1  0.25654559  0.00319188  0.86478039  1
  O  O189  1  0.25199727  0.50541992  0.37401535  1
  O  O190  1  0.25415109  0.50577844  0.87541397  1
  O  O191  1  0.76355420  -0.00089344  0.37906561  1
  O  O192  1  0.75811879  0.00740905  0.87169636  1
  O  O193  1  0.75247282  0.50837679  0.36730157  1
  O  O194  1  0.74964441  0.51470206  0.88376092  1
  O  O195  1  0.24406783  0.49339215  0.12926799  1
  O  O196  1  0.24050246  0.49065971  0.62494585  1
  O  O197  1  0.24596364  0.98655103  0.13036939  1
  O  O198  1  0.24757107  0.99586104  0.62525184  1
  O  O199  1  0.74937170  0.49987063  0.13661625  1
  O  O200  1  0.74001058  0.49184139  0.62195523  1
  O  O201  1  0.74883685  0.98241552  0.11681074  1
  O  O202  1  0.75207605  1.00596760  0.63950329  1
  O  O203  1  0.00407141  0.36733498  0.25703878  1
  O  O204  1  -0.00666396  0.36674564  0.76181569  1
  O  O205  1  0.01473235  0.87865757  0.24685402  1
  O  O206  1  -0.00361061  0.86707626  0.75432987  1
  O  O207  1  0.51382512  0.38311632  0.25009685  1
  O  O208  1  0.49475402  0.35882258  0.75084776  1
  O  O209  1  0.50450163  0.86783571  0.26029711  1
  O  O210  1  0.48448895  0.85870478  0.76614187  1
  O  O211  1  0.50023521  0.13318275  0.25093885  1
  O  O212  1  0.49559988  0.13104063  0.73968118  1
  O  O213  1  0.49654607  0.63106395  0.24324372  1
  O  O214  1  0.49190013  0.62668935  0.74642489  1
  O  O215  1  0.99113227  0.13035000  0.24808467  1
  O  O216  1  0.99716960  0.13075385  0.74281624  1
  O  O217  1  0.98690814  0.61998310  0.25600504  1
  O  O218  1  0.98930966  0.63627843  0.74711708  1
  O  O219  1  0.36295548  0.24604522  -0.00279564  1
  O  O220  1  0.36570132  0.24841216  0.50762657  1
  O  O221  1  0.37289948  0.75453920  0.00986299  1
  O  O222  1  0.36060349  0.74195664  0.50396906  1
  O  O223  1  0.87087689  0.25836197  0.00616614  1
  O  O224  1  0.87218414  0.25824892  0.50635436  1
  O  O225  1  0.86619131  0.75279066  0.01186153  1
  O  O226  1  0.86787294  0.76414967  0.50636177  1
  O  O227  1  0.13176469  0.25122403  0.48889824  1
  O  O228  1  0.13433440  0.24238036  0.99675451  1
  O  O229  1  0.13531843  0.75044696  0.49274460  1
  O  O230  1  0.12759595  0.75212717  0.98528076  1
  O  O231  1  0.64370659  0.25910312  0.49956009  1
  O  O232  1  0.62945492  0.24553585  0.99679728  1
  O  O233  1  0.62219988  0.74160320  0.48950401  1
  O  O234  1  0.63814691  0.75182328  1.00374713  1
  O  O235  1  0.50023445  0.25874792  0.14313789  1
  O  O236  1  0.49528429  0.24389197  0.62899230  1
  O  O237  1  0.49326946  0.74438745  0.12713595  1
  O  O238  1  0.49490401  0.73120496  0.63099969  1
  O  O239  1  0.99461187  0.25019288  0.12976216  1
  O  O240  1  0.99889220  0.24253324  0.62886362  1
  O  O241  1  0.98441908  0.75642891  0.11988857  1
  O  O242  1  1.00215485  0.74543374  0.63219138  1
  O  O243  1  0.00625696  0.25188205  0.37202630  1
  O  O244  1  0.00457289  0.25738459  0.86527506  1
  O  O245  1  0.01441007  0.74317401  0.38252048  1
  O  O246  1  0.00497529  0.76059196  0.86769396  1
  O  O247  1  0.49923757  0.25511208  0.35721578  1
  O  O248  1  0.50734597  0.24944132  0.86730708  1
  O  O249  1  0.50368314  0.75721327  0.37343996  1
  O  O250  1  0.49563593  0.75584182  0.86994617  1
  O  O251  1  0.25124882  0.13661981  0.49162385  1
  O  O252  1  0.24325219  0.12895113  0.99189566  1
  O  O253  1  0.24508982  0.63014712  0.49476108  1
  O  O254  1  0.24734082  0.62867663  0.98741936  1
  O  O255  1  0.75954502  0.14117797  0.50221636  1
  O  O256  1  0.74587821  0.13147198  0.99398554  1
  O  O257  1  0.74498103  0.62607316  0.49003271  1
  O  O258  1  0.75307961  0.63681043  0.98886720  1
  O  O259  1  0.24447171  0.36540267  0.00678963  1
  O  O260  1  0.24465261  0.36073449  0.51185895  1
  O  O261  1  0.25473309  0.87482058  0.00836671  1
  O  O262  1  0.25114204  0.86762619  0.50740072  1
  O  O263  1  0.75673523  0.37018365  0.00582957  1
  O  O264  1  0.76258682  0.37026469  0.50612009  1
  O  O265  1  0.75125776  0.86516188  0.00402993  1
  O  O266  1  0.76328534  0.87799586  0.49784869  1
  O  O267  1  0.13067342  0.49406472  0.24193316  1
  O  O268  1  0.12405463  0.50576267  0.73818371  1
  O  O269  1  0.13262360  0.98731422  0.24903495  1
  O  O270  1  0.13863880  1.00584968  0.73795557  1
  O  O271  1  0.63270623  0.49273792  0.25095562  1
  O  O272  1  0.61769893  0.50023196  0.73996422  1
  O  O273  1  0.61793328  0.98802435  0.25081780  1
  O  O274  1  0.64089245  1.01106073  0.75482989  1
  O  O275  1  0.35935841  -0.00451234  0.24737656  1
  O  O276  1  0.37291502  0.01072140  0.74983745  1
  O  O277  1  0.36718123  0.49990690  0.25948701  1
  O  O278  1  0.37291983  0.50868503  0.75862885  1
  O  O279  1  0.88137711  0.00450547  0.26241288  1
  O  O280  1  0.86966316  0.00693318  0.75558267  1
  O  O281  1  0.86697265  0.50935500  0.25175915  1
  O  O282  1  0.87915298  0.51862463  0.74813989  1
  O  O283  1  0.12019224  0.36618819  0.36893829  1
  O  O284  1  0.11012497  0.37348856  0.87680543  1
  O  O285  1  0.12875479  0.86603605  0.36220716  1
  O  O286  1  0.11450540  0.87154413  0.87400808  1
  O  O287  1  0.63471313  0.37066231  0.36020955  1
  O  O288  1  0.62294261  0.36134764  0.88008407  1
  O  O289  1  0.62053220  0.86721346  0.37139269  1
  O  O290  1  0.61371711  0.87803417  0.87585540  1
  O  O291  1  0.36535379  0.13240401  0.13050762  1
  O  O292  1  0.38091871  0.13664329  0.62941754  1
  O  O293  1  0.38093640  0.63269490  0.12597655  1
  O  O294  1  0.38051627  0.61874718  0.63409778  1
  O  O295  1  0.87752492  0.13145753  0.13136884  1
  O  O296  1  0.88827862  0.12835747  0.63027467  1
  O  O297  1  0.86981609  0.63949976  0.13365294  1
  O  O298  1  0.88128283  0.63215697  0.63396604  1
  O  O299  1  0.24787819  0.26003549  0.11493896  1
  O  O300  1  0.25519715  0.25231046  0.61840473  1
  O  O301  1  0.25601138  0.75804743  0.12503386  1
  O  O302  1  0.25018864  0.76039092  0.61961376  1
  O  O303  1  0.75694701  0.25709561  0.12117274  1
  O  O304  1  0.75817037  0.25695659  0.61652779  1
  O  O305  1  0.75445309  0.75837138  0.11527439  1
  O  O306  1  0.73671561  0.75799609  0.63049268  1
  O  O307  1  0.24280640  0.24469805  0.38012461  1
  O  O308  1  0.24911756  0.24422875  0.87855530  1
  O  O309  1  0.24420613  0.74151609  0.38160546  1
  O  O310  1  0.24311632  0.74496827  0.87146275  1
  O  O311  1  0.75810579  0.25154633  0.39244194  1
  O  O312  1  0.74523265  0.24514907  0.87977175  1
  O  O313  1  0.74022780  0.74424873  0.37783591  1
  O  O314  1  0.75421508  0.74714199  0.88915610  1
  O  O315  1  0.00869863  0.12002426  -0.00184416  1
  O  O316  1  -0.00701446  0.11268806  0.50852545  1
  O  O317  1  0.00239112  0.62135331  -0.00523280  1
  O  O318  1  -0.00279906  0.62046875  0.51063820  1
  O  O319  1  0.50905555  0.11526956  -0.00462897  1
  O  O320  1  0.50155825  0.13527153  0.50936696  1
  O  O321  1  0.49698589  0.61369466  0.00910309  1
  O  O322  1  0.50401491  0.61758365  0.50936477  1
  O  O323  1  0.50282797  0.38372937  0.50491695  1
  O  O324  1  0.49871500  0.38812608  1.00190725  1
  O  O325  1  0.49226996  0.87976199  0.48650139  1
  O  O326  1  0.49495284  0.88102752  0.99320942  1
  O  O327  1  0.99093345  0.37952914  0.49807972  1
  O  O328  1  0.99413040  0.37813080  0.98853379  1
  O  O329  1  0.98561184  0.88463252  0.50301031  1
  O  O330  1  0.99926303  0.88586014  0.99040849  1
  O  O331  1  0.48851296  0.50419060  0.38556718  1
  O  O332  1  0.49261634  0.49694596  0.88668108  1
  O  O333  1  0.49455943  0.98277911  0.37656118  1
  O  O334  1  0.49558902  0.99252728  0.88057996  1
  O  O335  1  1.00144287  0.49353211  0.38460891  1
  O  O336  1  1.00166780  0.48803236  0.87307706  1
  O  O337  1  0.99073943  1.00442867  0.38447292  1
  O  O338  1  0.99775281  0.99613876  0.87683768  1
  O  O339  1  0.00158336  0.00162173  0.11314129  1
  O  O340  1  0.00875306  0.00451466  0.61878241  1
  O  O341  1  0.01509322  0.49376078  0.12670057  1
  O  O342  1  0.00338016  0.50764284  0.62192072  1
  O  O343  1  0.50293676  -0.00803917  0.11272078  1
  O  O344  1  0.49584788  0.01855103  0.61112735  1
  O  O345  1  0.49855580  0.50763853  0.11623359  1
  O  O346  1  0.50408328  0.50398366  0.62026998  1
  O  O347  1  0.24340942  0.37831145  0.24265721  1
  O  O348  1  0.25019397  0.37353639  0.73559144  1
  O  O349  1  0.24192791  0.87851102  0.24308772  1
  O  O350  1  0.25823846  0.88803562  0.74197646  1
  O  O351  1  0.74884450  0.38498901  0.24667585  1
  O  O352  1  0.76104222  0.36982353  0.73794612  1
  O  O353  1  0.73911839  0.86872723  0.24210434  1
  O  O354  1  0.74895143  0.89061880  0.75441518  1
  O  O355  1  0.24599365  0.11341436  0.25835225  1
  O  O356  1  0.25963065  0.11627429  0.75112636  1
  O  O357  1  0.25158325  0.61703180  0.25978531  1
  O  O358  1  0.25521412  0.62212366  0.75937732  1
  O  O359  1  0.76453930  0.12990828  0.24879337  1
  O  O360  1  0.75897274  0.12062747  0.75570259  1
  O  O361  1  0.75308786  0.62044412  0.26070991  1
  O  O362  1  0.76196816  0.62953360  0.76528412  1
  O  O363  1  0.36154460  0.13148938  0.36543242  1
  O  O364  1  0.37147008  0.11792623  0.86451007  1
  O  O365  1  0.36202509  0.61834005  0.37437174  1
  O  O366  1  0.36712294  0.61616499  0.86997110  1
  O  O367  1  0.87002649  0.11234027  0.36819702  1
  O  O368  1  0.87156240  0.12195327  0.86911842  1
  O  O369  1  0.86602101  0.62843872  0.36969653  1
  O  O370  1  0.86888919  0.62861607  0.86550137  1
  O  O371  1  0.13258794  0.38390260  0.13050816  1
  O  O372  1  0.13044964  0.38410887  0.62356189  1
  O  O373  1  0.13169824  0.87242054  0.13435166  1
  O  O374  1  0.13614103  0.88637096  0.62312227  1
  O  O375  1  0.63537027  0.38077494  0.13787496  1
  O  O376  1  0.63750923  0.38238100  0.62590587  1
  O  O377  1  0.63060850  0.87516582  0.13687340  1
  O  O378  1  0.58281947  0.88374728  0.63028833  1
  O  O379  1  0.11987642  0.25291125  0.25518294  1
  O  O380  1  0.11437226  0.24341388  0.74794924  1
  O  O381  1  0.12851128  0.76150823  0.25840962  1
  O  O382  1  0.11448176  0.74697145  0.76113624  1
  O  O383  1  0.61429647  0.26352728  0.24868332  1
  O  O384  1  0.61731160  0.24243489  0.76018691  1
  O  O385  1  0.61844762  0.75577396  0.26091514  1
  O  O386  1  0.61123755  0.74650562  0.74629260  1
  O  O387  1  0.38991939  0.25099205  0.24710791  1
  O  O388  1  0.38256849  0.23780296  0.74324610  1
  O  O389  1  0.37992571  0.74795249  0.23753044  1
  O  O390  1  0.37978657  0.73358334  0.74801222  1
  O  O391  1  0.88191325  0.24349836  0.24681663  1
  O  O392  1  0.88679442  0.24226265  0.74348687  1
  O  O393  1  0.86979470  0.74379962  0.23688843  1
  O  O394  1  0.88231006  0.74523925  0.74973871  1
  O  O395  1  0.38469355  0.50155607  0.49315443  1
  O  O396  1  0.38480600  0.50346534  0.99187534  1
  O  O397  1  0.39770155  1.01542881  0.49249857  1
  O  O398  1  0.38254054  0.99586816  0.99396813  1
  O  O399  1  0.88220893  0.49364200  0.50062276  1
  O  O400  1  0.87456083  0.48586656  1.01105673  1
  O  O401  1  0.87983686  0.99176666  0.49051245  1
  O  O402  1  0.88658615  1.00206954  0.99190775  1
  O  O403  1  0.11561913  0.00749925  -0.00157649  1
  O  O404  1  0.11427847  -0.00595239  0.50555441  1
  O  O405  1  0.12390006  0.50142104  0.01556442  1
  O  O406  1  0.11539330  0.50212337  0.51073149  1
  O  O407  1  0.61728993  0.00924540  0.00064563  1
  O  O408  1  0.59918521  0.00719361  0.48600763  1
  O  O409  1  0.60897032  0.49890987  0.00345313  1
  O  O410  1  0.61647234  0.50323271  0.50298907  1
  O  O411  1  0.36094551  0.37295268  0.12711540  1
  O  O412  1  0.36732951  0.36131437  0.62924814  1
  O  O413  1  0.36837466  0.86677720  0.11968723  1
  O  O414  1  0.37022893  0.87453171  0.62768323  1
  O  O415  1  0.87084761  0.36789106  0.12117529  1
  O  O416  1  0.87288044  0.37099129  0.61797457  1
  O  O417  1  0.86713583  0.86540365  0.12460574  1
  O  O418  1  0.87421120  0.87663446  0.61359660  1
  O  O419  1  0.13066714  0.13461988  0.36963507  1
  O  O420  1  0.13339901  0.12633622  0.88343785  1
  O  O421  1  0.13565659  0.63087208  0.37705002  1
  O  O422  1  0.13296407  0.63405246  0.87470617  1
  O  O423  1  0.63376439  0.13783822  0.36655154  1
  O  O424  1  0.63080969  0.13536108  0.88669517  1
  O  O425  1  0.63029503  0.63194153  0.37795025  1
  O  O426  1  0.63956784  0.62514341  0.87043182  1
