# generated using pymatgen
data_V85Zn86O256
_symmetry_space_group_name_H-M   'P 1'
_cell_length_a   16.96968399
_cell_length_b   16.96446823
_cell_length_c   16.94009612
_cell_angle_alpha   90.00902460
_cell_angle_beta   90.02744453
_cell_angle_gamma   90.00248606
_symmetry_Int_Tables_number   1
_chemical_formula_structural   V85Zn86O256
_chemical_formula_sum   'V85 Zn86 O256'
_cell_volume   4876.74245110
_cell_formula_units_Z   1
loop_
 _symmetry_equiv_pos_site_id
 _symmetry_equiv_pos_as_xyz
  1  'x, y, z'
loop_
 _atom_site_type_symbol
 _atom_site_label
 _atom_site_symmetry_multiplicity
 _atom_site_fract_x
 _atom_site_fract_y
 _atom_site_fract_z
 _atom_site_occupancy
  V  V0  1  0.00059528  0.12412930  0.12713967  1
  V  V1  1  0.11690822  0.74540749  0.86666542  1
  V  V2  1  0.74940960  0.62401607  0.87726067  1
  V  V3  1  0.62671301  0.74229357  0.37422303  1
  V  V4  1  0.94711251  -0.06756736  0.43213510  1
  V  V5  1  0.49671514  0.12573115  0.12242258  1
  V  V6  1  0.87285831  0.37704117  0.00236365  1
  V  V7  1  0.12029775  0.49973708  0.62871564  1
  V  V8  1  0.86930549  0.51486101  0.37311198  1
  V  V9  1  0.62449891  0.75020647  0.87479029  1
  V  V10  1  0.74668324  0.12924998  0.87418253  1
  V  V11  1  0.49693518  0.12833444  0.62585747  1
  V  V12  1  0.24671668  0.63586123  0.38303523  1
  V  V13  1  0.50445694  0.37692590  0.86534811  1
  V  V14  1  0.50106302  0.49881829  0.49779323  1
  V  V15  1  0.62476896  0.00190277  0.12354864  1
  V  V16  1  0.63013711  0.00016239  0.62428223  1
  V  V17  1  0.62076219  0.49955979  0.12537645  1
  V  V18  1  0.49987457  0.37175831  0.37424052  1
  V  V19  1  0.36882671  0.49696321  0.37543063  1
  V  V20  1  0.52189207  0.24729723  0.75665953  1
  V  V21  1  0.36977666  0.25128168  0.12061934  1
  V  V22  1  0.37293454  0.75327457  0.12463426  1
  V  V23  1  0.75173775  0.87968963  0.12660170  1
  V  V24  1  0.25168376  0.49965823  0.75272694  1
  V  V25  1  0.31437570  -0.04889615  0.81700958  1
  V  V26  1  0.36980086  0.12565302  0.76319497  1
  V  V27  1  0.88010784  0.25813962  0.62690272  1
  V  V28  1  0.49975608  0.24937426  0.24826730  1
  V  V29  1  0.49745496  0.75222929  0.24958680  1
  V  V30  1  0.74172621  0.25055489  -0.00214327  1
  V  V31  1  0.50298560  0.00388688  0.49475220  1
  V  V32  1  0.87667469  0.12448669  0.74464048  1
  V  V33  1  0.87590010  0.87484746  -0.00108327  1
  V  V34  1  0.87395129  0.00051602  0.87021721  1
  V  V35  1  0.23796107  0.87803341  0.12799314  1
  V  V36  1  0.00361335  0.37235643  0.88060037  1
  V  V37  1  -0.00202554  -0.00016910  -0.00008879  1
  V  V38  1  0.12371724  0.12764653  -0.01652294  1
  V  V39  1  0.74924607  0.75203717  0.00048640  1
  V  V40  1  0.23786386  0.00545476  0.25311893  1
  V  V41  1  0.75473923  0.00800116  0.26305510  1
  V  V42  1  0.74789587  0.37332144  0.62497790  1
  V  V43  1  0.88070766  0.62636504  0.74896867  1
  V  V44  1  0.87256340  0.50043505  0.88002840  1
  V  V45  1  0.24187670  0.37611026  0.12213699  1
  V  V46  1  0.87607881  0.74921364  0.13891784  1
  V  V47  1  0.36989251  0.12234503  0.25706876  1
  V  V48  1  -0.00804230  0.37644302  0.37980170  1
  V  V49  1  0.36938644  0.88168936  0.00128563  1
  V  V50  1  0.62010312  0.62531189  -0.00079743  1
  V  V51  1  0.01677498  0.76436462  0.26245865  1
  V  V52  1  -0.00135842  0.50106539  0.01088948  1
  V  V53  1  0.49018606  0.49726513  -0.00631266  1
  V  V54  1  -0.00843597  0.49958803  0.50614324  1
  V  V55  1  0.00448827  0.25082257  0.25359092  1
  V  V56  1  0.36395183  0.74986263  0.62081329  1
  V  V57  1  0.49832922  0.87662788  0.87275513  1
  V  V58  1  0.63592536  0.12792592  0.49732161  1
  V  V59  1  0.62501091  0.49563210  0.62470086  1
  V  V60  1  0.50238814  0.74524333  0.74462679  1
  V  V61  1  0.13561078  0.11935232  0.50723639  1
  V  V62  1  0.00143739  0.62633026  0.13649718  1
  V  V63  1  -0.00228557  0.86906188  0.86119795  1
  V  V64  1  0.74450577  0.49440999  0.75211641  1
  V  V65  1  0.75291910  0.74122134  0.49734445  1
  V  V66  1  0.24576559  0.24650651  -0.01902032  1
  V  V67  1  0.74638286  0.37450566  0.13063508  1
  V  V68  1  0.13551550  -0.00786268  0.63716231  1
  V  V69  1  0.87843497  0.75465732  0.62864840  1
  V  V70  1  0.49621289  0.00267653  -0.00541101  1
  V  V71  1  0.62540174  0.87334279  0.74769214  1
  V  V72  1  0.76354607  0.25178058  0.49519892  1
  V  V73  1  0.23813162  0.50150653  0.24602243  1
  V  V74  1  0.37672735  0.61492272  0.75006239  1
  V  V75  1  0.13810241  0.25397428  0.39036709  1
  V  V76  1  0.37193421  0.62583580  0.24905696  1
  V  V77  1  0.12383838  0.62116821  0.00392211  1
  V  V78  1  0.74828439  0.87297839  0.61626720  1
  V  V79  1  0.63121710  0.24740457  0.37367358  1
  V  V80  1  0.49546462  0.87794667  0.37232399  1
  V  V81  1  0.13050801  0.37020718  0.75876840  1
  V  V82  1  0.87543201  0.24928269  0.12666760  1
  V  V83  1  0.25228135  0.61870997  0.87777149  1
  V  V84  1  0.00399529  0.25038431  0.75659629  1
  Zn  Zn85  1  0.24520540  0.75047932  0.00090606  1
  Zn  Zn86  1  0.62093913  0.12912538  -0.00573400  1
  Zn  Zn87  1  0.62883943  0.61979491  0.49453658  1
  Zn  Zn88  1  0.37135737  0.25255300  0.62603179  1
  Zn  Zn89  1  0.12941158  0.87101227  0.74313352  1
  Zn  Zn90  1  0.74551905  0.52608064  0.26491048  1
  Zn  Zn91  1  0.12373187  0.63174958  0.49108451  1
  Zn  Zn92  1  0.24792304  0.36867120  0.61311039  1
  Zn  Zn93  1  0.49443337  0.62372740  0.12170574  1
  Zn  Zn94  1  0.87725595  0.12393245  0.26690874  1
  Zn  Zn95  1  0.11897267  -0.00183438  0.12480389  1
  Zn  Zn96  1  0.36910554  0.37540144  -0.01596596  1
  Zn  Zn97  1  0.12226645  0.37667304  0.24909388  1
  Zn  Zn98  1  0.36414672  0.35863596  0.49670489  1
  Zn  Zn99  1  0.62489479  0.87659337  0.25074690  1
  Zn  Zn100  1  0.00209601  0.12026261  0.62075211  1
  Zn  Zn101  1  0.35236193  -0.00101718  0.39164590  1
  Zn  Zn102  1  0.50069092  0.62210474  0.62083134  1
  Zn  Zn103  1  0.01276530  0.64875808  0.61685229  1
  Zn  Zn104  1  0.62644155  0.37817412  0.25186357  1
  Zn  Zn105  1  0.36705338  0.86441632  0.50286923  1
  Zn  Zn106  1  0.75287608  -0.00147866  0.74642947  1
  Zn  Zn107  1  0.18382390  0.18759051  0.18319874  1
  Zn  Zn108  1  0.19342212  0.18462184  0.68708175  1
  Zn  Zn109  1  0.18613358  0.68847456  0.18905496  1
  Zn  Zn110  1  0.16928256  0.69921045  0.66634604  1
  Zn  Zn111  1  0.68569618  0.18613681  0.18596326  1
  Zn  Zn112  1  0.69331793  0.18429686  0.68349237  1
  Zn  Zn113  1  0.68258109  0.68896827  0.18753150  1
  Zn  Zn114  1  0.68965865  0.68111900  0.68509978  1
  Zn  Zn115  1  0.31313600  0.31503302  0.30713272  1
  Zn  Zn116  1  0.31745153  0.30559721  0.79351156  1
  Zn  Zn117  1  0.30460724  0.82020799  0.31188676  1
  Zn  Zn118  1  0.30955386  0.78574555  0.80992526  1
  Zn  Zn119  1  0.81742424  0.31305699  0.31145752  1
  Zn  Zn120  1  0.81167103  0.31358147  0.81295881  1
  Zn  Zn121  1  0.81172417  0.81627736  0.31514186  1
  Zn  Zn122  1  0.81032474  0.81400866  0.80877102  1
  Zn  Zn123  1  0.17952529  0.44012016  0.43830011  1
  Zn  Zn124  1  0.18532874  0.43824311  0.93994544  1
  Zn  Zn125  1  0.19114501  0.93776939  0.44535550  1
  Zn  Zn126  1  0.17790018  0.93478704  0.94064726  1
  Zn  Zn127  1  0.69099522  0.43223672  0.43967518  1
  Zn  Zn128  1  0.68126056  0.43488092  0.93971212  1
  Zn  Zn129  1  0.68205649  0.92882222  0.43647002  1
  Zn  Zn130  1  0.68660546  0.94038159  0.93716366  1
  Zn  Zn131  1  0.30684619  0.06552177  0.06063887  1
  Zn  Zn132  1  0.30536400  0.05080493  0.55494505  1
  Zn  Zn133  1  0.31075957  0.56176573  0.06348181  1
  Zn  Zn134  1  0.31114655  0.55286165  0.56321417  1
  Zn  Zn135  1  0.81471069  0.06507576  0.06320316  1
  Zn  Zn136  1  0.81667708  0.06133875  0.44448226  1
  Zn  Zn137  1  0.79882852  0.57812214  0.09394797  1
  Zn  Zn138  1  0.81661531  0.56356613  0.56209185  1
  Zn  Zn139  1  0.43274477  0.43504557  0.18675140  1
  Zn  Zn140  1  0.43892930  0.43021589  0.68572479  1
  Zn  Zn141  1  0.43206984  0.94069679  0.18859881  1
  Zn  Zn142  1  0.44185259  0.93534837  0.67919125  1
  Zn  Zn143  1  0.93427510  0.43853665  0.19273898  1
  Zn  Zn144  1  0.93502904  0.43699868  0.69269365  1
  Zn  Zn145  1  0.93738255  0.93746866  0.19466003  1
  Zn  Zn146  1  0.94602141  0.93556830  0.59750014  1
  Zn  Zn147  1  0.06684085  0.07005341  0.32103729  1
  Zn  Zn148  1  0.05866877  0.05461611  0.80372014  1
  Zn  Zn149  1  0.06067290  0.56539130  0.31699747  1
  Zn  Zn150  1  0.06185464  0.55800880  0.81472690  1
  Zn  Zn151  1  0.56531937  0.06527139  0.30948146  1
  Zn  Zn152  1  0.56465515  0.06080861  0.81206682  1
  Zn  Zn153  1  0.55789625  0.56304893  0.30856072  1
  Zn  Zn154  1  0.56304926  0.55819029  0.81276073  1
  Zn  Zn155  1  0.43781227  0.18245812  0.44046975  1
  Zn  Zn156  1  0.43625189  0.19339389  0.93232635  1
  Zn  Zn157  1  0.43632579  0.68390028  0.43634686  1
  Zn  Zn158  1  0.43461278  0.68934766  0.93625098  1
  Zn  Zn159  1  0.94919161  0.18462614  0.44002396  1
  Zn  Zn160  1  0.93314812  0.18784219  0.93911209  1
  Zn  Zn161  1  0.93692956  0.69044089  0.44010791  1
  Zn  Zn162  1  0.93555618  0.68690451  0.94262411  1
  Zn  Zn163  1  0.06564987  0.30777128  0.06124907  1
  Zn  Zn164  1  0.06257630  0.31641270  0.56533652  1
  Zn  Zn165  1  0.05830691  0.80688795  0.05847772  1
  Zn  Zn166  1  0.09870823  0.81983445  0.52376198  1
  Zn  Zn167  1  0.55879932  0.31585491  0.05785609  1
  Zn  Zn168  1  0.56066774  0.31132633  0.56120882  1
  Zn  Zn169  1  0.56001124  0.81646750  0.06249820  1
  Zn  Zn170  1  0.55987284  0.81227654  0.55702659  1
  O  O171  1  0.10889673  0.12755722  0.11493954  1
  O  O172  1  0.12509024  0.12404686  0.62208192  1
  O  O173  1  0.11568647  0.63168573  0.11480864  1
  O  O174  1  0.11089741  0.59874039  0.66239035  1
  O  O175  1  0.61701591  0.11560247  0.12105143  1
  O  O176  1  0.62435422  0.11591847  0.61894699  1
  O  O177  1  0.61484931  0.61686092  0.11580391  1
  O  O178  1  0.62320058  0.60864043  0.62278237  1
  O  O179  1  0.38280652  0.38080018  0.37409559  1
  O  O180  1  0.39572450  0.36188632  0.87083989  1
  O  O181  1  0.38622253  0.87895087  0.37367297  1
  O  O182  1  0.37351940  0.88000379  0.87634272  1
  O  O183  1  0.88906888  0.37755333  0.37506109  1
  O  O184  1  0.87967531  0.38248140  0.88282050  1
  O  O185  1  0.88099572  0.87998967  0.37723672  1
  O  O186  1  0.87723743  0.88112750  0.87703134  1
  O  O187  1  0.23957855  0.00628903  0.35532247  1
  O  O188  1  0.25506772  -0.00080386  0.87992164  1
  O  O189  1  0.25631520  0.50580017  0.36454420  1
  O  O190  1  0.24673830  0.51220283  0.87385121  1
  O  O191  1  0.74392174  -0.00103796  0.36678068  1
  O  O192  1  0.76098793  0.00473254  0.87392447  1
  O  O193  1  0.76282008  0.49535241  0.37609673  1
  O  O194  1  0.75086793  0.50162410  0.87061005  1
  O  O195  1  0.25740125  0.48936376  0.13401665  1
  O  O196  1  0.23962579  0.49981915  0.63891298  1
  O  O197  1  0.24548443  0.99256722  0.12878485  1
  O  O198  1  0.23491097  1.01267922  0.63694110  1
  O  O199  1  0.73090458  0.48585756  0.11021144  1
  O  O200  1  0.74687676  0.49262489  0.63082848  1
  O  O201  1  0.74350467  0.99345211  0.12532618  1
  O  O202  1  0.73673172  0.98959439  0.62361594  1
  O  O203  1  0.00232207  0.36803520  0.25569072  1
  O  O204  1  0.00631156  0.37195196  0.76300165  1
  O  O205  1  0.00171201  0.86355681  0.24883298  1
  O  O206  1  0.00151558  0.87481198  0.76332320  1
  O  O207  1  0.50047628  0.36967167  0.26001832  1
  O  O208  1  0.50476319  0.36181680  0.75599983  1
  O  O209  1  0.50034397  0.87120956  0.25474526  1
  O  O210  1  0.50561214  0.86671106  0.75395863  1
  O  O211  1  0.49231751  0.12895502  0.24108977  1
  O  O212  1  0.50675193  0.13202001  0.74445157  1
  O  O213  1  0.48935461  0.63389273  0.24597123  1
  O  O214  1  0.49358787  0.62894625  0.75049426  1
  O  O215  1  0.99919087  0.13210676  0.24420049  1
  O  O216  1  0.99230928  0.13620820  0.75444401  1
  O  O217  1  1.00511504  0.63025507  0.23893692  1
  O  O218  1  0.98140842  0.61807708  0.75697358  1
  O  O219  1  0.36460651  0.24846918  0.00578294  1
  O  O220  1  0.38960949  0.24834606  0.51293239  1
  O  O221  1  0.37298856  0.76324449  0.00572501  1
  O  O222  1  0.38074598  0.74736490  0.51505105  1
  O  O223  1  0.86611358  0.25744052  0.00838612  1
  O  O224  1  0.86771265  0.24682594  0.51138406  1
  O  O225  1  0.86731885  0.75904411  0.00636736  1
  O  O226  1  0.86581886  0.74469343  0.51629566  1
  O  O227  1  0.13405293  0.26154343  0.49261837  1
  O  O228  1  0.13423918  0.24177568  0.99749323  1
  O  O229  1  0.11131529  0.71549254  0.56607251  1
  O  O230  1  0.12307199  0.73655881  0.98962252  1
  O  O231  1  0.63634372  0.24549736  0.49373819  1
  O  O232  1  0.63796723  0.24748854  1.00655684  1
  O  O233  1  0.62896094  0.74509569  0.49087215  1
  O  O234  1  0.62735437  0.74719461  0.99497476  1
  O  O235  1  0.49161855  0.24690441  0.12734341  1
  O  O236  1  0.50917777  0.24176229  0.63814742  1
  O  O237  1  0.48671410  0.75370609  0.12856460  1
  O  O238  1  0.50208222  0.74473683  0.63564096  1
  O  O239  1  0.99548630  0.24555544  0.13215472  1
  O  O240  1  0.99323260  0.25769948  0.63868414  1
  O  O241  1  0.99343028  0.74596027  0.13456919  1
  O  O242  1  0.97642507  0.75902794  0.63619742  1
  O  O243  1  0.00872755  0.26002786  0.36917004  1
  O  O244  1  -0.01052368  0.26417514  0.87196550  1
  O  O245  1  -0.00382625  0.74372491  0.35951933  1
  O  O246  1  0.00479040  0.75562226  0.87999091  1
  O  O247  1  0.50745890  0.25593003  0.36949402  1
  O  O248  1  0.50843065  0.25356639  0.86303277  1
  O  O249  1  0.50273215  0.75631854  0.36936988  1
  O  O250  1  0.50229034  0.75594258  0.86311238  1
  O  O251  1  0.23569676  0.13532637  0.50944320  1
  O  O252  1  0.23730590  0.13542032  1.00180732  1
  O  O253  1  0.25136215  0.61880603  0.48565723  1
  O  O254  1  0.24176764  0.62453849  0.99589504  1
  O  O255  1  0.74249673  0.13429487  0.50101020  1
  O  O256  1  0.75129212  0.13375800  0.99321261  1
  O  O257  1  0.74664513  0.63701583  0.50422130  1
  O  O258  1  0.74069329  0.63254684  0.99793295  1
  O  O259  1  0.25130284  0.36827949  0.00433552  1
  O  O260  1  0.25565124  0.39327441  0.50205802  1
  O  O261  1  0.25556551  0.87388326  0.00658870  1
  O  O262  1  0.29483495  0.94915403  0.49174752  1
  O  O263  1  0.75252125  0.36734003  0.00680413  1
  O  O264  1  0.74928137  0.36481739  0.51476870  1
  O  O265  1  0.75500801  0.87348072  0.00682571  1
  O  O266  1  0.74139709  0.86357276  0.51097813  1
  O  O267  1  0.13542269  0.50020080  0.25227524  1
  O  O268  1  0.13068229  0.48471869  0.75462962  1
  O  O269  1  0.13447040  1.01242336  0.24213616  1
  O  O270  1  0.12922942  0.99029065  0.74508803  1
  O  O271  1  0.62838701  0.49991438  0.24061016  1
  O  O272  1  0.63729178  0.50185542  0.74315196  1
  O  O273  1  0.63495348  1.00027184  0.23980992  1
  O  O274  1  0.62685873  0.99202785  0.74047922  1
  O  O275  1  0.36304958  0.00943311  0.24999426  1
  O  O276  1  0.37986909  0.00340199  0.75254135  1
  O  O277  1  0.36984447  0.50452695  0.25903162  1
  O  O278  1  0.36974248  0.50818284  0.74552513  1
  O  O279  1  0.85740530  0.00366421  0.24580416  1
  O  O280  1  0.87229377  0.01201210  0.75882202  1
  O  O281  1  0.87253680  0.49727746  0.26895343  1
  O  O282  1  0.86295087  0.50521135  0.75778582  1
  O  O283  1  0.11425977  0.36879821  0.37138423  1
  O  O284  1  0.11303654  0.37680586  0.87297017  1
  O  O285  1  0.15175538  0.84052799  0.42755850  1
  O  O286  1  0.11349714  0.86310585  0.87760271  1
  O  O287  1  0.61884306  0.36489336  0.37290336  1
  O  O288  1  0.60555979  0.37266421  0.88287258  1
  O  O289  1  0.61163323  0.86273008  0.37229371  1
  O  O290  1  0.62029540  0.86871208  0.86918990  1
  O  O291  1  0.37850724  0.13529828  0.12830956  1
  O  O292  1  0.39354038  0.11790176  0.63760068  1
  O  O293  1  0.37387559  0.63636958  0.12877234  1
  O  O294  1  0.37846145  0.63006781  0.63154088  1
  O  O295  1  0.88616771  0.13255640  0.12550073  1
  O  O296  1  0.87980798  0.14028082  0.63984167  1
  O  O297  1  0.89221700  0.64217163  0.10966001  1
  O  O298  1  0.87637270  0.63461194  0.63411887  1
  O  O299  1  0.25539942  0.25698636  0.11955929  1
  O  O300  1  0.26254188  0.26949247  0.67134576  1
  O  O301  1  0.25878129  0.75826056  0.12470503  1
  O  O302  1  0.26647942  0.74860589  0.63309649  1
  O  O303  1  0.75426440  0.25556059  0.11973427  1
  O  O304  1  0.75788201  0.25633175  0.62006618  1
  O  O305  1  0.75373503  0.76573820  0.12062788  1
  O  O306  1  0.75002363  0.75520932  0.61730056  1
  O  O307  1  0.23417975  0.25778113  0.36633387  1
  O  O308  1  0.25656086  0.25494580  0.88332605  1
  O  O309  1  0.26300520  0.73290821  0.37149219  1
  O  O310  1  0.23858354  0.73507597  0.88110112  1
  O  O311  1  0.74382359  0.26059339  0.38390606  1
  O  O312  1  0.75764837  0.24157104  0.88509599  1
  O  O313  1  0.73993197  0.75784083  0.38418078  1
  O  O314  1  0.74402827  0.74594049  0.88145557  1
  O  O315  1  0.00110649  0.12016014  0.00598163  1
  O  O316  1  0.02652129  0.14871052  0.51172433  1
  O  O317  1  0.00611774  0.61700867  0.00621350  1
  O  O318  1  -0.00157526  0.61257491  0.50296226  1
  O  O319  1  0.49946047  0.11839001  0.00268251  1
  O  O320  1  0.52277654  0.12816927  0.51027662  1
  O  O321  1  0.50221264  0.61747337  -0.00318570  1
  O  O322  1  0.50393919  0.60964625  0.49735121  1
  O  O323  1  0.50261338  0.38373327  0.48662996  1
  O  O324  1  0.49311883  0.38124540  0.98998294  1
  O  O325  1  0.49442892  0.88840742  0.49260349  1
  O  O326  1  0.48978962  0.88115190  0.99266731  1
  O  O327  1  1.00552719  0.38844914  0.49242617  1
  O  O328  1  0.99637253  0.38141129  0.99951114  1
  O  O329  1  0.99458632  0.87472024  0.50578636  1
  O  O330  1  0.99124531  0.88081436  0.99522996  1
  O  O331  1  0.49423474  0.49164559  0.37739971  1
  O  O332  1  0.49977073  0.48779147  0.87828596  1
  O  O333  1  0.50933473  0.99108290  0.37883392  1
  O  O334  1  0.50759285  0.99268048  0.88770062  1
  O  O335  1  0.99189073  0.49607536  0.38212400  1
  O  O336  1  0.99299492  0.49110673  0.88741210  1
  O  O337  1  1.00761988  0.99127530  0.37610976  1
  O  O338  1  0.98749169  0.99212711  0.87888993  1
  O  O339  1  -0.00357079  0.00793387  0.12059219  1
  O  O340  1  0.02054153  0.00840734  0.63584110  1
  O  O341  1  -0.00731300  0.50819914  0.11780955  1
  O  O342  1  0.00207038  0.49246723  0.61850117  1
  O  O343  1  0.50577492  0.00233760  0.11578919  1
  O  O344  1  0.51250319  0.00513631  0.61639849  1
  O  O345  1  0.50702923  0.49629796  0.11778103  1
  O  O346  1  0.50830130  0.49675220  0.61531157  1
  O  O347  1  0.24804086  0.38441295  0.24063464  1
  O  O348  1  0.24252243  0.39129962  0.76994604  1
  O  O349  1  0.25204453  0.89285469  0.24032325  1
  O  O350  1  0.25907406  0.88178751  0.76641780  1
  O  O351  1  0.74916041  0.37399731  0.23621943  1
  O  O352  1  0.75282281  0.38194840  0.73988074  1
  O  O353  1  0.74739047  0.88780994  0.24247276  1
  O  O354  1  0.73981043  0.87522789  0.73873803  1
  O  O355  1  0.25726778  0.11417122  0.23602796  1
  O  O356  1  0.27131384  0.12701153  0.75712644  1
  O  O357  1  0.25471256  0.61834790  0.25401831  1
  O  O358  1  0.25657004  0.61321751  0.75847620  1
  O  O359  1  0.75023211  0.11021656  0.24489838  1
  O  O360  1  0.75979545  0.12449345  0.75676846  1
  O  O361  1  0.76319996  0.61579987  0.20109383  1
  O  O362  1  0.75571702  0.61485873  0.75824751  1
  O  O363  1  0.37864072  0.12464266  0.35872501  1
  O  O364  1  0.38804713  0.11704298  0.86171366  1
  O  O365  1  0.36785360  0.61566571  0.36839642  1
  O  O366  1  0.36409901  0.63302817  0.86414592  1
  O  O367  1  0.87422691  0.13159426  0.37934534  1
  O  O368  1  0.86741307  0.11875782  0.86899766  1
  O  O369  1  0.87345748  0.61339106  0.37648492  1
  O  O370  1  0.86622219  0.61981167  0.87362290  1
  O  O371  1  0.13803855  0.37082380  0.12625668  1
  O  O372  1  0.12681693  0.38342510  0.64066478  1
  O  O373  1  0.13573759  0.87358714  0.11522558  1
  O  O374  1  0.13158635  0.88845147  0.62330664  1
  O  O375  1  0.62871654  0.38034309  0.12688565  1
  O  O376  1  0.63235653  0.38591391  0.62131148  1
  O  O377  1  0.63224151  0.88518470  0.12480372  1
  O  O378  1  0.62678421  0.87979605  0.62758095  1
  O  O379  1  0.11365218  0.24930277  0.25466341  1
  O  O380  1  0.11165681  0.25901927  0.75217389  1
  O  O381  1  0.11578700  0.75289393  0.25009064  1
  O  O382  1  0.13080530  0.75309539  0.76238724  1
  O  O383  1  0.61901310  0.25028044  0.25645436  1
  O  O384  1  0.62059294  0.24468581  0.74996720  1
  O  O385  1  0.61642982  0.75358262  0.25360903  1
  O  O386  1  0.61956353  0.75084643  0.75422942  1
  O  O387  1  0.37962508  0.24361761  0.24141860  1
  O  O388  1  0.39667177  0.23243230  0.74940058  1
  O  O389  1  0.37705953  0.74901205  0.24133194  1
  O  O390  1  0.38469482  0.73684400  0.73996667  1
  O  O391  1  0.88685528  0.24793987  0.24401176  1
  O  O392  1  0.88430384  0.24723678  0.74760864  1
  O  O393  1  0.87619496  0.75459362  0.24028350  1
  O  O394  1  0.85867063  0.73840044  0.73799509  1
  O  O395  1  0.38471925  0.50182788  0.48562319  1
  O  O396  1  0.38691072  0.49836613  1.00403551  1
  O  O397  1  0.40701644  1.04319033  0.49130093  1
  O  O398  1  0.38173682  0.99013629  1.00632386  1
  O  O399  1  0.88055446  0.50036601  0.48957616  1
  O  O400  1  0.88154434  0.49499186  0.99803575  1
  O  O401  1  0.88928428  0.99122961  0.49876241  1
  O  O402  1  0.87824023  0.99501464  0.99212210  1
  O  O403  1  0.11390664  0.00778777  0.00336000  1
  O  O404  1  0.12995800  0.01620782  0.51086852  1
  O  O405  1  0.11367225  0.51163915  -0.00277201  1
  O  O406  1  0.11534705  0.50870243  0.51451200  1
  O  O407  1  0.61655154  0.00105237  0.00890310  1
  O  O408  1  0.62161169  0.00778669  0.50292070  1
  O  O409  1  0.61062792  0.50464670  0.00495603  1
  O  O410  1  0.61959927  0.49933599  0.50431118  1
  O  O411  1  0.36656814  0.36188373  0.12307345  1
  O  O412  1  0.37160756  0.37400311  0.61843490  1
  O  O413  1  0.36645696  0.87102042  0.11742661  1
  O  O414  1  0.38232729  0.85476515  0.62513712  1
  O  O415  1  0.86562169  0.37157909  0.12107752  1
  O  O416  1  0.86698906  0.36427821  0.63211122  1
  O  O417  1  0.86771110  0.87062157  0.12057019  1
  O  O418  1  0.86080222  0.86438492  0.63183039  1
  O  O419  1  0.12311245  0.14449909  0.39115518  1
  O  O420  1  0.11171821  0.11980435  0.88511948  1
  O  O421  1  0.14121674  0.62427165  0.37556774  1
  O  O422  1  0.12827720  0.62830372  0.88036044  1
  O  O423  1  0.62235357  0.13912337  0.38124378  1
  O  O424  1  0.64286636  0.11591249  0.87693575  1
  O  O425  1  0.62158152  0.63772629  0.37049179  1
  O  O426  1  0.62932162  0.63054040  0.87946121  1
