# generated using pymatgen
data_V85Zn86O256
_symmetry_space_group_name_H-M   'P 1'
_cell_length_a   16.94355114
_cell_length_b   16.94292311
_cell_length_c   16.94380463
_cell_angle_alpha   90.05047961
_cell_angle_beta   89.93204220
_cell_angle_gamma   89.96989893
_symmetry_Int_Tables_number   1
_chemical_formula_structural   V85Zn86O256
_chemical_formula_sum   'V85 Zn86 O256'
_cell_volume   4864.10765806
_cell_formula_units_Z   1
loop_
 _symmetry_equiv_pos_site_id
 _symmetry_equiv_pos_as_xyz
  1  'x, y, z'
loop_
 _atom_site_type_symbol
 _atom_site_label
 _atom_site_symmetry_multiplicity
 _atom_site_fract_x
 _atom_site_fract_y
 _atom_site_fract_z
 _atom_site_occupancy
  V  V0  1  0.87392084  0.75261964  0.10508523  1
  V  V1  1  0.62412381  0.25530367  0.87636615  1
  V  V2  1  -0.00598892  -0.00949904  0.00008328  1
  V  V3  1  0.13273610  -0.01190567  0.12902030  1
  V  V4  1  0.75050108  0.24440745  0.49807208  1
  V  V5  1  0.00014549  0.50302467  0.49341971  1
  V  V6  1  0.62580335  0.49700359  0.12681355  1
  V  V7  1  0.12575350  0.12376269  0.00266586  1
  V  V8  1  0.87548556  0.24993936  0.12690610  1
  V  V9  1  0.50782248  0.37507705  0.36181976  1
  V  V10  1  0.62887017  0.74570063  0.86940814  1
  V  V11  1  0.38297428  0.62825319  0.25850771  1
  V  V12  1  0.37657161  0.74580943  0.12627377  1
  V  V13  1  0.37067864  0.87204031  0.00027453  1
  V  V14  1  0.50472874  0.63004265  0.12704064  1
  V  V15  1  0.24910679  0.24871364  0.49742398  1
  V  V16  1  0.87393943  0.87186648  0.50036945  1
  V  V17  1  0.38017456  0.24172461  0.62455925  1
  V  V18  1  0.37698796  0.50118525  0.37534707  1
  V  V19  1  0.50775843  0.50317161  0.51505696  1
  V  V20  1  0.11643224  0.61494187  0.00419258  1
  V  V21  1  -0.00049871  0.12334239  0.62632662  1
  V  V22  1  0.00193111  0.25228840  0.75266837  1
  V  V23  1  0.50311954  -0.00266971  0.00229973  1
  V  V24  1  0.49862604  0.50219977  -0.00045737  1
  V  V25  1  0.25287281  0.62202576  0.88170631  1
  V  V26  1  0.50671666  0.13123469  0.13486639  1
  V  V27  1  0.24668170  0.75181356  0.00540186  1
  V  V28  1  0.37335555  0.12747420  0.25149360  1
  V  V29  1  0.86923513  0.12324645  0.25507171  1
  V  V30  1  0.37508046  0.00092677  0.87649529  1
  V  V31  1  0.87101380  -0.00101451  0.37609527  1
  V  V32  1  0.25663800  0.87007789  0.62300496  1
  V  V33  1  0.87964228  0.37391266  0.49806224  1
  V  V34  1  0.38398539  0.87096496  0.50292878  1
  V  V35  1  -0.00002349  -0.00368256  0.49779449  1
  V  V36  1  0.74654929  0.38419244  0.62784963  1
  V  V37  1  0.87531813  0.12355922  0.75201663  1
  V  V38  1  0.12431803  0.12401868  0.49782225  1
  V  V39  1  0.11749009  0.50355811  0.62362108  1
  V  V40  1  0.12240327  0.63229098  0.49958717  1
  V  V41  1  0.12404177  0.87139056  0.74987857  1
  V  V42  1  0.12669394  0.25112937  0.87697772  1
  V  V43  1  0.75270857  0.12598887  0.87632439  1
  V  V44  1  0.75574550  0.62865610  0.86845988  1
  V  V45  1  0.50132055  0.86997156  0.86813388  1
  V  V46  1  0.87857468  0.50051064  0.88124656  1
  V  V47  1  0.63588773  0.62754981  -0.00283458  1
  V  V48  1  -0.00331993  0.62122250  0.12509646  1
  V  V49  1  0.49634050  0.37419707  0.87610024  1
  V  V50  1  0.25648297  0.74272252  0.49990623  1
  V  V51  1  0.27414213  0.53205765  0.71882738  1
  V  V52  1  0.37947913  0.37333506  0.49881262  1
  V  V53  1  0.00019392  0.12373689  0.12885366  1
  V  V54  1  0.62668340  0.12096982  0.00542995  1
  V  V55  1  0.12820258  0.37837385  0.74920879  1
  V  V56  1  0.74517386  0.50404934  0.25699283  1
  V  V57  1  0.00206445  0.74430044  0.73659496  1
  V  V58  1  0.12479250  -0.00156557  0.62534917  1
  V  V59  1  0.25216922  0.25005992  0.00397460  1
  V  V60  1  0.62796451  0.24887403  0.36269372  1
  V  V61  1  0.01326290  0.86372624  0.36173246  1
  V  V62  1  0.75019486  -0.00867410  0.24786621  1
  V  V63  1  0.57101630  -0.05903954  0.18711406  1
  V  V64  1  0.87192386  0.49696506  0.37380913  1
  V  V65  1  0.24672336  0.49950785  0.25504383  1
  V  V66  1  0.48642815  0.72836949  0.73921522  1
  V  V67  1  0.37891269  0.25293936  0.13169066  1
  V  V68  1  0.11572827  0.37632401  0.25348402  1
  V  V69  1  0.87425819  0.63727604  0.25851447  1
  V  V70  1  0.61913461  0.12676482  0.50625616  1
  V  V71  1  0.24857400  0.37005708  0.62698745  1
  V  V72  1  0.75344134  0.87457918  0.11265175  1
  V  V73  1  0.12346184  0.74821399  0.87453855  1
  V  V74  1  0.37204982  0.50035541  0.87657761  1
  V  V75  1  0.37782293  0.00266369  0.37948374  1
  V  V76  1  0.75163483  0.25892645  0.00234680  1
  V  V77  1  0.11712283  0.25359252  0.37551092  1
  V  V78  1  0.25003868  -0.00128507  0.75175972  1
  V  V79  1  0.74840643  0.37580873  0.13254097  1
  V  V80  1  0.74486773  0.74191793  0.49647427  1
  V  V81  1  0.61980544  0.74790211  0.36364414  1
  V  V82  1  0.50082873  0.24219361  0.74838828  1
  V  V83  1  0.19253203  0.68359665  0.31754533  1
  V  V84  1  0.87791775  0.61707073  0.73803394  1
  Zn  Zn85  1  0.11834810  0.49819122  0.12574785  1
  Zn  Zn86  1  0.61919157  0.00216840  0.63453501  1
  Zn  Zn87  1  0.74917486  -0.00442229  0.74706396  1
  Zn  Zn88  1  0.74597612  0.87893643  0.62359491  1
  Zn  Zn89  1  0.00568381  0.38509153  0.88224043  1
  Zn  Zn90  1  0.49877590  0.00675446  0.50922718  1
  Zn  Zn91  1  0.86998197  -0.00863459  0.88002292  1
  Zn  Zn92  1  -0.00502218  0.25460174  0.25492349  1
  Zn  Zn93  1  0.24201874  -0.00552653  0.25844842  1
  Zn  Zn94  1  0.24775563  0.12425597  0.37293879  1
  Zn  Zn95  1  0.24834818  0.37676530  0.12862762  1
  Zn  Zn96  1  -0.00928623  0.86699186  0.87696900  1
  Zn  Zn97  1  0.25232029  0.12558618  0.87448083  1
  Zn  Zn98  1  0.37364658  0.37529042  0.00459576  1
  Zn  Zn99  1  0.62914129  0.87438760  0.74633504  1
  Zn  Zn100  1  0.87685090  0.74833288  0.62086522  1
  Zn  Zn101  1  0.62515027  0.62317100  0.50965625  1
  Zn  Zn102  1  0.50790450  0.87654000  0.36947657  1
  Zn  Zn103  1  0.38063137  0.11725939  0.74280968  1
  Zn  Zn104  1  0.62682935  0.37748518  0.73930122  1
  Zn  Zn105  1  0.88512047  0.38290575  0.00698964  1
  Zn  Zn106  1  0.87387169  0.25127830  0.62594560  1
  Zn  Zn107  1  0.18825383  0.18723056  0.18977252  1
  Zn  Zn108  1  0.18852227  0.18457865  0.68808029  1
  Zn  Zn109  1  0.20084877  0.82062678  0.18631326  1
  Zn  Zn110  1  0.19944570  0.68426268  0.68295497  1
  Zn  Zn111  1  0.69150315  0.18299964  0.19005327  1
  Zn  Zn112  1  0.69095009  0.19254901  0.68607605  1
  Zn  Zn113  1  0.69495762  0.68819478  0.18616417  1
  Zn  Zn114  1  0.69245511  0.69377303  0.68406185  1
  Zn  Zn115  1  0.30880776  0.31395069  0.31374907  1
  Zn  Zn116  1  0.31338454  0.31162880  0.81176759  1
  Zn  Zn117  1  0.32464505  0.81230934  0.31952054  1
  Zn  Zn118  1  0.31362373  0.80999416  0.81336836  1
  Zn  Zn119  1  0.81000861  0.31555349  0.31304333  1
  Zn  Zn120  1  0.81350324  0.31486944  0.81211480  1
  Zn  Zn121  1  0.80663661  0.81710896  0.31842914  1
  Zn  Zn122  1  0.81606088  0.81246349  0.81136308  1
  Zn  Zn123  1  0.18806411  0.43745328  0.43544460  1
  Zn  Zn124  1  0.18847710  0.43462983  0.93946951  1
  Zn  Zn125  1  0.19058326  0.93448407  0.43769449  1
  Zn  Zn126  1  0.18456597  0.93489478  0.93922589  1
  Zn  Zn127  1  0.68840710  0.43362802  0.44004303  1
  Zn  Zn128  1  0.65099510  0.48508700  0.87832319  1
  Zn  Zn129  1  0.68665509  0.93454014  0.43652359  1
  Zn  Zn130  1  0.68632204  0.93768407  0.93078059  1
  Zn  Zn131  1  0.31405936  0.06441039  0.06483547  1
  Zn  Zn132  1  0.31094244  0.06013599  0.56119909  1
  Zn  Zn133  1  0.30955145  0.56267500  0.06688061  1
  Zn  Zn134  1  0.30928913  0.56131181  0.55004927  1
  Zn  Zn135  1  0.81057329  0.06196537  0.06659822  1
  Zn  Zn136  1  0.80862029  0.06286465  0.56364012  1
  Zn  Zn137  1  0.81259565  0.56470187  0.06346853  1
  Zn  Zn138  1  0.80935702  0.56277066  0.56218141  1
  Zn  Zn139  1  0.43628565  0.44243253  0.18701538  1
  Zn  Zn140  1  0.43711719  0.42873436  0.69117800  1
  Zn  Zn141  1  0.38856611  0.91899570  0.20249824  1
  Zn  Zn142  1  0.44422169  0.93791489  0.68387743  1
  Zn  Zn143  1  0.93475175  0.44013429  0.18934327  1
  Zn  Zn144  1  0.93665059  0.43653746  0.68600217  1
  Zn  Zn145  1  0.93645734  0.93245801  0.18600744  1
  Zn  Zn146  1  0.93566945  0.93531301  0.69066314  1
  Zn  Zn147  1  0.05901761  0.05868207  0.31279468  1
  Zn  Zn148  1  0.06289362  0.06232210  0.81633201  1
  Zn  Zn149  1  0.05211430  0.56133378  0.31012104  1
  Zn  Zn150  1  0.06333937  0.56391967  0.80940129  1
  Zn  Zn151  1  0.55970804  0.06950657  0.32305906  1
  Zn  Zn152  1  0.56464570  0.06223711  0.81548534  1
  Zn  Zn153  1  0.56555779  0.56683462  0.31869683  1
  Zn  Zn154  1  0.57682734  0.55908293  0.69726578  1
  Zn  Zn155  1  0.44241659  0.19282871  0.43288503  1
  Zn  Zn156  1  0.43845351  0.18442454  0.94312447  1
  Zn  Zn157  1  0.44712009  0.68858565  0.44000127  1
  Zn  Zn158  1  0.44068388  0.68489054  0.93341727  1
  Zn  Zn159  1  0.93666508  0.18511427  0.43686917  1
  Zn  Zn160  1  0.93943829  0.18959370  0.94011423  1
  Zn  Zn161  1  0.93955638  0.68864008  0.43466244  1
  Zn  Zn162  1  0.94117982  0.68503377  0.93196568  1
  Zn  Zn163  1  0.06160335  0.31438061  0.06673097  1
  Zn  Zn164  1  0.05879373  0.31275175  0.56262421  1
  Zn  Zn165  1  0.05632710  0.80517625  0.06617788  1
  Zn  Zn166  1  0.06573977  0.81429782  0.55657402  1
  Zn  Zn167  1  0.56298414  0.31361091  0.06250404  1
  Zn  Zn168  1  0.56401862  0.31100909  0.56005121  1
  Zn  Zn169  1  0.56172570  0.80771285  0.05457970  1
  Zn  Zn170  1  0.56463373  0.80810757  0.57049906  1
  O  O171  1  0.11873554  0.11920480  0.11821064  1
  O  O172  1  0.11937356  0.11881244  0.61962907  1
  O  O173  1  0.11004771  0.62379337  0.11646418  1
  O  O174  1  0.13304972  0.61359181  0.61219682  1
  O  O175  1  0.61884390  0.13194575  0.11723517  1
  O  O176  1  0.62991068  0.13134296  0.60876141  1
  O  O177  1  0.62219448  0.61869167  0.11732193  1
  O  O178  1  0.63433208  0.61958105  0.62398626  1
  O  O179  1  0.38555050  0.37613081  0.38184395  1
  O  O180  1  0.37934755  0.37849178  0.88059797  1
  O  O181  1  0.38474744  0.88467902  0.38451417  1
  O  O182  1  0.37949444  0.88198703  0.88340048  1
  O  O183  1  0.87108007  0.38786116  0.38165209  1
  O  O184  1  0.87236745  0.39266087  0.87267256  1
  O  O185  1  0.88350181  0.88087516  0.38415225  1
  O  O186  1  0.87908719  0.87934301  0.87454847  1
  O  O187  1  0.26343057  0.00226175  0.37687932  1
  O  O188  1  0.25587616  -0.00212080  0.86906437  1
  O  O189  1  0.26148715  0.49376179  0.36544151  1
  O  O190  1  0.26088946  0.50456466  0.88072615  1
  O  O191  1  0.76366707  -0.00799941  0.36667980  1
  O  O192  1  0.75119417  0.01719573  0.87694626  1
  O  O193  1  0.75400350  0.49584630  0.36627900  1
  O  O194  1  0.76382780  0.51807484  0.87263181  1
  O  O195  1  0.24691517  0.50202055  0.14247429  1
  O  O196  1  0.23818900  0.48257201  0.61724905  1
  O  O197  1  0.23453766  1.00206213  0.12222898  1
  O  O198  1  0.24470534  0.99347204  0.63319157  1
  O  O199  1  0.74440047  0.49402432  0.13014035  1
  O  O200  1  0.75359750  0.48318033  0.62066721  1
  O  O201  1  0.75403934  0.98902928  0.13335469  1
  O  O202  1  0.74301694  1.00020360  0.62806799  1
  O  O203  1  0.01097321  0.37516788  0.24841333  1
  O  O204  1  0.00749165  0.36734148  0.75239801  1
  O  O205  1  -0.00163563  0.87751782  0.26279838  1
  O  O206  1  0.00945094  0.86619080  0.75083510  1
  O  O207  1  0.49851391  0.38210873  0.26376101  1
  O  O208  1  0.49589292  0.36026897  0.76476698  1
  O  O209  1  0.50089871  0.89144622  0.24176917  1
  O  O210  1  0.49682420  0.87135103  0.76324210  1
  O  O211  1  0.49457140  0.12232162  0.24002633  1
  O  O212  1  0.49696000  0.13847119  0.76065330  1
  O  O213  1  0.49282573  0.61592201  0.23888594  1
  O  O214  1  0.49530267  0.62918195  0.74771165  1
  O  O215  1  0.99114675  0.12143283  0.23968911  1
  O  O216  1  0.99651751  0.13059995  0.74737918  1
  O  O217  1  0.98178772  0.62345177  0.24273114  1
  O  O218  1  0.99030710  0.63124560  0.75002185  1
  O  O219  1  0.36801780  0.24775252  0.01201990  1
  O  O220  1  0.37320535  0.25646445  0.50499081  1
  O  O221  1  0.36832168  0.75244489  0.00272538  1
  O  O222  1  0.36678765  0.75617558  0.49284899  1
  O  O223  1  0.86522509  0.24518377  0.00970724  1
  O  O224  1  0.86942958  0.25752297  0.49646492  1
  O  O225  1  0.87452986  0.74539566  0.00697725  1
  O  O226  1  0.86835150  0.75621016  0.49729651  1
  O  O227  1  0.12711081  0.24575776  0.49416953  1
  O  O228  1  0.13305677  0.24106608  0.99997188  1
  O  O229  1  0.13398420  0.73851289  0.50205428  1
  O  O230  1  0.13071162  0.74443906  0.99501137  1
  O  O231  1  0.63202890  0.24402172  0.49265660  1
  O  O232  1  0.63220009  0.24293144  0.99614981  1
  O  O233  1  0.63624836  0.74816640  0.49911086  1
  O  O234  1  0.61745035  0.73718295  0.98421248  1
  O  O235  1  0.49153903  0.24271762  0.12167832  1
  O  O236  1  0.49139292  0.25780510  0.63528241  1
  O  O237  1  0.49561522  0.73617686  0.11951172  1
  O  O238  1  0.49708675  0.74823367  0.64055908  1
  O  O239  1  0.99539831  0.23861442  0.13138303  1
  O  O240  1  1.00018811  0.24388086  0.63791459  1
  O  O241  1  0.98198105  0.74142912  0.12494910  1
  O  O242  1  1.00394993  0.75242833  0.63365582  1
  O  O243  1  0.01235676  0.24504354  0.37317935  1
  O  O244  1  0.00840733  0.24642249  0.86389152  1
  O  O245  1  0.00210861  0.76454943  0.37670912  1
  O  O246  1  0.01077452  0.74815358  0.86421650  1
  O  O247  1  0.51223813  0.26549720  0.37610927  1
  O  O248  1  0.50528305  0.25406683  0.87503171  1
  O  O249  1  0.51285246  0.75639012  0.37527647  1
  O  O250  1  0.50626572  0.75400810  0.86831437  1
  O  O251  1  0.24084228  0.13145145  0.49962984  1
  O  O252  1  0.24372556  0.13358934  1.00142095  1
  O  O253  1  0.24279141  0.63525043  0.49159273  1
  O  O254  1  0.24150854  0.63138431  0.99658682  1
  O  O255  1  0.74688234  0.14009680  0.49768052  1
  O  O256  1  0.74361509  0.13314906  0.99770171  1
  O  O257  1  0.75413553  0.63924977  0.49802429  1
  O  O258  1  0.74072203  0.62368649  0.99439468  1
  O  O259  1  0.25036630  0.36137700  0.00560469  1
  O  O260  1  0.26073280  0.36915826  0.50428871  1
  O  O261  1  0.25957749  0.86602394  -0.00449410  1
  O  O262  1  0.25873547  0.86599454  0.50533577  1
  O  O263  1  0.75599358  0.36261259  0.01270437  1
  O  O264  1  0.76035286  0.36852356  0.50684211  1
  O  O265  1  0.74023759  0.88195340  0.01402296  1
  O  O266  1  0.76038903  0.86756267  0.49876266  1
  O  O267  1  0.13008368  0.49396261  0.25465637  1
  O  O268  1  0.13421128  0.49935900  0.73718339  1
  O  O269  1  0.12577795  1.00428451  0.23321956  1
  O  O270  1  0.13151050  0.99316753  0.74799757  1
  O  O271  1  0.63351122  0.50944311  0.23915115  1
  O  O272  1  0.61245352  0.48415432  0.77202617  1
  O  O273  1  0.62809539  1.00027718  0.25182598  1
  O  O274  1  0.62982842  0.99679323  0.75536724  1
  O  O275  1  0.37581497  0.01498771  0.26094401  1
  O  O276  1  0.36781477  -0.00173170  0.75972647  1
  O  O277  1  0.36769053  0.51007914  0.25393777  1
  O  O278  1  0.36505599  0.49081732  0.75963065  1
  O  O279  1  0.86932641  0.00373941  0.25504014  1
  O  O280  1  0.87706543  0.01459110  0.75425245  1
  O  O281  1  0.86693124  0.50574129  0.25852323  1
  O  O282  1  0.88073052  0.51280858  0.75479789  1
  O  O283  1  0.12801249  0.36502452  0.36834735  1
  O  O284  1  0.12650757  0.36974949  0.86693962  1
  O  O285  1  0.11292145  0.88180465  0.37457273  1
  O  O286  1  0.12491407  0.86059530  0.87065983  1
  O  O287  1  0.61399688  0.36740754  0.37831190  1
  O  O288  1  0.61589897  0.36274512  0.88169928  1
  O  O289  1  0.62245779  0.85919019  0.37867128  1
  O  O290  1  0.61703228  0.86366433  0.87460074  1
  O  O291  1  0.38362012  0.13018012  0.13315621  1
  O  O292  1  0.36882842  0.13818513  0.62382559  1
  O  O293  1  0.38310055  0.63117014  0.13094393  1
  O  O294  1  0.31040938  0.60739688  0.65341256  1
  O  O295  1  0.88212680  0.12909122  0.13317167  1
  O  O296  1  0.88225445  0.12833083  0.63368340  1
  O  O297  1  0.87552108  0.63639098  0.13170003  1
  O  O298  1  0.87637249  0.62405972  0.63483324  1
  O  O299  1  0.25931150  0.24944090  0.11982672  1
  O  O300  1  0.25404962  0.25568613  0.61876608  1
  O  O301  1  0.26032596  0.74969082  0.11225061  1
  O  O302  1  0.24895662  0.75952262  0.61268989  1
  O  O303  1  0.75285769  0.25718132  0.12260596  1
  O  O304  1  0.75501008  0.25726219  0.61298857  1
  O  O305  1  0.76392570  0.75811756  0.12613303  1
  O  O306  1  0.75709425  0.75646989  0.60938568  1
  O  O307  1  0.23995729  0.24738556  0.38201202  1
  O  O308  1  0.24573139  0.24701212  0.88387444  1
  O  O309  1  0.24821632  0.74839563  0.37851611  1
  O  O310  1  0.24486927  0.74269100  0.88588780  1
  O  O311  1  0.73529548  0.26258062  0.38306663  1
  O  O312  1  0.74506603  0.24586427  0.88357725  1
  O  O313  1  0.73989905  0.75475572  0.38862160  1
  O  O314  1  0.74243436  0.73946043  0.87050096  1
  O  O315  1  0.00797700  0.11952732  0.01095105  1
  O  O316  1  0.00476861  0.11744066  0.50609181  1
  O  O317  1  0.00750490  0.62988566  0.00779602  1
  O  O318  1  0.01007991  0.61694270  0.49547330  1
  O  O319  1  0.50565992  0.11760093  0.01367692  1
  O  O320  1  0.51567004  0.13149451  0.49765455  1
  O  O321  1  0.50607086  0.61871924  0.00718681  1
  O  O322  1  0.49496757  0.60542333  0.50510459  1
  O  O323  1  0.49139103  0.38187316  0.49701787  1
  O  O324  1  0.49752281  0.37973575  0.99092706  1
  O  O325  1  0.48808315  0.87230124  0.50536003  1
  O  O326  1  0.49417355  0.87832269  0.98813696  1
  O  O327  1  0.98645475  0.38103946  0.50335575  1
  O  O328  1  0.99516649  0.36218796  0.99261665  1
  O  O329  1  0.99575383  0.88165006  0.49252336  1
  O  O330  1  1.00672571  0.88824801  1.00051717  1
  O  O331  1  0.49670709  0.48827590  0.38326891  1
  O  O332  1  0.48386791  0.48945176  0.88251387  1
  O  O333  1  0.49026369  0.99956189  0.38464582  1
  O  O334  1  0.49191323  0.99244565  0.88165214  1
  O  O335  1  0.99076354  0.49890187  0.38618415  1
  O  O336  1  0.98468759  0.50262650  0.87065684  1
  O  O337  1  0.98959694  0.99393527  0.38020636  1
  O  O338  1  1.00380656  1.00058573  0.89286719  1
  O  O339  1  0.00854916  0.00344629  0.11727814  1
  O  O340  1  0.00636502  0.00326604  0.61992721  1
  O  O341  1  -0.00436894  0.51489541  0.12728350  1
  O  O342  1  0.01197459  0.49269557  0.61324511  1
  O  O343  1  0.51329049  0.00242112  0.12504141  1
  O  O344  1  0.50371584  0.00681294  0.62227763  1
  O  O345  1  0.50788692  0.50684824  0.11910895  1
  O  O346  1  0.49874031  0.49189878  0.61829962  1
  O  O347  1  0.24031902  0.38355155  0.25028217  1
  O  O348  1  0.24635106  0.37458560  0.73799718  1
  O  O349  1  0.27831330  0.88345906  0.24141063  1
  O  O350  1  0.24652281  0.88078909  0.74424316  1
  O  O351  1  0.75169066  0.38525072  0.23874832  1
  O  O352  1  0.75054639  0.36638835  0.73205622  1
  O  O353  1  0.75372367  0.88570226  0.24048136  1
  O  O354  1  0.74985343  0.87578656  0.74484262  1
  O  O355  1  0.25987111  0.12010172  0.25166837  1
  O  O356  1  0.25182841  0.11028196  0.75257386  1
  O  O357  1  0.25735988  0.62039143  0.26383606  1
  O  O358  1  0.23306929  0.62132245  0.77621779  1
  O  O359  1  0.76135688  0.11003628  0.24382142  1
  O  O360  1  0.75983905  0.13161499  0.76027766  1
  O  O361  1  0.76387436  0.61359239  0.24429077  1
  O  O362  1  0.76971449  0.63315264  0.75495990  1
  O  O363  1  0.37585109  0.12236716  0.36933936  1
  O  O364  1  0.37375973  0.10987313  0.87950988  1
  O  O365  1  0.38715123  0.61948276  0.36513050  1
  O  O366  1  0.36484634  0.61412442  0.88225247  1
  O  O367  1  0.88061885  0.11497723  0.36398331  1
  O  O368  1  0.86777799  0.12561809  0.87070815  1
  O  O369  1  0.87868884  0.61566206  0.36437732  1
  O  O370  1  0.87340207  0.61879075  0.86619379  1
  O  O371  1  0.12764564  0.37840353  0.13672671  1
  O  O372  1  0.13111261  0.37816802  0.62833408  1
  O  O373  1  0.12465446  0.88313530  0.12362233  1
  O  O374  1  0.13657184  0.87994171  0.62817822  1
  O  O375  1  0.63138557  0.38950144  0.11801046  1
  O  O376  1  0.64091421  0.37044709  0.62120551  1
  O  O377  1  0.62465990  0.87380945  0.12938938  1
  O  O378  1  0.62677361  0.88072430  0.62802688  1
  O  O379  1  0.12411389  0.25731891  0.25809908  1
  O  O380  1  0.12122789  0.25396172  0.75545371  1
  O  O381  1  0.14568006  0.74096047  0.25207005  1
  O  O382  1  0.12317050  0.75027350  0.75558671  1
  O  O383  1  0.63138631  0.24825576  0.26335960  1
  O  O384  1  0.61825329  0.25339448  0.75864909  1
  O  O385  1  0.63113201  0.74114829  0.26444039  1
  O  O386  1  0.61424167  0.74760349  0.76069910  1
  O  O387  1  0.37005499  0.24109844  0.24270416  1
  O  O388  1  0.38042074  0.24534397  0.74171681  1
  O  O389  1  0.37321055  0.73943491  0.23946465  1
  O  O390  1  0.38738286  0.74650457  0.75865430  1
  O  O391  1  0.87329467  0.24108984  0.24771605  1
  O  O392  1  0.88537765  0.24107117  0.75261126  1
  O  O393  1  0.86564096  0.73730227  0.25462845  1
  O  O394  1  0.88784013  0.73899072  0.74528302  1
  O  O395  1  0.38214510  0.49104609  0.49608032  1
  O  O396  1  0.37968249  0.49833384  0.99759749  1
  O  O397  1  0.37491376  0.99158204  0.49523438  1
  O  O398  1  0.37971483  0.99105062  0.99843570  1
  O  O399  1  0.88079207  0.49640849  0.49378061  1
  O  O400  1  0.87211880  0.50210812  0.98567910  1
  O  O401  1  0.87892267  0.99564544  0.49230986  1
  O  O402  1  0.89201132  1.00804571  1.00254386  1
  O  O403  1  0.11937642  0.00558100  0.00993793  1
  O  O404  1  0.12124373  0.00421588  0.50565881  1
  O  O405  1  0.13036152  0.51154045  0.00277055  1
  O  O406  1  0.11859048  0.50689735  0.50047506  1
  O  O407  1  0.61874267  0.01448128  -0.00860345  1
  O  O408  1  0.62825951  0.02139789  0.49014208  1
  O  O409  1  0.61656063  0.51058987  -0.00334618  1
  O  O410  1  0.60948751  0.49837402  0.49703596  1
  O  O411  1  0.37355956  0.36613370  0.12644602  1
  O  O412  1  0.36686718  0.36512140  0.61835974  1
  O  O413  1  0.38906737  0.85743981  0.10852961  1
  O  O414  1  0.36287647  0.88036111  0.61904075  1
  O  O415  1  0.86690931  0.36899631  0.12655402  1
  O  O416  1  0.86848395  0.37215740  0.61684413  1
  O  O417  1  0.87020912  0.86081936  0.12332847  1
  O  O418  1  0.88015116  0.87488969  0.60911908  1
  O  O419  1  0.12501447  0.12912415  0.38111763  1
  O  O420  1  0.12762590  0.12901273  0.88960339  1
  O  O421  1  0.12495910  0.62855666  0.37486490  1
  O  O422  1  0.12680580  0.63220627  0.88564211  1
  O  O423  1  0.62352317  0.14381891  0.38226629  1
  O  O424  1  0.63096335  0.13865921  0.88409546  1
  O  O425  1  0.61774207  0.64056063  0.38823939  1
  O  O426  1  0.63860725  0.62818516  0.88049919  1
