# generated using pymatgen
data_V85Zn86O256
_symmetry_space_group_name_H-M   'P 1'
_cell_length_a   16.94531618
_cell_length_b   16.94074589
_cell_length_c   16.95549761
_cell_angle_alpha   89.86837279
_cell_angle_beta   90.05809733
_cell_angle_gamma   90.02795701
_symmetry_Int_Tables_number   1
_chemical_formula_structural   V85Zn86O256
_chemical_formula_sum   'V85 Zn86 O256'
_cell_volume   4867.33596334
_cell_formula_units_Z   1
loop_
 _symmetry_equiv_pos_site_id
 _symmetry_equiv_pos_as_xyz
  1  'x, y, z'
loop_
 _atom_site_type_symbol
 _atom_site_label
 _atom_site_symmetry_multiplicity
 _atom_site_fract_x
 _atom_site_fract_y
 _atom_site_fract_z
 _atom_site_occupancy
  V  V0  1  0.87558568  0.74604940  0.62380924  1
  V  V1  1  0.87234074  0.38225269  -0.00295582  1
  V  V2  1  -0.00052887  0.62562453  0.14223721  1
  V  V3  1  0.75648723  0.49543505  0.75643843  1
  V  V4  1  0.02615115  0.79405543  0.71786736  1
  V  V5  1  0.12626968  0.12372240  0.50466968  1
  V  V6  1  0.12304836  0.49136670  0.13075663  1
  V  V7  1  0.25034613  0.12826839  0.38017943  1
  V  V8  1  0.87445371  0.25085939  0.12560063  1
  V  V9  1  0.37633944  0.12435984  0.25139140  1
  V  V10  1  0.74690088  0.25056183  -0.00061744  1
  V  V11  1  0.62531078  0.00691493  0.11365732  1
  V  V12  1  0.62318488  0.12526408  0.50031156  1
  V  V13  1  0.74480729  0.12480263  0.88107756  1
  V  V14  1  0.37265580  0.11808832  0.75093994  1
  V  V15  1  0.62486159  0.74682757  0.36468014  1
  V  V16  1  0.62930683  0.62240515  0.50056623  1
  V  V17  1  -0.00951688  0.00284301  0.49279832  1
  V  V18  1  0.00458715  0.25215499  0.24912868  1
  V  V19  1  0.24749946  0.00102722  0.24947755  1
  V  V20  1  0.49920355  0.87613656  0.37238104  1
  V  V21  1  0.37576018  0.24709846  0.12276841  1
  V  V22  1  0.75758838  0.62348543  0.36854766  1
  V  V23  1  0.75446736  0.12269311  0.37690999  1
  V  V24  1  0.00377128  0.37736268  0.37059019  1
  V  V25  1  0.50190278  0.63285022  0.12502987  1
  V  V26  1  -0.00992201  0.12869486  0.62277451  1
  V  V27  1  0.36175835  0.87486333  0.50307645  1
  V  V28  1  0.74798293  -0.00190890  0.25350525  1
  V  V29  1  -0.00361558  0.37922875  0.87549851  1
  V  V30  1  0.24476471  0.38202461  0.61809276  1
  V  V31  1  0.88240049  0.50251884  0.36987725  1
  V  V32  1  0.75372686  0.49341764  0.24995408  1
  V  V33  1  0.49890107  0.37537323  0.87263427  1
  V  V34  1  0.12607563  0.38245579  0.74780472  1
  V  V35  1  0.36265934  0.24838187  0.61634515  1
  V  V36  1  -0.01100274  0.87328145  0.36921127  1
  V  V37  1  0.62633502  0.49754421  0.12700618  1
  V  V38  1  0.12523222  0.25009370  0.87269152  1
  V  V39  1  0.00580522  0.50130999  0.49990785  1
  V  V40  1  0.49627831  0.25126981  0.74622298  1
  V  V41  1  0.75312997  0.25376292  0.51630280  1
  V  V42  1  0.25330413  0.75990794  -0.00425397  1
  V  V43  1  0.63211657  0.49179943  0.62579666  1
  V  V44  1  0.75147319  0.74826660  0.49801460  1
  V  V45  1  0.63026924  0.25839468  0.37321689  1
  V  V46  1  0.50446514  0.62731946  0.62858517  1
  V  V47  1  0.87836606  0.87112534  0.00404282  1
  V  V48  1  0.12748760  0.25177974  0.37721487  1
  V  V49  1  0.00464059  0.88419575  0.88317549  1
  V  V50  1  -0.00741349  0.25251478  0.74325777  1
  V  V51  1  0.87940613  0.00478433  0.88443478  1
  V  V52  1  0.13690386  0.62664948  0.50131144  1
  V  V53  1  0.50280191  0.50362921  -0.00168221  1
  V  V54  1  0.62926998  0.64089580  -0.00670415  1
  V  V55  1  -0.00436573  0.51078212  -0.00294538  1
  V  V56  1  0.87924713  0.74456201  0.13973117  1
  V  V57  1  0.24411084  0.37357325  0.13247096  1
  V  V58  1  0.11946465  0.11734851  -0.00179636  1
  V  V59  1  0.48130433  -0.00084485  -0.00862625  1
  V  V60  1  0.74926051  0.00100576  0.75403661  1
  V  V61  1  0.62223538  -0.00152918  0.62766211  1
  V  V62  1  0.13404332  0.75285790  0.38083512  1
  V  V63  1  0.62073600  0.24631706  0.87882301  1
  V  V64  1  0.00961753  0.62016383  0.62360907  1
  V  V65  1  0.36919918  0.62385044  0.75165475  1
  V  V66  1  0.50741716  0.25012445  0.24929996  1
  V  V67  1  0.74732310  0.37451356  0.12751655  1
  V  V68  1  0.88184464  0.62386238  0.75729354  1
  V  V69  1  0.87475980  0.12246738  0.25309667  1
  V  V70  1  0.24891188  0.24949676  -0.00209807  1
  V  V71  1  0.44175298  0.69025655  0.29238274  1
  V  V72  1  0.87414649  0.37289760  0.51031501  1
  V  V73  1  0.37582498  0.75735087  0.12347685  1
  V  V74  1  0.74929753  0.87373640  0.62525922  1
  V  V75  1  0.62311176  0.86618268  0.76252415  1
  V  V76  1  0.12237103  0.86946667  0.24859887  1
  V  V77  1  0.74877068  0.86894392  0.12224532  1
  V  V78  1  0.25089636  0.11358526  0.87197928  1
  V  V79  1  0.35994899  0.75197756  0.62527879  1
  V  V80  1  -0.00179588  0.11826280  0.12120385  1
  V  V81  1  0.13078368  0.62316848  0.00310555  1
  V  V82  1  0.37536553  0.37455884  -0.00224364  1
  V  V83  1  0.49434050  0.37909013  0.37449609  1
  V  V84  1  0.11367660  0.74884516  0.87692402  1
  Zn  Zn85  1  0.11980968  -0.00493048  0.12199365  1
  Zn  Zn86  1  0.36325697  0.37947390  0.49009683  1
  Zn  Zn87  1  0.37305253  0.50417469  0.87727057  1
  Zn  Zn88  1  0.50550069  0.12668370  0.11735254  1
  Zn  Zn89  1  0.24588771  -0.01226459  0.73773643  1
  Zn  Zn90  1  0.49779521  0.49864474  0.49982790  1
  Zn  Zn91  1  0.48532081  0.86812105  0.88574912  1
  Zn  Zn92  1  0.86923872  0.88083597  0.49641230  1
  Zn  Zn93  1  0.37740337  0.00170023  0.37825231  1
  Zn  Zn94  1  0.24507759  0.62336823  0.87338085  1
  Zn  Zn95  1  0.24902746  0.49942472  0.75131731  1
  Zn  Zn96  1  0.27381059  0.49679459  0.26844564  1
  Zn  Zn97  1  0.25121635  0.87785686  0.12341707  1
  Zn  Zn98  1  0.87072903  0.13085315  0.74947441  1
  Zn  Zn99  1  0.63073319  0.37213075  0.74593162  1
  Zn  Zn100  1  0.61678057  0.87375259  0.24526773  1
  Zn  Zn101  1  0.49995468  -0.00385507  0.50042399  1
  Zn  Zn102  1  0.50698369  0.74547108  0.75952324  1
  Zn  Zn103  1  0.49643565  0.12451109  0.62383587  1
  Zn  Zn104  1  0.74579207  0.63489258  0.87484240  1
  Zn  Zn105  1  0.26820964  0.62231269  0.37365512  1
  Zn  Zn106  1  0.11755626  -0.01939947  0.63571954  1
  Zn  Zn107  1  0.18528344  0.18643744  0.18844867  1
  Zn  Zn108  1  0.18347912  0.18409946  0.68837794  1
  Zn  Zn109  1  0.19252071  0.68795537  0.18749023  1
  Zn  Zn110  1  0.19206243  0.81514781  0.68758144  1
  Zn  Zn111  1  0.68802966  0.18627016  0.18873751  1
  Zn  Zn112  1  0.68345587  0.18495648  0.69237625  1
  Zn  Zn113  1  0.69281098  0.68373838  0.18475265  1
  Zn  Zn114  1  0.69285745  0.68221532  0.68894524  1
  Zn  Zn115  1  0.31326776  0.30852132  0.30970687  1
  Zn  Zn116  1  0.31245900  0.31035176  0.80913370  1
  Zn  Zn117  1  0.30712301  0.81932053  0.31711172  1
  Zn  Zn118  1  0.31541487  0.81276306  0.81706818  1
  Zn  Zn119  1  0.81717556  0.31266215  0.31694394  1
  Zn  Zn120  1  0.81182182  0.31501025  0.81321910  1
  Zn  Zn121  1  0.80929106  0.81257802  0.30834256  1
  Zn  Zn122  1  0.81865928  0.81388578  0.80750940  1
  Zn  Zn123  1  0.18601371  0.43945130  0.43623408  1
  Zn  Zn124  1  0.18877072  0.44016234  0.93855443  1
  Zn  Zn125  1  0.18339096  0.94401039  0.43886451  1
  Zn  Zn126  1  0.18711669  0.93711762  0.93349877  1
  Zn  Zn127  1  0.68929112  0.43574443  0.43955035  1
  Zn  Zn128  1  0.68534073  0.43969012  0.93345115  1
  Zn  Zn129  1  0.68427772  0.93605855  0.43732556  1
  Zn  Zn130  1  0.69195775  0.93573938  0.94236256  1
  Zn  Zn131  1  0.30871840  0.06415115  0.06349534  1
  Zn  Zn132  1  0.30718475  0.05578303  0.56621031  1
  Zn  Zn133  1  0.33376402  0.54522388  0.10256667  1
  Zn  Zn134  1  0.31620565  0.55866373  0.56156253  1
  Zn  Zn135  1  0.81035620  0.06185701  0.06258142  1
  Zn  Zn136  1  0.80970900  0.06364818  0.56319590  1
  Zn  Zn137  1  0.81266880  0.56734843  0.06220962  1
  Zn  Zn138  1  0.81608773  0.55950372  0.56280594  1
  Zn  Zn139  1  0.44353629  0.43068316  0.18883047  1
  Zn  Zn140  1  0.43584658  0.43926375  0.67923964  1
  Zn  Zn141  1  0.43885450  0.93823097  0.18690663  1
  Zn  Zn142  1  0.43784907  0.93356542  0.68830981  1
  Zn  Zn143  1  0.93875663  0.43843595  0.18702837  1
  Zn  Zn144  1  0.93882728  0.44035006  0.68614836  1
  Zn  Zn145  1  0.93373339  0.93871457  0.19118751  1
  Zn  Zn146  1  0.92965222  0.94851930  0.68394899  1
  Zn  Zn147  1  0.06242332  0.06068026  0.31289036  1
  Zn  Zn148  1  0.06191166  0.06158467  0.80695649  1
  Zn  Zn149  1  0.10878473  0.57495147  0.29866472  1
  Zn  Zn150  1  0.05909963  0.56359897  0.81318909  1
  Zn  Zn151  1  0.56551961  0.06237504  0.31187100  1
  Zn  Zn152  1  0.55823800  0.05991316  0.81677096  1
  Zn  Zn153  1  0.57361514  0.55524185  0.31140895  1
  Zn  Zn154  1  0.56453131  0.56386574  0.81285487  1
  Zn  Zn155  1  0.43905965  0.19042247  0.43782627  1
  Zn  Zn156  1  0.43814380  0.18006517  0.93667794  1
  Zn  Zn157  1  0.44106060  0.68999119  0.45660452  1
  Zn  Zn158  1  0.42725836  0.71708751  0.92528896  1
  Zn  Zn159  1  0.93539785  0.19111955  0.43800675  1
  Zn  Zn160  1  0.93559560  0.19180865  0.93706956  1
  Zn  Zn161  1  0.94106218  0.68881977  0.43427504  1
  Zn  Zn162  1  0.90826630  0.70706235  0.92209286  1
  Zn  Zn163  1  0.05978290  0.30881878  0.05855500  1
  Zn  Zn164  1  0.06346558  0.31176960  0.55995381  1
  Zn  Zn165  1  0.05856151  0.81028385  0.06360333  1
  Zn  Zn166  1  0.05702220  0.81074471  0.54478212  1
  Zn  Zn167  1  0.56333732  0.31407026  0.06082851  1
  Zn  Zn168  1  0.56077084  0.31080087  0.56112747  1
  Zn  Zn169  1  0.56149487  0.81638340  0.06158199  1
  Zn  Zn170  1  0.56270362  0.81114612  0.56011466  1
  O  O171  1  0.11560214  0.12632867  0.11606107  1
  O  O172  1  0.11410258  0.13457704  0.61019967  1
  O  O173  1  0.11605783  0.61610514  0.11824058  1
  O  O174  1  0.11142063  0.63114047  0.61142562  1
  O  O175  1  0.62602319  0.11094804  0.12732324  1
  O  O176  1  0.62322696  0.11674699  0.61849369  1
  O  O177  1  0.62092012  0.61852521  0.11812989  1
  O  O178  1  0.62230459  0.61846354  0.62068971  1
  O  O179  1  0.38931110  0.36589252  0.37418711  1
  O  O180  1  0.38153201  0.37519797  0.88010388  1
  O  O181  1  0.38076834  0.87409391  0.38750306  1
  O  O182  1  0.37776845  0.82692674  0.90390875  1
  O  O183  1  0.88730291  0.38116925  0.38181472  1
  O  O184  1  0.88389539  0.37125412  0.88516808  1
  O  O185  1  0.88555418  0.87137521  0.37369299  1
  O  O186  1  0.88302983  0.88465409  0.88662334  1
  O  O187  1  0.25082902  0.00920049  0.36534055  1
  O  O188  1  0.24997430  0.01179991  0.87383109  1
  O  O189  1  0.24881915  0.50668082  0.37618890  1
  O  O190  1  0.25419014  0.50517850  0.87128807  1
  O  O191  1  0.74129756  0.00908663  0.36660565  1
  O  O192  1  0.75502652  0.00874461  0.87460962  1
  O  O193  1  0.75741473  0.50362151  0.36863918  1
  O  O194  1  0.74700364  0.50618326  0.85958346  1
  O  O195  1  0.23486586  0.48521918  0.11091481  1
  O  O196  1  0.25028648  0.48425358  0.63002829  1
  O  O197  1  0.24512173  1.00120820  0.13771380  1
  O  O198  1  0.22982783  1.00088153  0.62164919  1
  O  O199  1  0.74821705  0.49630865  0.13247479  1
  O  O200  1  0.74078754  0.50856854  0.63595469  1
  O  O201  1  0.74042174  0.99494954  0.13020432  1
  O  O202  1  0.74050307  0.99673241  0.63195944  1
  O  O203  1  -0.00726835  0.36263572  0.25704740  1
  O  O204  1  0.00462226  0.37158997  0.75575349  1
  O  O205  1  0.00639023  0.88312350  0.26261135  1
  O  O206  1  -0.01577929  0.87829933  0.76329785  1
  O  O207  1  0.49957265  0.36036110  0.25933618  1
  O  O208  1  0.49618599  0.36404398  0.75392429  1
  O  O209  1  0.49884936  0.87692312  0.26524639  1
  O  O210  1  0.51515058  0.87513952  0.75380029  1
  O  O211  1  0.49466462  0.13452245  0.24918403  1
  O  O212  1  0.49184958  0.13504247  0.75035361  1
  O  O213  1  0.51194896  0.62749672  0.24356020  1
  O  O214  1  0.49413242  0.62546368  0.74368041  1
  O  O215  1  0.99374844  0.13090392  0.24542990  1
  O  O216  1  0.99788026  0.13557429  0.74013459  1
  O  O217  1  1.01034314  0.61502962  0.24002417  1
  O  O218  1  0.99609573  0.61484919  0.73319641  1
  O  O219  1  0.37076424  0.25098322  0.00573027  1
  O  O220  1  0.37857304  0.25507785  0.51430342  1
  O  O221  1  0.35680019  0.72717564  0.01573161  1
  O  O222  1  0.37551315  0.75932280  0.51536235  1
  O  O223  1  0.86851950  0.26166332  0.00580820  1
  O  O224  1  0.86520678  0.25982668  0.49640526  1
  O  O225  1  0.88341864  0.76675288  0.01788199  1
  O  O226  1  0.86948316  0.75093295  0.50799051  1
  O  O227  1  0.11717039  0.24002715  0.48456741  1
  O  O228  1  0.12828733  0.24206142  0.98997106  1
  O  O229  1  0.12917659  0.74533279  0.48920118  1
  O  O230  1  0.12673019  0.74189231  0.99602863  1
  O  O231  1  0.63236778  0.24386063  0.49396533  1
  O  O232  1  0.62942301  0.25387642  0.98658970  1
  O  O233  1  0.63245358  0.74243690  0.48857981  1
  O  O234  1  0.62911556  0.73866738  1.00743787  1
  O  O235  1  0.49530114  0.24866853  0.13039994  1
  O  O236  1  0.48989670  0.24911956  0.63198853  1
  O  O237  1  0.49409665  0.74499274  0.12232717  1
  O  O238  1  0.50389339  0.73594314  0.62712430  1
  O  O239  1  0.99544718  0.24304165  0.13276181  1
  O  O240  1  1.00184136  0.24422400  0.63249680  1
  O  O241  1  0.99063418  0.73920197  0.12694744  1
  O  O242  1  0.99295672  0.74244955  0.62061594  1
  O  O243  1  0.00389607  0.25598613  0.36708119  1
  O  O244  1  0.00813850  0.25998109  0.87071908  1
  O  O245  1  0.00853360  0.76814233  0.38070832  1
  O  O246  1  0.00549019  0.76328576  0.87803911  1
  O  O247  1  0.50935038  0.25497941  0.36783968  1
  O  O248  1  0.50453277  0.25325403  0.86922438  1
  O  O249  1  0.50501092  0.74888618  0.36726231  1
  O  O250  1  0.51696275  0.75608272  0.87245685  1
  O  O251  1  0.24137912  0.12019583  0.48747277  1
  O  O252  1  0.24192880  0.13137790  0.99238782  1
  O  O253  1  0.23929323  0.62012629  0.49899082  1
  O  O254  1  0.23348891  0.62886723  1.00089887  1
  O  O255  1  0.74198919  0.13092258  0.49476548  1
  O  O256  1  0.75426283  0.13405033  0.98877816  1
  O  O257  1  0.74786081  0.62697172  0.48908191  1
  O  O258  1  0.73253817  0.61693665  0.99883853  1
  O  O259  1  0.25733491  0.36655159  0.00305426  1
  O  O260  1  0.24459430  0.37281943  0.51427230  1
  O  O261  1  0.24000397  0.86327153  0.00476050  1
  O  O262  1  0.26249016  0.87834243  0.49378269  1
  O  O263  1  0.75654228  0.37262196  0.00247311  1
  O  O264  1  0.76050597  0.36508010  0.49499475  1
  O  O265  1  0.75959712  0.87777982  0.01543143  1
  O  O266  1  0.74981762  0.86745408  0.50544767  1
  O  O267  1  0.11593658  0.48321709  0.23064746  1
  O  O268  1  0.12388076  0.48520199  0.75415353  1
  O  O269  1  0.13170181  0.99137313  0.25017231  1
  O  O270  1  0.13093918  1.00156528  0.74804474  1
  O  O271  1  0.63663677  0.49810673  0.23524222  1
  O  O272  1  0.63766814  0.50032578  0.74324961  1
  O  O273  1  0.63417522  0.99815423  0.24099370  1
  O  O274  1  0.62959300  0.99297838  0.74508642  1
  O  O275  1  0.36730975  0.00718084  0.25198826  1
  O  O276  1  0.37386645  0.01523936  0.73852819  1
  O  O277  1  0.36606577  0.50513761  0.20832927  1
  O  O278  1  0.37724160  0.51394593  0.74818285  1
  O  O279  1  0.85784086  0.00821185  0.24426191  1
  O  O280  1  0.86482002  0.00496863  0.76294739  1
  O  O281  1  0.87118892  0.49665466  0.26235231  1
  O  O282  1  0.86256047  0.50680295  0.74103807  1
  O  O283  1  0.11220268  0.36639222  0.37946295  1
  O  O284  1  0.11953417  0.36685951  0.86971044  1
  O  O285  1  0.11916852  0.86731638  0.37305686  1
  O  O286  1  0.11111476  0.86938370  0.88016460  1
  O  O287  1  0.62035508  0.36249685  0.37669198  1
  O  O288  1  0.61575893  0.36750456  0.87009202  1
  O  O289  1  0.61713381  0.86335910  0.37403287  1
  O  O290  1  0.63539959  0.87820924  0.86149536  1
  O  O291  1  0.37554569  0.13563868  0.12948552  1
  O  O292  1  0.37395507  0.13563464  0.62710435  1
  O  O293  1  0.39570323  0.63860288  0.13216664  1
  O  O294  1  0.38290068  0.63476248  0.62926885  1
  O  O295  1  0.87991091  0.13185439  0.12872199  1
  O  O296  1  0.88544348  0.12353002  0.62716430  1
  O  O297  1  0.88165913  0.63708405  0.12425686  1
  O  O298  1  0.88345401  0.63144234  0.62770656  1
  O  O299  1  0.25543508  0.25297155  0.11970969  1
  O  O300  1  0.25943526  0.25426201  0.62858395  1
  O  O301  1  0.25637066  0.75265010  0.11903731  1
  O  O302  1  0.26197347  0.74628875  0.62436243  1
  O  O303  1  0.75292142  0.25491576  0.12034570  1
  O  O304  1  0.74461946  0.24517121  0.61522587  1
  O  O305  1  0.76466225  0.75649507  0.13098513  1
  O  O306  1  0.75825379  0.75142014  0.61961559  1
  O  O307  1  0.23911137  0.24230982  0.36829054  1
  O  O308  1  0.23807386  0.24586756  0.87716318  1
  O  O309  1  0.23689683  0.74465211  0.37310304  1
  O  O310  1  0.23078101  0.74404648  0.88271899  1
  O  O311  1  0.74388461  0.24301687  0.37880926  1
  O  O312  1  0.74082516  0.24508649  0.87728484  1
  O  O313  1  0.74639713  0.74121381  0.37690068  1
  O  O314  1  0.80100300  0.73333859  0.88038696  1
  O  O315  1  0.00704676  0.13443467  0.00921506  1
  O  O316  1  0.00282899  0.12123050  0.50295111  1
  O  O317  1  0.00210163  0.61383129  0.00459674  1
  O  O318  1  0.00202323  0.61742212  0.50470171  1
  O  O319  1  0.49843180  0.10732556  0.00092406  1
  O  O320  1  0.51320836  0.12481617  0.50021156  1
  O  O321  1  0.51318059  0.61826189  0.00883049  1
  O  O322  1  0.51315380  0.62019958  0.50881607  1
  O  O323  1  0.50224987  0.37178267  0.48196754  1
  O  O324  1  0.49469248  0.38183605  0.99352688  1
  O  O325  1  0.49486975  0.87182591  0.48754300  1
  O  O326  1  0.50908338  0.89646384  1.00131600  1
  O  O327  1  0.99631923  0.38193682  0.49277185  1
  O  O328  1  0.99173339  0.38127669  0.99378136  1
  O  O329  1  0.99392105  0.88570028  0.48678169  1
  O  O330  1  0.99321668  0.88041256  0.99494691  1
  O  O331  1  0.50857736  0.48126850  0.37014379  1
  O  O332  1  0.49842900  0.49447859  0.88286708  1
  O  O333  1  0.49989064  0.99162934  0.37862227  1
  O  O334  1  0.49400255  0.99376026  0.88604334  1
  O  O335  1  0.99570166  0.49249613  0.37848023  1
  O  O336  1  1.00564970  0.48581795  0.88308044  1
  O  O337  1  1.00183420  0.98812954  0.38066959  1
  O  O338  1  0.98981465  0.99805501  0.87474922  1
  O  O339  1  -0.00102516  0.01489256  0.13077693  1
  O  O340  1  0.00183665  0.01008901  0.61596796  1
  O  O341  1  0.00280885  0.50395760  0.11550187  1
  O  O342  1  -0.00328570  0.50676546  0.61106518  1
  O  O343  1  0.51265087  0.00162070  0.12065169  1
  O  O344  1  0.51207781  0.00139994  0.62395658  1
  O  O345  1  0.51205366  0.50587982  0.11964373  1
  O  O346  1  0.51336916  0.51102875  0.62834942  1
  O  O347  1  0.25297252  0.37383682  0.23531677  1
  O  O348  1  0.24087116  0.37354632  0.74207474  1
  O  O349  1  0.24079742  0.88500518  0.24946714  1
  O  O350  1  0.26338705  0.87480994  0.74597068  1
  O  O351  1  0.75736056  0.38524166  0.24622886  1
  O  O352  1  0.75052203  0.38981986  0.75173710  1
  O  O353  1  0.74785966  0.88314186  0.24045494  1
  O  O354  1  0.74552354  0.88049751  0.74464982  1
  O  O355  1  0.25377635  0.12056473  0.25876781  1
  O  O356  1  0.25600318  0.12863033  0.75826024  1
  O  O357  1  0.21936643  0.60951658  0.26219924  1
  O  O358  1  0.26691924  0.62340120  0.74783827  1
  O  O359  1  0.75373976  0.11918728  0.25872478  1
  O  O360  1  0.75073583  0.12091548  0.76253774  1
  O  O361  1  0.74748395  0.61147179  0.26119852  1
  O  O362  1  0.76301209  0.61826105  0.75422536  1
  O  O363  1  0.36680369  0.12654677  0.37220998  1
  O  O364  1  0.36189881  0.13417671  0.86325457  1
  O  O365  1  0.38687993  0.63867940  0.36731197  1
  O  O366  1  0.37547398  0.62832570  0.86010453  1
  O  O367  1  0.86119412  0.12904791  0.37203305  1
  O  O368  1  0.86799457  0.12037535  0.87572921  1
  O  O369  1  0.86870953  0.61657061  0.37850571  1
  O  O370  1  0.90111973  0.61252039  0.85547076  1
  O  O371  1  0.13347089  0.37727418  0.11337581  1
  O  O372  1  0.13741505  0.36479234  0.63305883  1
  O  O373  1  0.12233258  0.87644438  0.13541400  1
  O  O374  1  0.09332784  0.85562571  0.64432261  1
  O  O375  1  0.63585481  0.38364012  0.11862376  1
  O  O376  1  0.61923013  0.38756179  0.62612634  1
  O  O377  1  0.63363099  0.88299992  0.12713400  1
  O  O378  1  0.63011992  0.88179659  0.63052074  1
  O  O379  1  0.11244395  0.24297322  0.26024098  1
  O  O380  1  0.11448376  0.25660727  0.75748278  1
  O  O381  1  0.12724437  0.76373053  0.26133721  1
  O  O382  1  0.11290821  0.74859171  0.75936076  1
  O  O383  1  0.61802730  0.24434306  0.25880218  1
  O  O384  1  0.61477086  0.25212864  0.75778517  1
  O  O385  1  0.63476408  0.75119050  0.26151808  1
  O  O386  1  0.63178728  0.76478385  0.74416045  1
  O  O387  1  0.38291508  0.24371219  0.24074596  1
  O  O388  1  0.37973333  0.24221110  0.73940056  1
  O  O389  1  0.37109624  0.75189632  0.24464307  1
  O  O390  1  0.38200715  0.73973064  0.73621655  1
  O  O391  1  0.88229294  0.24282711  0.24537208  1
  O  O392  1  0.88870493  0.25106317  0.75671608  1
  O  O393  1  0.87892862  0.75277295  0.23894818  1
  O  O394  1  0.89115958  0.74376290  0.73387678  1
  O  O395  1  0.38598277  0.48834213  0.51327828  1
  O  O396  1  0.39025625  0.49715002  1.00559327  1
  O  O397  1  0.37949009  0.98725441  0.50195852  1
  O  O398  1  0.38266964  0.99845596  1.00630459  1
  O  O399  1  0.88212710  0.49396032  0.48829055  1
  O  O400  1  0.88045786  0.49043069  1.00517502  1
  O  O401  1  0.88506152  1.00124113  0.50218144  1
  O  O402  1  0.86958514  0.99250489  0.99150733  1
  O  O403  1  0.12813159  0.01398342  0.00124305  1
  O  O404  1  0.10967532  0.00965610  0.49941471  1
  O  O405  1  0.11409532  0.50590247  0.00385321  1
  O  O406  1  0.11229850  0.51061298  0.49438246  1
  O  O407  1  0.62807941  0.00179435  0.01268532  1
  O  O408  1  0.62589053  0.00804429  0.50908479  1
  O  O409  1  0.61601732  0.50016014  0.00759228  1
  O  O410  1  0.62604433  0.50493981  0.50790605  1
  O  O411  1  0.36953910  0.36023510  0.11672945  1
  O  O412  1  0.35997952  0.36293211  0.62904827  1
  O  O413  1  0.37480718  0.86191964  0.12744556  1
  O  O414  1  0.38342292  0.86063448  0.61599795  1
  O  O415  1  0.86840321  0.36993018  0.11794454  1
  O  O416  1  0.87962342  0.37925487  0.60949768  1
  O  O417  1  0.87121912  0.86853839  0.12371445  1
  O  O418  1  0.86745050  0.86751434  0.62312975  1
  O  O419  1  0.13012896  0.13044599  0.38223856  1
  O  O420  1  0.12783164  0.13314754  0.88053759  1
  O  O421  1  0.11039460  0.64489628  0.38795702  1
  O  O422  1  0.11777462  0.63262124  0.88449853  1
  O  O423  1  0.63360755  0.13285296  0.38259007  1
  O  O424  1  0.63212400  0.13373125  0.87050302  1
  O  O425  1  0.63403266  0.62879009  0.37970404  1
  O  O426  1  0.62629358  0.62524369  0.88927057  1
