# generated using pymatgen
data_V85Zn86O256
_symmetry_space_group_name_H-M   'P 1'
_cell_length_a   16.95976189
_cell_length_b   16.96454571
_cell_length_c   16.97611890
_cell_angle_alpha   90.14739952
_cell_angle_beta   89.91007451
_cell_angle_gamma   89.87286495
_symmetry_Int_Tables_number   1
_chemical_formula_structural   V85Zn86O256
_chemical_formula_sum   'V85 Zn86 O256'
_cell_volume   4884.24395729
_cell_formula_units_Z   1
loop_
 _symmetry_equiv_pos_site_id
 _symmetry_equiv_pos_as_xyz
  1  'x, y, z'
loop_
 _atom_site_type_symbol
 _atom_site_label
 _atom_site_symmetry_multiplicity
 _atom_site_fract_x
 _atom_site_fract_y
 _atom_site_fract_z
 _atom_site_occupancy
  V  V0  1  -0.00052653  0.49849737  -0.00245804  1
  V  V1  1  0.14148718  0.36695174  0.76422297  1
  V  V2  1  0.37123698  0.51342397  0.37418469  1
  V  V3  1  0.00023762  0.87121285  0.87128092  1
  V  V4  1  -0.00091718  0.24731005  0.76145259  1
  V  V5  1  0.36617481  0.38063488  0.50357979  1
  V  V6  1  0.61097487  0.54604337  0.65353344  1
  V  V7  1  0.73928029  0.74049387  -0.00503191  1
  V  V8  1  0.37630275  0.12395416  0.74019090  1
  V  V9  1  0.12846534  0.62425261  -0.00258979  1
  V  V10  1  0.37617243  0.00738772  0.87274637  1
  V  V11  1  0.87344996  0.50204559  0.87212686  1
  V  V12  1  0.86009409  0.37884423  0.00003135  1
  V  V13  1  0.62586595  0.25205461  0.87521069  1
  V  V14  1  0.74998276  0.75304394  0.50105408  1
  V  V15  1  0.62954297  0.36622174  0.73446883  1
  V  V16  1  0.12326511  0.00441048  0.12195136  1
  V  V17  1  0.49612597  0.37715994  0.37243819  1
  V  V18  1  0.12116264  0.60172833  0.52374801  1
  V  V19  1  0.25307084  0.61760655  0.85828125  1
  V  V20  1  0.00191837  0.74076318  0.74603041  1
  V  V21  1  0.49894556  0.75384343  0.24455018  1
  V  V22  1  0.50586443  0.50596844  0.49397843  1
  V  V23  1  0.74841386  0.00127839  0.25001571  1
  V  V24  1  0.12836498  0.13174427  -0.01249498  1
  V  V25  1  0.36646913  0.25908945  0.62637992  1
  V  V26  1  0.87355401  0.00244696  0.86901965  1
  V  V27  1  0.62495470  0.12748402  -0.00086509  1
  V  V28  1  -0.00197174  0.00364253  0.50077251  1
  V  V29  1  0.37517062  0.12735919  0.25162565  1
  V  V30  1  0.12274308  0.25030619  0.37382601  1
  V  V31  1  0.26874717  0.86445104  0.61399866  1
  V  V32  1  0.37160749  0.74945596  0.11753305  1
  V  V33  1  0.87437331  0.74559335  0.12396280  1
  V  V34  1  0.37479791  0.37681446  -0.00093672  1
  V  V35  1  -0.00077830  -0.00038996  -0.00177595  1
  V  V36  1  0.75865782  0.51086910  0.25041617  1
  V  V37  1  0.62060646  0.12393958  0.50632613  1
  V  V38  1  0.25012999  0.00261313  0.24865260  1
  V  V39  1  0.74901351  0.26065535  0.50729050  1
  V  V40  1  0.61975415  -0.00171505  0.62780423  1
  V  V41  1  -0.00973468  0.12282759  0.63087383  1
  V  V42  1  -0.00003545  0.87646879  0.37649416  1
  V  V43  1  0.12227915  0.87892502  0.24746391  1
  V  V44  1  0.87135131  0.62476727  0.74733474  1
  V  V45  1  0.87115712  0.25846450  0.63295593  1
  V  V46  1  0.12516451  0.12345749  0.50910561  1
  V  V47  1  0.74955294  0.87450749  0.12255952  1
  V  V48  1  0.24809984  0.37192771  0.12457569  1
  V  V49  1  0.25109898  0.00018960  0.75168824  1
  V  V50  1  0.87403797  0.87348547  -0.00220322  1
  V  V51  1  0.50673137  0.86530605  0.87131129  1
  V  V52  1  0.44693129  0.82224756  0.42741646  1
  V  V53  1  0.62973088  0.86514771  0.75053394  1
  V  V54  1  0.62963502  0.75878818  0.37170504  1
  V  V55  1  0.25050000  0.12277041  0.38060338  1
  V  V56  1  0.49992627  0.62597265  0.11071278  1
  V  V57  1  0.75204342  0.49042911  0.74112517  1
  V  V58  1  0.62480424  0.00198486  0.12416898  1
  V  V59  1  0.49963249  0.12708900  0.12590795  1
  V  V60  1  0.62517050  0.25071038  0.37628014  1
  V  V61  1  0.87264601  0.87586736  0.50579631  1
  V  V62  1  0.37170018  0.87639408  -0.00531366  1
  V  V63  1  0.49964982  0.00399806  -0.00213934  1
  V  V64  1  0.62855926  0.62274717  0.48290377  1
  V  V65  1  0.62758758  0.50169003  0.12308806  1
  V  V66  1  0.49432652  -0.00121110  0.49792205  1
  V  V67  1  0.63520381  0.37752023  0.24831417  1
  V  V68  1  0.50150753  0.37245637  0.87399203  1
  V  V69  1  0.75337709  0.12717638  0.37859126  1
  V  V70  1  -0.00097258  0.62422631  0.12723177  1
  V  V71  1  0.75287532  0.12711431  0.87194188  1
  V  V72  1  0.12296882  0.47752483  0.63528369  1
  V  V73  1  0.49851144  0.25179255  0.25086437  1
  V  V74  1  0.50201718  0.24503966  0.73901599  1
  V  V75  1  0.87504514  0.74760316  0.62362817  1
  V  V76  1  0.24750213  0.50559932  0.25649972  1
  V  V77  1  0.12910552  0.86988508  0.74442258  1
  V  V78  1  0.75253509  -0.00051624  0.74215638  1
  V  V79  1  0.11943742  0.37577107  0.25440161  1
  V  V80  1  0.62196277  0.87727470  0.24868226  1
  V  V81  1  0.87416458  0.12774994  0.24893433  1
  V  V82  1  0.86770144  0.25761477  0.12558794  1
  V  V83  1  -0.00359566  0.74996000  0.25058289  1
  V  V84  1  0.13763661  0.74645596  0.38215757  1
  Zn  Zn85  1  0.37285120  0.24931978  0.12243872  1
  Zn  Zn86  1  0.24814162  0.74770549  -0.00437725  1
  Zn  Zn87  1  0.89714689  0.50366029  0.39188236  1
  Zn  Zn88  1  0.24894863  0.25503642  0.50374700  1
  Zn  Zn89  1  0.12603801  0.49849704  0.12394829  1
  Zn  Zn90  1  -0.00396210  0.25542439  0.25007464  1
  Zn  Zn91  1  0.74571375  0.25809598  0.00261029  1
  Zn  Zn92  1  0.77414300  0.63223201  0.36567113  1
  Zn  Zn93  1  0.37263290  0.50088226  0.85167801  1
  Zn  Zn94  1  0.49997171  0.50293173  0.00119047  1
  Zn  Zn95  1  0.12790618  -0.00422618  0.62388902  1
  Zn  Zn96  1  0.42276862  0.66628422  0.70545116  1
  Zn  Zn97  1  0.00388129  0.36956980  0.87912285  1
  Zn  Zn98  1  0.12677064  0.74663465  0.87300986  1
  Zn  Zn99  1  0.24779470  0.87622438  0.11939331  1
  Zn  Zn100  1  0.88697887  0.38512069  0.50396365  1
  Zn  Zn101  1  0.36985368  0.62980136  0.24869571  1
  Zn  Zn102  1  0.71476044  0.63736687  0.86450031  1
  Zn  Zn103  1  0.38111223  -0.00256500  0.37600544  1
  Zn  Zn104  1  0.87261973  0.00041192  0.37590303  1
  Zn  Zn105  1  0.24664573  0.25072141  -0.01095489  1
  Zn  Zn106  1  -0.00325171  0.12754647  0.12347242  1
  Zn  Zn107  1  0.18628629  0.18822405  0.18484664  1
  Zn  Zn108  1  0.18871440  0.18475689  0.80831647  1
  Zn  Zn109  1  0.18386650  0.68882690  0.18578218  1
  Zn  Zn110  1  0.19401544  0.68696367  0.68090183  1
  Zn  Zn111  1  0.68835464  0.19110274  0.18775535  1
  Zn  Zn112  1  0.68937381  0.18188699  0.68779097  1
  Zn  Zn113  1  0.68522508  0.68534782  0.18263545  1
  Zn  Zn114  1  0.68955856  0.69045911  0.68417674  1
  Zn  Zn115  1  0.30820859  0.31531377  0.31544517  1
  Zn  Zn116  1  0.31940685  0.30803995  0.81866835  1
  Zn  Zn117  1  0.31062956  0.81579771  0.30281082  1
  Zn  Zn118  1  0.31362507  0.80246897  0.80345675  1
  Zn  Zn119  1  0.81761824  0.31855511  0.32021077  1
  Zn  Zn120  1  0.81621168  0.31399438  0.81404636  1
  Zn  Zn121  1  0.81479958  0.81550029  0.31181090  1
  Zn  Zn122  1  0.80948049  0.81207156  0.81354713  1
  Zn  Zn123  1  0.05716373  0.42353024  0.44194291  1
  Zn  Zn124  1  0.18981229  0.43943993  0.93474416  1
  Zn  Zn125  1  0.18759803  0.93513082  0.43805238  1
  Zn  Zn126  1  0.18725751  0.93851899  0.93180115  1
  Zn  Zn127  1  0.69786371  0.43778348  0.42877962  1
  Zn  Zn128  1  0.66775299  0.46883753  0.91684423  1
  Zn  Zn129  1  0.68637848  0.93763143  0.43897759  1
  Zn  Zn130  1  0.68916250  0.93750196  0.93661725  1
  Zn  Zn131  1  0.31064869  0.06502263  0.06224949  1
  Zn  Zn132  1  0.31126866  0.05943798  0.56896668  1
  Zn  Zn133  1  0.31260356  0.55845825  0.06378895  1
  Zn  Zn134  1  0.29462572  0.56254212  0.56727929  1
  Zn  Zn135  1  0.81154183  0.06510846  0.06059878  1
  Zn  Zn136  1  0.81114656  0.06600228  0.56290756  1
  Zn  Zn137  1  0.80942576  0.56296331  0.06353914  1
  Zn  Zn138  1  0.80666691  0.56375734  0.56222503  1
  Zn  Zn139  1  0.43488655  0.43830679  0.18583113  1
  Zn  Zn140  1  0.43957213  0.45272936  0.68410902  1
  Zn  Zn141  1  0.43499766  0.93791326  0.18479080  1
  Zn  Zn142  1  0.44320014  0.93141252  0.68868413  1
  Zn  Zn143  1  0.93786137  0.43665403  0.18504922  1
  Zn  Zn144  1  0.94488524  0.43394021  0.68661300  1
  Zn  Zn145  1  0.93500594  0.93924381  0.18622465  1
  Zn  Zn146  1  0.93865248  0.93376190  0.68640320  1
  Zn  Zn147  1  0.06026700  0.06613385  0.31519754  1
  Zn  Zn148  1  0.05927141  0.05657605  0.80815629  1
  Zn  Zn149  1  0.06132991  0.56788977  0.31370634  1
  Zn  Zn150  1  0.06469079  0.55697808  0.80692768  1
  Zn  Zn151  1  0.56219262  0.06313125  0.31731934  1
  Zn  Zn152  1  0.56254657  0.06296347  0.81167023  1
  Zn  Zn153  1  0.55968107  0.56791693  0.30616717  1
  Zn  Zn154  1  0.54135429  0.55878169  0.81440350  1
  Zn  Zn155  1  0.43693556  0.18712254  0.44131423  1
  Zn  Zn156  1  0.43289703  0.19180139  0.93483550  1
  Zn  Zn157  1  0.43394761  0.68102213  0.54559148  1
  Zn  Zn158  1  0.42318957  0.70130036  0.90261053  1
  Zn  Zn159  1  0.95979800  0.23036748  0.46001143  1
  Zn  Zn160  1  0.93387454  0.18495886  0.94381592  1
  Zn  Zn161  1  0.94501100  0.68143936  0.43809248  1
  Zn  Zn162  1  0.93538252  0.68501409  0.93483167  1
  Zn  Zn163  1  0.05690228  0.31259185  0.06701313  1
  Zn  Zn164  1  0.06988465  0.30079142  0.57631122  1
  Zn  Zn165  1  0.06296133  0.81270080  0.06021911  1
  Zn  Zn166  1  0.06204038  0.80743445  0.56227600  1
  Zn  Zn167  1  0.56266803  0.31534785  0.06456424  1
  Zn  Zn168  1  0.55479597  0.31241988  0.55792747  1
  Zn  Zn169  1  0.55872613  0.81533859  0.05870830  1
  Zn  Zn170  1  0.55960416  0.80474865  0.57967189  1
  O  O171  1  0.11993250  0.11479318  0.11997800  1
  O  O172  1  0.11607881  0.12041192  0.61228555  1
  O  O173  1  0.11406760  0.62424108  0.11537875  1
  O  O174  1  0.12170928  0.61890326  0.62593711  1
  O  O175  1  0.62038846  0.12138109  0.12027464  1
  O  O176  1  0.62786405  0.11352800  0.61618270  1
  O  O177  1  0.61547278  0.61120833  0.12747563  1
  O  O178  1  0.63828761  0.63140185  0.59253245  1
  O  O179  1  0.38279830  0.38011946  0.38087267  1
  O  O180  1  0.38318804  0.38082245  0.87969012  1
  O  O181  1  0.38192741  0.87829688  0.36983597  1
  O  O182  1  0.38905098  0.88382565  0.87915308  1
  O  O183  1  0.86221660  0.38939412  0.38980725  1
  O  O184  1  0.88155063  0.38303525  0.88339782  1
  O  O185  1  0.88302913  0.87650595  0.38524445  1
  O  O186  1  0.87852666  0.88268457  0.87900603  1
  O  O187  1  0.25217895  0.00822741  0.36754978  1
  O  O188  1  0.26271865  -0.00969325  0.86127099  1
  O  O189  1  0.25741514  0.49524754  0.35726574  1
  O  O190  1  0.25248900  0.51052606  0.87061992  1
  O  O191  1  0.74854372  0.00906438  0.36892267  1
  O  O192  1  0.75638375  0.00581702  0.86788184  1
  O  O193  1  0.74349270  0.51143723  0.35516040  1
  O  O194  1  0.76613943  0.49400198  0.85836751  1
  O  O195  1  0.24982765  0.48677201  0.13425262  1
  O  O196  1  0.22296593  0.50029272  0.63035808  1
  O  O197  1  0.24119549  1.00123097  0.13163994  1
  O  O198  1  0.24986783  0.98930301  0.63844306  1
  O  O199  1  0.73583654  0.50558264  0.13372893  1
  O  O200  1  0.72480561  0.51638209  0.63842999  1
  O  O201  1  0.74472037  0.99597692  0.12932501  1
  O  O202  1  0.74364198  1.00551797  0.63716593  1
  O  O203  1  0.01550939  0.37416890  0.24143247  1
  O  O204  1  0.00303476  0.35692236  0.75621666  1
  O  O205  1  0.00147469  0.87308450  0.25688681  1
  O  O206  1  0.00698620  0.86516456  0.75330373  1
  O  O207  1  0.50276362  0.37230387  0.25998440  1
  O  O208  1  0.50914096  0.36509687  0.75555279  1
  O  O209  1  0.50735590  0.86408810  0.23715716  1
  O  O210  1  0.51341859  0.87703296  0.76336634  1
  O  O211  1  0.49533527  0.13041850  0.24716368  1
  O  O212  1  0.49155751  0.13402647  0.75449715  1
  O  O213  1  0.49706605  0.64183533  0.24030779  1
  O  O214  1  0.57976918  0.61660260  0.72049261  1
  O  O215  1  0.98209875  0.12175596  0.24920435  1
  O  O216  1  1.00733930  0.13351967  0.74171432  1
  O  O217  1  1.00610579  0.63654827  0.23464313  1
  O  O218  1  0.99280868  0.63666433  0.75606474  1
  O  O219  1  0.37142592  0.26138941  0.00189908  1
  O  O220  1  0.38164473  0.26092027  0.51014178  1
  O  O221  1  0.37385695  0.76047672  0.00173799  1
  O  O222  1  0.38813842  0.75815471  0.47299449  1
  O  O223  1  0.87134147  0.26078450  0.00659221  1
  O  O224  1  0.86224560  0.25103471  0.51352806  1
  O  O225  1  0.86953688  0.75576183  0.00575649  1
  O  O226  1  0.87194505  0.75468297  0.50606370  1
  O  O227  1  0.13121374  0.23899639  0.49339404  1
  O  O228  1  0.11970249  0.23364806  1.00393945  1
  O  O229  1  0.12933856  0.76473992  0.48174689  1
  O  O230  1  0.12449032  0.73992401  0.99566886  1
  O  O231  1  0.62719059  0.24017475  0.49751833  1
  O  O232  1  0.62652070  0.24602975  0.99423278  1
  O  O233  1  0.63315548  0.75116742  0.48864351  1
  O  O234  1  0.64192648  0.75373369  1.00947067  1
  O  O235  1  0.49959450  0.24325922  0.13419794  1
  O  O236  1  0.49483003  0.24987745  0.63584076  1
  O  O237  1  0.49149444  0.74591559  0.12549458  1
  O  O238  1  0.49102563  0.73475899  0.62677097  1
  O  O239  1  0.98429587  0.24621543  0.12900129  1
  O  O240  1  0.99095810  0.23948123  0.63795640  1
  O  O241  1  0.99275582  0.74637653  0.12840540  1
  O  O242  1  0.98582437  0.75559875  0.63337479  1
  O  O243  1  0.01860655  0.23334936  0.36386044  1
  O  O244  1  -0.00811461  0.24420728  0.86423460  1
  O  O245  1  0.00541319  0.76350032  0.36539221  1
  O  O246  1  -0.00035492  0.75584161  0.86575290  1
  O  O247  1  0.50518540  0.25735923  0.37151484  1
  O  O248  1  0.50403297  0.25644808  0.86535628  1
  O  O249  1  0.50820609  0.76285578  0.36289235  1
  O  O250  1  0.51670552  0.77002804  0.89673029  1
  O  O251  1  0.24406648  0.12181645  0.49497612  1
  O  O252  1  0.23109164  0.12528476  1.00509899  1
  O  O253  1  0.21870002  0.61801260  0.49893051  1
  O  O254  1  0.23367449  0.62109290  1.00574010  1
  O  O255  1  0.74020691  0.12933767  0.49326915  1
  O  O256  1  0.74211848  0.12472295  0.98787425  1
  O  O257  1  0.74706852  0.63945986  0.48695921  1
  O  O258  1  0.75266909  0.63865544  0.99804941  1
  O  O259  1  0.25450883  0.37364950  0.00732498  1
  O  O260  1  0.26789793  0.37340371  0.49687937  1
  O  O261  1  0.26150560  0.87606404  -0.00309063  1
  O  O262  1  0.25156934  0.88526667  0.51644581  1
  O  O263  1  0.75990632  0.38075147  -0.00852841  1
  O  O264  1  0.73718047  0.36064141  0.50345659  1
  O  O265  1  0.75546764  0.86821515  0.00432103  1
  O  O266  1  0.75861886  0.86306731  0.49242519  1
  O  O267  1  0.13577048  0.49404914  0.24704163  1
  O  O268  1  0.12402050  0.47492206  0.75192323  1
  O  O269  1  0.12942218  1.00022845  0.24193688  1
  O  O270  1  0.13500525  0.98974873  0.74953292  1
  O  O271  1  0.62940743  0.49531646  0.24242378  1
  O  O272  1  0.63296841  0.48067914  0.74475956  1
  O  O273  1  0.62884529  0.99789097  0.24378923  1
  O  O274  1  0.63080847  0.99642187  0.74252299  1
  O  O275  1  0.36662244  0.00725127  0.25013558  1
  O  O276  1  0.37453598  0.00578514  0.75372171  1
  O  O277  1  0.36402564  0.49975360  0.25470396  1
  O  O278  1  0.43599970  0.53729569  0.75910056  1
  O  O279  1  0.86518789  0.00838352  0.25052871  1
  O  O280  1  0.86636195  -0.00803556  0.75830881  1
  O  O281  1  0.85714407  0.49410636  0.24161800  1
  O  O282  1  0.86956996  0.50436943  0.74977656  1
  O  O283  1  0.13062441  0.36016056  0.36738085  1
  O  O284  1  0.12251520  0.37166213  0.86882147  1
  O  O285  1  0.11662630  0.87465050  0.36533689  1
  O  O286  1  0.11971352  0.87228693  0.86188058  1
  O  O287  1  0.61684185  0.36997609  0.36696064  1
  O  O288  1  0.61976028  0.36748739  0.86690641  1
  O  O289  1  0.63133040  0.86672872  0.36475895  1
  O  O290  1  0.61464455  0.88711433  0.86488543  1
  O  O291  1  0.38078212  0.12702487  0.13213349  1
  O  O292  1  0.37486310  0.13233970  0.63619839  1
  O  O293  1  0.37998503  0.63463719  0.12507458  1
  O  O294  1  0.37946199  0.61232041  0.61552768  1
  O  O295  1  0.87290847  0.13211611  0.13301333  1
  O  O296  1  0.88656393  0.13019910  0.62267082  1
  O  O297  1  0.88326036  0.63798061  0.11733005  1
  O  O298  1  0.86958223  0.63339987  0.63849782  1
  O  O299  1  0.25028181  0.26144449  0.12303264  1
  O  O300  1  0.26790526  0.25170634  0.62223733  1
  O  O301  1  0.26001179  0.75375481  0.12106506  1
  O  O302  1  0.25301529  0.76494962  0.62541374  1
  O  O303  1  0.76129929  0.24785201  0.12090549  1
  O  O304  1  0.76074515  0.23862113  0.61974971  1
  O  O305  1  0.75816841  0.75319058  0.11844061  1
  O  O306  1  0.76280952  0.75029443  0.61415028  1
  O  O307  1  0.24334101  0.23631870  0.37697234  1
  O  O308  1  0.25661762  0.23901248  0.87713545  1
  O  O309  1  0.23486266  0.75867273  0.36121548  1
  O  O310  1  0.24577545  0.73405683  0.87802615  1
  O  O311  1  0.74321496  0.24407014  0.38454092  1
  O  O312  1  0.74661834  0.24148827  0.87613053  1
  O  O313  1  0.74483472  0.74970092  0.37601675  1
  O  O314  1  0.75001195  0.74713425  0.88882607  1
  O  O315  1  0.00954103  0.11621192  0.00063457  1
  O  O316  1  0.00594004  0.12506121  0.50778321  1
  O  O317  1  0.00591971  0.61653694  0.00338886  1
  O  O318  1  0.03086602  0.64303011  0.49827777  1
  O  O319  1  0.50458553  0.12286966  0.00427845  1
  O  O320  1  0.51440033  0.11670438  0.49421693  1
  O  O321  1  0.49356376  0.62497286  0.01053786  1
  O  O322  1  0.51116982  0.61150069  0.48684666  1
  O  O323  1  0.50030225  0.38635916  0.48657601  1
  O  O324  1  0.49134778  0.36743649  0.99117166  1
  O  O325  1  0.50300441  0.87767224  0.49670640  1
  O  O326  1  0.49147002  0.88617810  0.99455593  1
  O  O327  1  0.99902956  0.34151842  0.49769031  1
  O  O328  1  0.99459873  0.38828533  1.00056423  1
  O  O329  1  0.99325460  0.88038080  0.49303048  1
  O  O330  1  0.99518485  0.88001015  0.99133660  1
  O  O331  1  0.49318227  0.49450051  0.37453711  1
  O  O332  1  0.49928898  0.47900678  0.88693437  1
  O  O333  1  0.50139660  0.99849780  0.38793369  1
  O  O334  1  0.49538646  0.99479436  0.88138371  1
  O  O335  1  1.00915328  0.49087294  0.36865860  1
  O  O336  1  0.98965037  0.49974234  0.88076441  1
  O  O337  1  0.99652769  0.99116375  0.38008289  1
  O  O338  1  0.99047372  0.99244026  0.87609993  1
  O  O339  1  0.00598907  0.00133911  0.11702994  1
  O  O340  1  0.00106927  0.00638522  0.62034783  1
  O  O341  1  -0.00101629  0.51019059  0.11686055  1
  O  O342  1  0.02167518  0.50190581  0.64419943  1
  O  O343  1  0.50418402  0.00772378  0.11805568  1
  O  O344  1  0.51321205  -0.00660996  0.61706706  1
  O  O345  1  0.50685975  0.51041492  0.12844411  1
  O  O346  1  0.52760152  0.49888469  0.61070541  1
  O  O347  1  0.24109445  0.38127229  0.24399235  1
  O  O348  1  0.23971097  0.36505757  0.75707726  1
  O  O349  1  0.24399582  0.89098092  0.24388385  1
  O  O350  1  0.24514779  0.87550199  0.74453934  1
  O  O351  1  0.73759519  0.38370522  0.25468452  1
  O  O352  1  0.74493542  0.38017921  0.74903163  1
  O  O353  1  0.74461262  0.88083579  0.24157598  1
  O  O354  1  0.73749132  0.88668468  0.75979415  1
  O  O355  1  0.25271230  0.11729536  0.25595696  1
  O  O356  1  0.26117307  0.11134866  0.75089686  1
  O  O357  1  0.24959558  0.60929057  0.23890198  1
  O  O358  1  0.25469862  0.62712019  0.75956109  1
  O  O359  1  0.75583655  0.12289973  0.25683554  1
  O  O360  1  0.74564952  0.11452354  0.76451329  1
  O  O361  1  0.75033007  0.61551039  0.24646733  1
  O  O362  1  0.75586556  0.61867981  0.75413565  1
  O  O363  1  0.36711168  0.12293345  0.37078852  1
  O  O364  1  0.38231284  0.11135035  0.86715376  1
  O  O365  1  0.37663455  0.61195056  0.36760913  1
  O  O366  1  0.35288359  0.61278896  0.89537599  1
  O  O367  1  0.86004781  0.12537118  0.36802231  1
  O  O368  1  0.86707603  0.11107724  0.88177244  1
  O  O369  1  0.88570948  0.61784074  0.37132308  1
  O  O370  1  0.87470884  0.61673692  0.86216029  1
  O  O371  1  0.13183084  0.37583390  0.13107142  1
  O  O372  1  0.12564828  0.37111382  0.64425018  1
  O  O373  1  0.12470447  0.88813765  0.12708789  1
  O  O374  1  0.12563558  0.87471482  0.63658203  1
  O  O375  1  0.61490538  0.38580788  0.14053869  1
  O  O376  1  0.62452657  0.35941185  0.63559320  1
  O  O377  1  0.63032565  0.88281088  0.12777312  1
  O  O378  1  0.62413253  0.88064144  0.64200682  1
  O  O379  1  0.12607950  0.25664630  0.25619548  1
  O  O380  1  0.11292111  0.25608920  0.75406444  1
  O  O381  1  0.11248695  0.76192282  0.24625453  1
  O  O382  1  0.11707066  0.75328435  0.74880844  1
  O  O383  1  0.62013748  0.25896560  0.25522002  1
  O  O384  1  0.61995527  0.24833363  0.75601607  1
  O  O385  1  0.61910339  0.75556438  0.25209885  1
  O  O386  1  0.63857496  0.76682900  0.75399968  1
  O  O387  1  0.38011971  0.24365085  0.25166949  1
  O  O388  1  0.38405743  0.24377842  0.74355602  1
  O  O389  1  0.38179648  0.75338561  0.23606096  1
  O  O390  1  0.40064571  0.73480962  0.79172156  1
  O  O391  1  0.87190460  0.24596443  0.24544731  1
  O  O392  1  0.88553589  0.24884954  0.74582663  1
  O  O393  1  0.88818094  0.75871273  0.23954436  1
  O  O394  1  0.87753968  0.74468597  0.74424709  1
  O  O395  1  0.38493549  0.49553035  0.49007797  1
  O  O396  1  0.37950142  0.48341805  1.00726007  1
  O  O397  1  0.39166625  1.00781122  0.50204002  1
  O  O398  1  0.37743071  0.99722992  0.99170559  1
  O  O399  1  0.87390672  0.49787345  0.50749461  1
  O  O400  1  0.87796269  0.49833931  0.99151707  1
  O  O401  1  0.87804637  0.99286943  0.49928664  1
  O  O402  1  0.87868262  0.99338537  0.99262627  1
  O  O403  1  0.12075702  0.00587609  0.00418988  1
  O  O404  1  0.11560216  0.00626828  0.49996476  1
  O  O405  1  0.11493520  0.50535786  0.00096382  1
  O  O406  1  0.11265806  0.49444309  0.51982167  1
  O  O407  1  0.62054944  0.00678106  0.00522188  1
  O  O408  1  0.62081626  0.00366495  0.50847574  1
  O  O409  1  0.61948581  0.48110738  0.02305045  1
  O  O410  1  0.62127980  0.51093717  0.48142985  1
  O  O411  1  0.36746541  0.37060150  0.11936619  1
  O  O412  1  0.38837217  0.37427241  0.61649658  1
  O  O413  1  0.37397038  0.86947532  0.11133404  1
  O  O414  1  0.36778802  0.87538228  0.62742197  1
  O  O415  1  0.87579363  0.36907601  0.11408038  1
  O  O416  1  0.87777743  0.36156488  0.62663446  1
  O  O417  1  0.86993725  0.86629590  0.11835340  1
  O  O418  1  0.87682032  0.86907433  0.61160198  1
  O  O419  1  0.13397168  0.12586671  0.38385512  1
  O  O420  1  0.12312538  0.11825605  0.88442029  1
  O  O421  1  0.12389600  0.64758222  0.36525864  1
  O  O422  1  0.13465140  0.62131683  0.87951074  1
  O  O423  1  0.63500810  0.13164580  0.38028072  1
  O  O424  1  0.63106275  0.13188117  0.87999416  1
  O  O425  1  0.62432514  0.64226100  0.37340682  1
  O  O426  1  0.62703897  0.57449051  0.88717996  1
