# generated using pymatgen
data_V85Zn86O256
_symmetry_space_group_name_H-M   'P 1'
_cell_length_a   16.94703878
_cell_length_b   16.95688234
_cell_length_c   16.94526470
_cell_angle_alpha   90.08277438
_cell_angle_beta   90.00973818
_cell_angle_gamma   90.01620287
_symmetry_Int_Tables_number   1
_chemical_formula_structural   V85Zn86O256
_chemical_formula_sum   'V85 Zn86 O256'
_cell_volume   4869.53745000
_cell_formula_units_Z   1
loop_
 _symmetry_equiv_pos_site_id
 _symmetry_equiv_pos_as_xyz
  1  'x, y, z'
loop_
 _atom_site_type_symbol
 _atom_site_label
 _atom_site_symmetry_multiplicity
 _atom_site_fract_x
 _atom_site_fract_y
 _atom_site_fract_z
 _atom_site_occupancy
  V  V0  1  0.49893682  0.74899918  0.25154081  1
  V  V1  1  -0.00673421  0.88284276  0.37936104  1
  V  V2  1  0.74849140  0.75054418  0.50087425  1
  V  V3  1  -0.00120266  0.75562349  0.75919938  1
  V  V4  1  0.00012627  0.62955496  0.62094238  1
  V  V5  1  0.24742440  0.00899409  0.75766960  1
  V  V6  1  -0.00139163  0.11272628  0.11788448  1
  V  V7  1  0.50164074  0.13105232  0.62844849  1
  V  V8  1  0.37264857  0.13071909  0.75782168  1
  V  V9  1  0.61710507  0.74900227  0.37680964  1
  V  V10  1  0.12197833  0.87773906  0.25208647  1
  V  V11  1  0.75104056  0.62318619  0.37661693  1
  V  V12  1  0.61734470  0.12207336  -0.00305939  1
  V  V13  1  0.00087505  0.24435713  0.25038739  1
  V  V14  1  0.25180964  0.88196914  0.62286521  1
  V  V15  1  0.49840460  0.49918120  -0.00882613  1
  V  V16  1  0.49468214  0.62070287  0.63177482  1
  V  V17  1  0.37635579  0.37559722  -0.00275916  1
  V  V18  1  0.12193927  -0.00563124  0.11070327  1
  V  V19  1  0.88998905  0.87064178  -0.00541343  1
  V  V20  1  0.74367286  0.61460930  0.85712409  1
  V  V21  1  -0.00088995  0.01574748  0.50027024  1
  V  V22  1  0.75193178  -0.00559051  0.26433791  1
  V  V23  1  0.25709219  0.75778664  0.50182435  1
  V  V24  1  0.75229197  0.00011690  0.75919820  1
  V  V25  1  0.38221417  -0.01326449  0.38056328  1
  V  V26  1  0.26193338  0.62125652  0.86601970  1
  V  V27  1  0.62596616  0.37057074  0.25597396  1
  V  V28  1  0.01120744  0.62628639  0.13016159  1
  V  V29  1  0.88180781  0.24695621  0.62088360  1
  V  V30  1  0.12955500  0.49178171  0.62451073  1
  V  V31  1  0.38094535  0.49931512  0.38120969  1
  V  V32  1  0.24894004  0.49829497  0.24548410  1
  V  V33  1  0.50114478  0.37181365  0.86787973  1
  V  V34  1  0.37743127  0.12317264  0.25485147  1
  V  V35  1  0.62189426  0.87091084  0.24882392  1
  V  V36  1  0.12539091  0.75318862  0.38056479  1
  V  V37  1  -0.00436323  0.37637101  0.37548670  1
  V  V38  1  0.25237919  0.62457418  0.37858164  1
  V  V39  1  0.75354376  0.49808499  0.25538717  1
  V  V40  1  -0.00063076  0.50222242  0.49545882  1
  V  V41  1  0.25032935  0.87311834  0.12544802  1
  V  V42  1  0.12396146  0.87766412  0.75790309  1
  V  V43  1  0.62541592  0.13069665  0.49335917  1
  V  V44  1  0.12125392  0.01291095  0.61807907  1
  V  V45  1  0.87479008  0.62259644  0.25527657  1
  V  V46  1  0.37616417  0.25170715  0.12742521  1
  V  V47  1  0.06696348  0.44805242  0.07199058  1
  V  V48  1  0.37573193  0.62203484  0.25135985  1
  V  V49  1  0.24644014  0.25286881  0.50532095  1
  V  V50  1  0.13705825  0.25074240  0.87106102  1
  V  V51  1  0.61891861  -0.00235400  0.11890600  1
  V  V52  1  0.61742739  0.61781331  0.50209957  1
  V  V53  1  0.24284463  0.73806530  -0.00145942  1
  V  V54  1  0.75194526  0.38069335  0.63430895  1
  V  V55  1  0.75249690  0.87397100  0.11646956  1
  V  V56  1  0.50639354  0.24825697  0.25721061  1
  V  V57  1  0.74461922  0.87778576  0.63243537  1
  V  V58  1  0.87538746  0.75266277  0.62695583  1
  V  V59  1  -0.00252760  0.25901697  0.75808900  1
  V  V60  1  0.75381728  0.74463851  -0.00510199  1
  V  V61  1  0.37633645  0.25246295  0.62748222  1
  V  V62  1  0.50103530  0.76625261  0.75499937  1
  V  V63  1  0.37665589  0.75629378  0.62947687  1
  V  V64  1  0.75041961  0.37307680  0.12610573  1
  V  V65  1  0.74939372  0.24762231  -0.00054893  1
  V  V66  1  0.12598235  0.37483002  0.25417044  1
  V  V67  1  0.12691021  0.62769168  0.50166723  1
  V  V68  1  0.25001381  0.12501476  0.37810204  1
  V  V69  1  0.12450654  0.24336071  0.37836242  1
  V  V70  1  0.87289690  0.37995138  0.49810512  1
  V  V71  1  0.88376689  0.12274143  0.74537164  1
  V  V72  1  -0.00425338  0.75096724  0.25705676  1
  V  V73  1  0.89203664  -0.00289068  0.88045349  1
  V  V74  1  0.50342489  0.37228538  0.38374822  1
  V  V75  1  0.86884863  0.88658389  0.49811522  1
  V  V76  1  0.26478881  0.49812585  0.74621197  1
  V  V77  1  0.87275323  0.24284661  0.12610200  1
  V  V78  1  0.62570980  0.49940525  0.12512083  1
  V  V79  1  0.62688582  0.25061149  0.86397054  1
  V  V80  1  0.37455222  0.74855561  0.12088459  1
  V  V81  1  0.62259723  0.76593689  0.87438622  1
  V  V82  1  0.49962613  0.62082525  0.12397123  1
  V  V83  1  0.37293638  0.37809392  0.50648942  1
  V  V84  1  0.62541094  0.00294758  0.63097378  1
  Zn  Zn85  1  0.87683013  0.11139939  0.25609903  1
  Zn  Zn86  1  0.25052844  -0.00096481  0.25293486  1
  Zn  Zn87  1  0.75473174  0.12591474  0.87506435  1
  Zn  Zn88  1  0.74361161  0.25645224  0.49331901  1
  Zn  Zn89  1  0.87638427  0.74587894  0.12114473  1
  Zn  Zn90  1  0.62603585  0.62478497  -0.00399879  1
  Zn  Zn91  1  0.86980438  0.61427327  0.74548635  1
  Zn  Zn92  1  0.49891754  0.12044214  0.12489769  1
  Zn  Zn93  1  0.13191109  0.11425864  -0.01655336  1
  Zn  Zn94  1  0.49405529  -0.01200804  0.50576701  1
  Zn  Zn95  1  0.90682598  0.48794873  0.87757361  1
  Zn  Zn96  1  0.12558518  0.37950592  0.75097285  1
  Zn  Zn97  1  0.39089512  0.88296351  -0.00591632  1
  Zn  Zn98  1  0.88272242  0.38076461  0.00004892  1
  Zn  Zn99  1  0.39108272  0.00092834  0.87951471  1
  Zn  Zn100  1  0.09145506  0.59641195  -0.03718294  1
  Zn  Zn101  1  0.75018986  0.13635055  0.37370886  1
  Zn  Zn102  1  0.63021119  0.38352763  0.75416441  1
  Zn  Zn103  1  0.24925612  0.37871083  0.11971599  1
  Zn  Zn104  1  0.25670471  0.24319907  -0.00879002  1
  Zn  Zn105  1  0.12590428  0.75149810  0.87534118  1
  Zn  Zn106  1  0.62995516  0.50395723  0.62934331  1
  Zn  Zn107  1  0.20152499  0.17186119  0.16242791  1
  Zn  Zn108  1  0.18615361  0.19050737  0.68625810  1
  Zn  Zn109  1  0.18795689  0.68924875  0.19409823  1
  Zn  Zn110  1  0.18747602  0.68692848  0.69019755  1
  Zn  Zn111  1  0.68655532  0.18065696  0.18907677  1
  Zn  Zn112  1  0.69760195  0.18954558  0.68392225  1
  Zn  Zn113  1  0.68980212  0.68585119  0.18439936  1
  Zn  Zn114  1  0.67929789  0.69403545  0.68821606  1
  Zn  Zn115  1  0.31415754  0.31158199  0.31409941  1
  Zn  Zn116  1  0.31434985  0.31917453  0.80935568  1
  Zn  Zn117  1  0.31219826  0.81060243  0.31061282  1
  Zn  Zn118  1  0.31277911  0.81353107  0.81067702  1
  Zn  Zn119  1  0.81354332  0.30599674  0.31446671  1
  Zn  Zn120  1  0.82019092  0.31881032  0.81853749  1
  Zn  Zn121  1  0.80865840  0.81215745  0.31307422  1
  Zn  Zn122  1  0.81191756  0.81447085  0.81533916  1
  Zn  Zn123  1  0.18952105  0.43671999  0.43641175  1
  Zn  Zn124  1  0.19565268  0.42938058  0.92516025  1
  Zn  Zn125  1  0.18741863  0.94161030  0.43837167  1
  Zn  Zn126  1  0.24118555  0.93891155  0.93810006  1
  Zn  Zn127  1  0.68736241  0.43740105  0.43966842  1
  Zn  Zn128  1  0.69093106  0.43589447  0.94002212  1
  Zn  Zn129  1  0.65493287  0.92539001  0.45091318  1
  Zn  Zn130  1  0.56182374  0.94000279  0.93826026  1
  Zn  Zn131  1  0.30971868  0.06483687  0.06545875  1
  Zn  Zn132  1  0.31298129  0.06619913  0.56028494  1
  Zn  Zn133  1  0.31225802  0.56058467  0.05844739  1
  Zn  Zn134  1  0.31555784  0.56612950  0.56610872  1
  Zn  Zn135  1  0.80810626  0.05738706  0.06001333  1
  Zn  Zn136  1  0.80801894  0.06553865  0.56186947  1
  Zn  Zn137  1  0.82017932  0.56127992  0.06149727  1
  Zn  Zn138  1  0.81307730  0.56223688  0.56178575  1
  Zn  Zn139  1  0.43933971  0.43493075  0.18897722  1
  Zn  Zn140  1  0.44355186  0.43832066  0.68606886  1
  Zn  Zn141  1  0.43766921  0.93520262  0.18947124  1
  Zn  Zn142  1  0.43372174  0.94465756  0.69077371  1
  Zn  Zn143  1  0.92923931  0.43251444  0.19264916  1
  Zn  Zn144  1  0.93689191  0.44041376  0.68641407  1
  Zn  Zn145  1  0.93433761  0.93393913  0.18485732  1
  Zn  Zn146  1  0.93923634  0.93808677  0.68527260  1
  Zn  Zn147  1  0.06059118  0.06201696  0.31021458  1
  Zn  Zn148  1  0.06448526  0.06737703  0.80580888  1
  Zn  Zn149  1  0.06538647  0.56145293  0.31343929  1
  Zn  Zn150  1  0.06277834  0.56982167  0.80102546  1
  Zn  Zn151  1  0.56324666  0.05687359  0.31166055  1
  Zn  Zn152  1  0.56380193  0.07072732  0.80693414  1
  Zn  Zn153  1  0.56257177  0.55936451  0.31386958  1
  Zn  Zn154  1  0.56444787  0.56710688  0.80766272  1
  Zn  Zn155  1  0.43995191  0.18624070  0.44219983  1
  Zn  Zn156  1  0.44221706  0.19049066  0.93714554  1
  Zn  Zn157  1  0.43666597  0.69068902  0.44374227  1
  Zn  Zn158  1  0.43744817  0.68894144  0.93688877  1
  Zn  Zn159  1  0.92787845  0.18859019  0.43158523  1
  Zn  Zn160  1  0.93966278  0.18589742  0.93698840  1
  Zn  Zn161  1  0.93373278  0.69210823  0.43849161  1
  Zn  Zn162  1  0.93777030  0.66350660  0.93007382  1
  Zn  Zn163  1  0.06455898  0.28476990  0.06075220  1
  Zn  Zn164  1  0.06019888  0.30962628  0.56312834  1
  Zn  Zn165  1  0.06469860  0.80387895  0.06436509  1
  Zn  Zn166  1  0.06307085  0.82098542  0.56507141  1
  Zn  Zn167  1  0.56238059  0.31030888  0.06246379  1
  Zn  Zn168  1  0.56206639  0.31388424  0.56558631  1
  Zn  Zn169  1  0.56573757  0.80584004  0.06382861  1
  Zn  Zn170  1  0.56023625  0.81455700  0.56414105  1
  O  O171  1  0.11177780  0.10447966  0.13913922  1
  O  O172  1  0.12644196  0.11145439  0.62353600  1
  O  O173  1  0.11100733  0.62118860  0.14287868  1
  O  O174  1  0.11949433  0.62155661  0.61704033  1
  O  O175  1  0.62428559  0.11376641  0.11725740  1
  O  O176  1  0.61912191  0.12399106  0.62360878  1
  O  O177  1  0.61913068  0.61484277  0.12422653  1
  O  O178  1  0.61297979  0.62982910  0.61758386  1
  O  O179  1  0.38180087  0.38148632  0.38342708  1
  O  O180  1  0.38541992  0.36567812  0.88850900  1
  O  O181  1  0.37021972  0.88848273  0.36995972  1
  O  O182  1  0.34379118  0.88966091  0.88503463  1
  O  O183  1  0.88880633  0.37202452  0.38058699  1
  O  O184  1  0.88608617  0.37375842  0.88631773  1
  O  O185  1  0.88123230  0.86882299  0.38621431  1
  O  O186  1  0.87531797  0.88768041  0.88052933  1
  O  O187  1  0.25751778  0.00856948  0.37407545  1
  O  O188  1  0.22845895  0.01715864  0.85546983  1
  O  O189  1  0.25998150  0.50398122  0.36729234  1
  O  O190  1  0.24795696  0.51093315  0.85983066  1
  O  O191  1  0.73875830  -0.01297445  0.36233251  1
  O  O192  1  0.76184124  0.00258392  0.86094351  1
  O  O193  1  0.74249185  0.50653193  0.36267838  1
  O  O194  1  0.73934776  0.51620575  0.87531309  1
  O  O195  1  0.25701179  0.49769466  0.14127854  1
  O  O196  1  0.24266516  0.51162004  0.63702630  1
  O  O197  1  0.24056240  0.98678744  0.13449826  1
  O  O198  1  0.24022731  0.99701734  0.62285189  1
  O  O199  1  0.74264756  0.49692746  0.13473967  1
  O  O200  1  0.75335417  0.48495699  0.62242155  1
  O  O201  1  0.73939629  0.98854921  0.12836140  1
  O  O202  1  0.74738839  0.99484984  0.63452826  1
  O  O203  1  0.00534705  0.37038660  0.25783519  1
  O  O204  1  0.00371575  0.36068281  0.74188853  1
  O  O205  1  0.00287576  0.87192200  0.25965488  1
  O  O206  1  0.01020707  0.86687637  0.74110634  1
  O  O207  1  0.50415181  0.36726476  0.26088309  1
  O  O208  1  0.49722223  0.37603202  0.76518845  1
  O  O209  1  0.51014358  0.86239363  0.24388556  1
  O  O210  1  0.49494717  0.86523390  0.74830293  1
  O  O211  1  0.49554612  0.13152965  0.25194050  1
  O  O212  1  0.48933343  0.12651434  0.73534077  1
  O  O213  1  0.49398019  0.62754361  0.24508114  1
  O  O214  1  0.50158911  0.63949592  0.73513795  1
  O  O215  1  0.99532283  0.12828278  0.24258709  1
  O  O216  1  0.98939103  0.13611408  0.74735926  1
  O  O217  1  0.99297703  0.62753345  0.25104183  1
  O  O218  1  0.99954465  0.64191546  0.73285373  1
  O  O219  1  0.37558158  0.25349170  0.01094589  1
  O  O220  1  0.36777913  0.25680963  0.50719792  1
  O  O221  1  0.36657685  0.74835006  0.01195106  1
  O  O222  1  0.36767025  0.75427078  0.51180543  1
  O  O223  1  0.86937438  0.24628188  0.01199613  1
  O  O224  1  0.88031127  0.26510822  0.50642457  1
  O  O225  1  0.87044010  0.75248543  -0.00432201  1
  O  O226  1  0.86770989  0.75961651  0.51000714  1
  O  O227  1  0.13243605  0.25654703  0.48976119  1
  O  O228  1  0.13130468  0.24834634  0.98120737  1
  O  O229  1  0.13173304  0.74707543  0.49798074  1
  O  O230  1  0.13607917  0.74224931  0.99953879  1
  O  O231  1  0.62230591  0.23406100  0.50674887  1
  O  O232  1  0.63309424  0.24231151  0.99647982  1
  O  O233  1  0.63100547  0.74079800  0.49199393  1
  O  O234  1  0.63410979  0.74590647  0.99171632  1
  O  O235  1  0.49108936  0.24902715  0.13560614  1
  O  O236  1  0.48847038  0.24390227  0.62067133  1
  O  O237  1  0.49169518  0.73956134  0.12997472  1
  O  O238  1  0.49447602  0.75119508  0.63347626  1
  O  O239  1  0.99204196  0.23758607  0.13234253  1
  O  O240  1  0.98864367  0.25262070  0.63300077  1
  O  O241  1  1.00006676  0.74044317  0.14049320  1
  O  O242  1  0.99001666  0.74961141  0.62301035  1
  O  O243  1  0.00739137  0.25617451  0.37124073  1
  O  O244  1  0.00422436  0.24773279  0.86070471  1
  O  O245  1  0.00493481  0.76196586  0.37591474  1
  O  O246  1  0.00035515  0.74422817  0.86111076  1
  O  O247  1  0.49559956  0.25897204  0.36905858  1
  O  O248  1  0.51492684  0.26015276  0.88088055  1
  O  O249  1  0.51051884  0.74331092  0.37016213  1
  O  O250  1  0.50383471  0.74698451  0.86210009  1
  O  O251  1  0.25495035  0.13542383  0.48508734  1
  O  O252  1  0.23084751  0.14223050  1.04206774  1
  O  O253  1  0.24808063  0.63756150  0.49689406  1
  O  O254  1  0.25038827  0.62595370  0.98866380  1
  O  O255  1  0.73680992  0.13132216  0.50085419  1
  O  O256  1  0.74247309  0.13458651  1.00031342  1
  O  O257  1  0.74474661  0.63124756  0.49586520  1
  O  O258  1  0.74941041  0.63657972  0.99948091  1
  O  O259  1  0.26166767  0.37012778  0.00101838  1
  O  O260  1  0.26117521  0.36516076  0.49185567  1
  O  O261  1  0.24220982  0.85679007  0.01939367  1
  O  O262  1  0.24324988  0.86438236  0.50561119  1
  O  O263  1  0.74552523  0.36007297  0.01004603  1
  O  O264  1  0.75976215  0.37686574  0.50581423  1
  O  O265  1  0.75991666  0.86077492  0.01077028  1
  O  O266  1  0.75273641  0.87065608  0.50688403  1
  O  O267  1  0.13436943  0.48580413  0.25918630  1
  O  O268  1  0.12827630  0.50056085  0.73771981  1
  O  O269  1  0.12607367  0.98494178  0.25049342  1
  O  O270  1  0.12598940  0.99652084  0.73485171  1
  O  O271  1  0.62983296  0.49355159  0.24144386  1
  O  O272  1  0.61504384  0.49467718  0.74070383  1
  O  O273  1  0.63127949  0.98754621  0.24424083  1
  O  O274  1  0.63850808  1.01183199  0.73905942  1
  O  O275  1  0.37383611  0.00721705  0.25923558  1
  O  O276  1  0.36381862  0.01243652  0.75347104  1
  O  O277  1  0.37003422  0.50291294  0.25887549  1
  O  O278  1  0.36346748  0.49969452  0.74267831  1
  O  O279  1  0.85575693  -0.00851031  0.24767593  1
  O  O280  1  0.87514342  0.00620496  0.75518641  1
  O  O281  1  0.86376775  0.50672954  0.25013914  1
  O  O282  1  0.89313065  0.50529226  0.76309587  1
  O  O283  1  0.11647040  0.36699069  0.37076507  1
  O  O284  1  0.12424848  0.35846890  0.86875600  1
  O  O285  1  0.11832087  0.87121177  0.37104772  1
  O  O286  1  0.13713729  0.87212494  0.85842539  1
  O  O287  1  0.61299172  0.38354701  0.36996404  1
  O  O288  1  0.62049990  0.36728800  0.87549377  1
  O  O289  1  0.63599306  0.85942799  0.35590732  1
  O  O290  1  0.62862122  0.86458653  0.87859278  1
  O  O291  1  0.37793365  0.13039742  0.13953591  1
  O  O292  1  0.38286180  0.13382583  0.62618322  1
  O  O293  1  0.37868582  0.62972856  0.13048153  1
  O  O294  1  0.38812565  0.63904131  0.61939083  1
  O  O295  1  0.87954816  0.12505661  0.12842708  1
  O  O296  1  0.87053563  0.13569457  0.63133156  1
  O  O297  1  0.88464509  0.62488183  0.14038286  1
  O  O298  1  0.87930152  0.63596944  0.62397231  1
  O  O299  1  0.26978740  0.26231825  0.14022771  1
  O  O300  1  0.25415940  0.24724434  0.61078263  1
  O  O301  1  0.25663980  0.74798188  0.12171495  1
  O  O302  1  0.25767334  0.75752939  0.62110799  1
  O  O303  1  0.75609408  0.24979052  0.12273098  1
  O  O304  1  0.76399809  0.26212796  0.61858926  1
  O  O305  1  0.75266158  0.75494619  0.11690558  1
  O  O306  1  0.75443961  0.75895155  0.62302676  1
  O  O307  1  0.24336645  0.24472017  0.38074240  1
  O  O308  1  0.24112677  0.24892001  0.86943122  1
  O  O309  1  0.24792209  0.74628828  0.38412424  1
  O  O310  1  0.25246019  0.73943691  0.88319453  1
  O  O311  1  0.74325731  0.25232389  0.37861413  1
  O  O312  1  0.74584064  0.24946731  0.88462050  1
  O  O313  1  0.73915394  0.74151513  0.37835377  1
  O  O314  1  0.73977217  0.74789888  0.87925177  1
  O  O315  1  0.00848565  0.12965572  0.01488445  1
  O  O316  1  -0.00575920  0.11435876  0.49329143  1
  O  O317  1  0.00241993  0.63722307  0.02748664  1
  O  O318  1  0.00359455  0.61987943  0.50053758  1
  O  O319  1  0.51350619  0.13092997  0.00552043  1
  O  O320  1  0.50914921  0.11945631  0.50990974  1
  O  O321  1  0.50131205  0.61606365  0.00494017  1
  O  O322  1  0.50866031  0.63522844  0.51383220  1
  O  O323  1  0.49225623  0.37146106  0.49095263  1
  O  O324  1  0.49723570  0.38099482  0.99370915  1
  O  O325  1  0.54631471  0.88924188  0.48522692  1
  O  O326  1  0.50077108  0.87367290  1.00644711  1
  O  O327  1  0.99582886  0.38299404  0.49392850  1
  O  O328  1  1.01004575  0.38251874  1.02038060  1
  O  O329  1  0.98918844  0.88247211  0.49488550  1
  O  O330  1  0.98899772  0.86504616  1.00521813  1
  O  O331  1  0.48747154  0.49172532  0.37148208  1
  O  O332  1  0.50805100  0.49448343  0.88764574  1
  O  O333  1  0.48421017  1.00202928  0.37486165  1
  O  O334  1  0.50257613  1.00828169  0.87364303  1
  O  O335  1  1.00789032  0.49206699  0.38733334  1
  O  O336  1  0.99821314  0.56211296  0.89292211  1
  O  O337  1  1.00564657  0.98891570  0.38330728  1
  O  O338  1  0.99039660  1.00180975  0.87011764  1
  O  O339  1  0.00700396  0.00155526  0.12738270  1
  O  O340  1  0.01286427  -0.00377003  0.61501064  1
  O  O341  1  0.00331652  0.50554733  0.13184542  1
  O  O342  1  0.00902278  0.50704810  0.61156556  1
  O  O343  1  0.51451465  -0.00003556  0.13315645  1
  O  O344  1  0.50853891  0.00733010  0.62593631  1
  O  O345  1  0.50835655  0.50210011  0.12076049  1
  O  O346  1  0.49609336  0.51862657  0.62291410  1
  O  O347  1  0.24246145  0.38186965  0.25309163  1
  O  O348  1  0.24733842  0.39383779  0.75174844  1
  O  O349  1  0.23911904  0.86868149  0.24094598  1
  O  O350  1  0.24344715  0.88821550  0.73929402  1
  O  O351  1  0.74759428  0.38216689  0.24594625  1
  O  O352  1  0.75398656  0.37004493  0.73658349  1
  O  O353  1  0.74513569  0.87763983  0.23791466  1
  O  O354  1  0.75855785  0.88559956  0.74146259  1
  O  O355  1  0.25981751  0.12496158  0.25911019  1
  O  O356  1  0.26116884  0.11875427  0.73505665  1
  O  O357  1  0.25542060  0.61822049  0.25930786  1
  O  O358  1  0.25287440  0.61833597  0.75750357  1
  O  O359  1  0.74407981  0.10357502  0.25278119  1
  O  O360  1  0.76547523  0.11971563  0.75081171  1
  O  O361  1  0.75635660  0.61775231  0.25405208  1
  O  O362  1  0.74474389  0.62542993  0.75342430  1
  O  O363  1  0.36962812  0.12238501  0.36785155  1
  O  O364  1  0.37843673  0.13363801  0.86032695  1
  O  O365  1  0.37232811  0.61789166  0.37405217  1
  O  O366  1  0.36153609  0.62694005  0.87655122  1
  O  O367  1  0.86448985  0.12491179  0.36796741  1
  O  O368  1  0.87649712  0.11313128  0.87000850  1
  O  O369  1  0.86881884  0.62980268  0.36451821  1
  O  O370  1  0.84661582  0.63728515  0.86468795  1
  O  O371  1  0.12316469  0.37729532  0.12999921  1
  O  O372  1  0.12421819  0.38943929  0.62098932  1
  O  O373  1  0.12680965  0.87671777  0.13428304  1
  O  O374  1  0.13683350  0.88328282  0.63008197  1
  O  O375  1  0.62979282  0.38049719  0.13347714  1
  O  O376  1  0.64205081  0.37338728  0.62354814  1
  O  O377  1  0.63397695  0.87609224  0.13211380  1
  O  O378  1  0.63809058  0.88546367  0.62698091  1
  O  O379  1  0.12051830  0.26184204  0.25647385  1
  O  O380  1  0.11508428  0.25192389  0.75312521  1
  O  O381  1  0.11838363  0.75993765  0.26007881  1
  O  O382  1  0.11658231  0.76103578  0.74565796  1
  O  O383  1  0.61355471  0.25378202  0.24476292  1
  O  O384  1  0.63468199  0.25270215  0.76160460  1
  O  O385  1  0.62018874  0.75102136  0.25458810  1
  O  O386  1  0.60980538  0.75508655  0.75712388  1
  O  O387  1  0.38689087  0.24400636  0.24941654  1
  O  O388  1  0.36479006  0.24722455  0.73407937  1
  O  O389  1  0.37772592  0.74193877  0.24179471  1
  O  O390  1  0.38322868  0.75514381  0.73835968  1
  O  O391  1  0.88132840  0.24952452  0.23718579  1
  O  O392  1  0.88454658  0.24483832  0.74557660  1
  O  O393  1  0.87970467  0.74227475  0.25027585  1
  O  O394  1  0.88105259  0.75498418  0.73792743  1
  O  O395  1  0.36651371  0.49192497  0.49234525  1
  O  O396  1  0.38727445  0.48868657  1.00676951  1
  O  O397  1  0.37621669  1.00140056  0.48594002  1
  O  O398  1  0.34422284  0.99381263  0.98968759  1
  O  O399  1  0.88550726  0.49004547  0.50213126  1
  O  O400  1  0.87049725  0.49475424  0.99061654  1
  O  O401  1  0.88020992  0.99104324  0.50750602  1
  O  O402  1  0.87266400  0.99145654  0.98625163  1
  O  O403  1  0.13671837  -0.00322398  0.01020172  1
  O  O404  1  0.11580607  -0.00248576  0.50989867  1
  O  O405  1  0.13131417  0.49469992  0.00598851  1
  O  O406  1  0.12306598  0.50783744  0.50349948  1
  O  O407  1  0.62982326  0.00944514  0.00764963  1
  O  O408  1  0.63300445  0.01822463  0.51975926  1
  O  O409  1  0.61974211  0.49917849  0.01276974  1
  O  O410  1  0.62935587  0.51450489  0.50589680  1
  O  O411  1  0.37966860  0.36817645  0.11519967  1
  O  O412  1  0.38230155  0.36978725  0.61367113  1
  O  O413  1  0.36548472  0.86485699  0.12836808  1
  O  O414  1  0.36105037  0.87403608  0.62754311  1
  O  O415  1  0.86767447  0.36345971  0.12196594  1
  O  O416  1  0.86916233  0.37162988  0.61715678  1
  O  O417  1  0.86893378  0.86964996  0.11501351  1
  O  O418  1  0.86623030  0.87113237  0.61688100  1
  O  O419  1  0.13260848  0.13661740  0.36680566  1
  O  O420  1  0.11848001  0.14270105  0.87153632  1
  O  O421  1  0.13246733  0.63256153  0.38100155  1
  O  O422  1  0.14274823  0.63363764  0.86783793  1
  O  O423  1  0.62470023  0.11587771  0.39115881  1
  O  O424  1  0.63111785  0.13436584  0.88143618  1
  O  O425  1  0.62800238  0.62931373  0.38181466  1
  O  O426  1  0.63351341  0.63639450  0.87486884  1
