# generated using pymatgen
data_V85Zn86O256
_symmetry_space_group_name_H-M   'P 1'
_cell_length_a   16.95768116
_cell_length_b   16.95944372
_cell_length_c   16.93103182
_cell_angle_alpha   90.00720107
_cell_angle_beta   90.11436717
_cell_angle_gamma   90.05346988
_symmetry_Int_Tables_number   1
_chemical_formula_structural   V85Zn86O256
_chemical_formula_sum   'V85 Zn86 O256'
_cell_volume   4869.23165239
_cell_formula_units_Z   1
loop_
 _symmetry_equiv_pos_site_id
 _symmetry_equiv_pos_as_xyz
  1  'x, y, z'
loop_
 _atom_site_type_symbol
 _atom_site_label
 _atom_site_symmetry_multiplicity
 _atom_site_fract_x
 _atom_site_fract_y
 _atom_site_fract_z
 _atom_site_occupancy
  V  V0  1  0.25626987  0.12465305  0.37312166  1
  V  V1  1  0.75764399  0.50363267  0.74841698  1
  V  V2  1  0.25325123  -0.00516553  0.74998840  1
  V  V3  1  0.37192304  0.75548898  0.61219993  1
  V  V4  1  0.37177081  0.49729643  0.37520329  1
  V  V5  1  0.88418184  0.25266852  0.12608064  1
  V  V6  1  -0.00178653  0.12208368  0.62899762  1
  V  V7  1  0.37859033  0.49820380  0.88721741  1
  V  V8  1  0.75537675  0.86949968  0.60912694  1
  V  V9  1  0.24169426  0.87303298  0.12222178  1
  V  V10  1  0.37357906  0.74965400  0.11928694  1
  V  V11  1  0.62371032  0.49910576  0.11595286  1
  V  V12  1  0.24926106  0.24897628  -0.00308140  1
  V  V13  1  -0.00805873  0.61997313  0.62463345  1
  V  V14  1  -0.05096651  -0.05586501  0.44094648  1
  V  V15  1  0.00857368  0.86859864  0.87392630  1
  V  V16  1  0.37062244  0.37613677  0.51144627  1
  V  V17  1  0.24907984  0.25447352  0.50853047  1
  V  V18  1  -0.00266768  0.74063646  0.75075056  1
  V  V19  1  0.63058912  0.74981647  0.88477376  1
  V  V20  1  0.87300004  0.63653489  0.24929241  1
  V  V21  1  0.12118326  -0.00302409  0.62548681  1
  V  V22  1  0.62677082  0.87336373  0.74736695  1
  V  V23  1  0.50111236  0.12525030  0.12535494  1
  V  V24  1  0.37386239  0.62305048  0.24781219  1
  V  V25  1  0.75607234  0.62783700  0.87650793  1
  V  V26  1  0.37383484  0.62494084  0.74884700  1
  V  V27  1  0.63342420  0.25220221  0.37974110  1
  V  V28  1  0.75752076  0.37717603  0.12182051  1
  V  V29  1  -0.00085413  0.36937125  0.37130594  1
  V  V30  1  0.50159719  0.87450626  0.87578117  1
  V  V31  1  -0.00572999  0.49329523  -0.00057810  1
  V  V32  1  0.49912070  0.12932112  0.62755215  1
  V  V33  1  0.87234883  0.86007526  0.00796585  1
  V  V34  1  0.87279372  0.24754068  0.62211652  1
  V  V35  1  0.13027103  0.63386268  0.50252116  1
  V  V36  1  0.12062427  0.63135272  -0.00598857  1
  V  V37  1  0.75075187  0.50461275  0.25557250  1
  V  V38  1  0.50225173  0.75532442  0.25419362  1
  V  V39  1  0.62761497  0.63109302  0.49136289  1
  V  V40  1  0.74818117  0.36921217  0.62008465  1
  V  V41  1  0.50002198  0.62101056  0.11527090  1
  V  V42  1  0.75563702  0.25472817  -0.00302608  1
  V  V43  1  0.25363390  0.87323615  0.60776643  1
  V  V44  1  0.49859023  0.49949439  0.50053664  1
  V  V45  1  0.87752228  0.50002645  0.37666573  1
  V  V46  1  0.75431059  0.85763273  0.12735262  1
  V  V47  1  0.24213806  0.12570332  0.87884784  1
  V  V48  1  0.62773800  0.12774626  0.50273771  1
  V  V49  1  0.49841747  0.37397164  0.37625013  1
  V  V50  1  0.74897217  0.12210748  0.87571039  1
  V  V51  1  -0.00153110  0.00034027  0.00325351  1
  V  V52  1  0.37873503  0.13350683  0.75306317  1
  V  V53  1  0.37455914  0.87450949  0.00051204  1
  V  V54  1  0.62641857  0.37735547  0.25055627  1
  V  V55  1  0.37571985  0.00144154  0.87761397  1
  V  V56  1  0.12321094  0.36378910  0.74961656  1
  V  V57  1  0.25164175  0.37675782  0.11670398  1
  V  V58  1  0.62408774  0.50137301  0.62776842  1
  V  V59  1  0.12354337  0.50125976  0.12258524  1
  V  V60  1  0.50033153  0.00049850  0.00268721  1
  V  V61  1  0.25066400  0.49164458  0.74194964  1
  V  V62  1  0.12254286  0.25007343  0.36702836  1
  V  V63  1  0.50027327  0.62801820  0.62484085  1
  V  V64  1  0.50059397  0.25209142  0.25030263  1
  V  V65  1  0.12138673  0.12642028  0.50216428  1
  V  V66  1  0.24454953  0.62823545  0.87036177  1
  V  V67  1  0.88525564  0.12897154  0.25340710  1
  V  V68  1  -0.00523409  0.63114234  0.12328117  1
  V  V69  1  0.48620817  -0.00432474  0.48737441  1
  V  V70  1  0.12017346  -0.00207560  0.12741947  1
  V  V71  1  0.00738871  0.74787543  0.26108661  1
  V  V72  1  0.61894208  0.25069802  0.86726338  1
  V  V73  1  0.12089079  0.87285799  0.26049790  1
  V  V74  1  0.49716370  0.37532609  0.88210058  1
  V  V75  1  0.75606829  0.12216677  0.37904098  1
  V  V76  1  0.37965973  0.26048491  0.11941063  1
  V  V77  1  0.75242439  0.00669442  0.24244486  1
  V  V78  1  0.49958963  0.75177125  0.74867610  1
  V  V79  1  0.75213013  -0.00542966  0.74762075  1
  V  V80  1  0.62558834  0.12634716  -0.00085773  1
  V  V81  1  0.24632983  0.63838149  0.37698628  1
  V  V82  1  0.24635697  0.49715679  0.25145307  1
  V  V83  1  0.87390458  -0.00663208  0.87723404  1
  V  V84  1  0.87471919  0.49196825  0.87564934  1
  Zn  Zn85  1  0.62583723  -0.00239233  0.12359075  1
  Zn  Zn86  1  0.63431799  0.76442813  0.37864362  1
  Zn  Zn87  1  0.12737069  0.49439762  0.62190528  1
  Zn  Zn88  1  0.37656680  0.25545054  0.63250676  1
  Zn  Zn89  1  -0.00211609  0.24624594  0.75961311  1
  Zn  Zn90  1  0.00436956  0.12986779  0.12911923  1
  Zn  Zn91  1  0.12804610  0.86687068  0.75058607  1
  Zn  Zn92  1  0.24080647  0.75158421  -0.01039573  1
  Zn  Zn93  1  0.00302185  0.36515861  0.87923366  1
  Zn  Zn94  1  0.87320418  0.36866279  0.49784803  1
  Zn  Zn95  1  0.28268755  -0.02552609  0.27876352  1
  Zn  Zn96  1  0.11964369  0.37083810  0.24639369  1
  Zn  Zn97  1  0.87295217  0.74871180  0.60892545  1
  Zn  Zn98  1  0.12175546  0.12740404  0.00040737  1
  Zn  Zn99  1  0.61885711  0.37147546  0.74783559  1
  Zn  Zn100  1  0.00665890  0.49479084  0.50059373  1
  Zn  Zn101  1  0.62352057  0.88479878  0.25376651  1
  Zn  Zn102  1  0.62895516  0.62638101  0.00016731  1
  Zn  Zn103  1  0.37789367  0.12420503  0.25465043  1
  Zn  Zn104  1  0.62201604  -0.00180632  0.62078885  1
  Zn  Zn105  1  0.79093443  0.66850995  0.42082753  1
  Zn  Zn106  1  0.87539717  0.12367006  0.75187172  1
  Zn  Zn107  1  0.18909168  0.18746466  0.18502626  1
  Zn  Zn108  1  0.19146939  0.18486049  0.68949575  1
  Zn  Zn109  1  0.18644709  0.68654961  0.18466808  1
  Zn  Zn110  1  0.18354234  0.68899874  0.68557522  1
  Zn  Zn111  1  0.69003011  0.19040347  0.18809907  1
  Zn  Zn112  1  0.69042070  0.18461695  0.68757994  1
  Zn  Zn113  1  0.68530857  0.68446791  0.19466078  1
  Zn  Zn114  1  0.68972669  0.68816040  0.68836447  1
  Zn  Zn115  1  0.31075982  0.31030469  0.31236822  1
  Zn  Zn116  1  0.31141039  0.31504695  0.81813997  1
  Zn  Zn117  1  0.32010204  0.81297846  0.31176721  1
  Zn  Zn118  1  0.31508227  0.81111158  0.80887566  1
  Zn  Zn119  1  0.81373065  0.31237395  0.30964273  1
  Zn  Zn120  1  0.81086502  0.31340865  0.80539900  1
  Zn  Zn121  1  0.81266931  0.82532251  0.42168551  1
  Zn  Zn122  1  0.81821225  0.80822581  0.80858436  1
  Zn  Zn123  1  0.18516741  0.43804515  0.43898978  1
  Zn  Zn124  1  0.18613380  0.44151784  0.93319938  1
  Zn  Zn125  1  0.17997076  0.94125183  0.44034824  1
  Zn  Zn126  1  0.18688576  0.94014053  0.94025093  1
  Zn  Zn127  1  0.68801484  0.44129451  0.44025080  1
  Zn  Zn128  1  0.68834313  0.43515367  0.93522312  1
  Zn  Zn129  1  0.67370004  0.94735050  0.42963920  1
  Zn  Zn130  1  0.68920046  0.93371066  0.94273923  1
  Zn  Zn131  1  0.31881858  0.05681378  0.08276095  1
  Zn  Zn132  1  0.31163052  0.06486762  0.56337564  1
  Zn  Zn133  1  0.30703374  0.56624471  0.06020346  1
  Zn  Zn134  1  0.31161466  0.56679667  0.56174019  1
  Zn  Zn135  1  0.81888999  0.06555892  0.06348407  1
  Zn  Zn136  1  0.81339852  0.05707906  0.56052774  1
  Zn  Zn137  1  0.81251796  0.56483935  0.06017297  1
  Zn  Zn138  1  0.81336639  0.55642071  0.56401284  1
  Zn  Zn139  1  0.43794975  0.43867422  0.18575917  1
  Zn  Zn140  1  0.44111608  0.43721500  0.69606327  1
  Zn  Zn141  1  0.42488521  0.93533627  0.20845584  1
  Zn  Zn142  1  0.43740706  0.94240024  0.68088232  1
  Zn  Zn143  1  0.93776044  0.44040911  0.19039126  1
  Zn  Zn144  1  0.93890127  0.43389716  0.68775601  1
  Zn  Zn145  1  0.89999894  0.90383638  0.24922139  1
  Zn  Zn146  1  0.93754205  0.93218037  0.68642227  1
  Zn  Zn147  1  0.06925005  0.06135120  0.31087257  1
  Zn  Zn148  1  0.06231486  0.05769827  0.81108280  1
  Zn  Zn149  1  0.06350838  0.56256886  0.31653855  1
  Zn  Zn150  1  0.06288965  0.55753114  0.80980833  1
  Zn  Zn151  1  0.56606512  0.06414905  0.31335490  1
  Zn  Zn152  1  0.56223599  0.06107293  0.81114807  1
  Zn  Zn153  1  0.55921493  0.56340232  0.30808654  1
  Zn  Zn154  1  0.56273244  0.56261645  0.81346263  1
  Zn  Zn155  1  0.43943504  0.18824084  0.44195394  1
  Zn  Zn156  1  0.43412383  0.19134338  0.93949927  1
  Zn  Zn157  1  0.43693507  0.68470821  0.43503528  1
  Zn  Zn158  1  0.43858820  0.68519882  0.93540811  1
  Zn  Zn159  1  0.93961539  0.18581917  0.44175257  1
  Zn  Zn160  1  0.93609115  0.18515719  0.93707607  1
  Zn  Zn161  1  0.95188518  0.68932379  0.44186829  1
  Zn  Zn162  1  0.93511342  0.68166423  0.93201500  1
  Zn  Zn163  1  0.06770677  0.31352746  0.05911141  1
  Zn  Zn164  1  0.05980162  0.31245613  0.56576488  1
  Zn  Zn165  1  0.05535086  0.81135283  0.06401391  1
  Zn  Zn166  1  0.06215104  0.81109228  0.56557973  1
  Zn  Zn167  1  0.56701895  0.31578081  0.05720074  1
  Zn  Zn168  1  0.56033342  0.31053780  0.56366224  1
  Zn  Zn169  1  0.56383937  0.81452252  0.07009558  1
  Zn  Zn170  1  0.56012239  0.81676624  0.55957202  1
  O  O171  1  0.12370546  0.11448420  0.12534948  1
  O  O172  1  0.12002116  0.11947280  0.62263040  1
  O  O173  1  0.11789953  0.61802102  0.11630599  1
  O  O174  1  0.12119707  0.62022522  0.61504582  1
  O  O175  1  0.61377999  0.13362595  0.11726790  1
  O  O176  1  0.61931193  0.12501066  0.61916920  1
  O  O177  1  0.61823553  0.61710251  0.12380987  1
  O  O178  1  0.61926015  0.62046071  0.61764211  1
  O  O179  1  0.37974088  0.37935407  0.38164907  1
  O  O180  1  0.38004051  0.38983485  0.87343776  1
  O  O181  1  0.37164483  0.90866897  0.31015696  1
  O  O182  1  0.38198639  0.87933426  0.88091906  1
  O  O183  1  0.88086067  0.37898305  0.37564316  1
  O  O184  1  0.87372026  0.38819476  0.86950589  1
  O  O185  1  0.88974566  0.89049234  0.36928860  1
  O  O186  1  0.87792744  0.88103052  0.88368438  1
  O  O187  1  0.23984792  0.02066755  0.37628233  1
  O  O188  1  0.25728960  0.00490137  0.87091920  1
  O  O189  1  0.25402625  0.50292105  0.36506452  1
  O  O190  1  0.26037386  0.50822202  0.86630738  1
  O  O191  1  0.74481289  0.01599817  0.36097295  1
  O  O192  1  0.75564941  -0.00149994  0.86938479  1
  O  O193  1  0.75668028  0.49407941  0.36330812  1
  O  O194  1  0.75389206  0.50405654  0.86692805  1
  O  O195  1  0.24602102  0.49441928  0.12976152  1
  O  O196  1  0.25498729  0.50203005  0.63995889  1
  O  O197  1  0.23160147  0.98143257  0.10772142  1
  O  O198  1  0.24782962  0.99319806  0.63405986  1
  O  O199  1  0.74580654  0.49356129  0.13223827  1
  O  O200  1  0.74258234  0.49525848  0.63179679  1
  O  O201  1  0.74622014  1.01175029  0.13484090  1
  O  O202  1  0.74708409  0.98978385  0.63265691  1
  O  O203  1  0.00203003  0.37925355  0.26441129  1
  O  O204  1  0.01283180  0.37199592  0.75307167  1
  O  O205  1  0.00406169  0.85473065  0.24140586  1
  O  O206  1  0.00221804  0.86667372  0.75871069  1
  O  O207  1  0.50682943  0.37245416  0.25656009  1
  O  O208  1  0.50492179  0.37899047  0.76799571  1
  O  O209  1  0.50726899  0.85640702  0.22847221  1
  O  O210  1  0.50838064  0.87328835  0.75391464  1
  O  O211  1  0.49958092  0.13330757  0.24174549  1
  O  O212  1  0.48949366  0.11912755  0.74397013  1
  O  O213  1  0.49146750  0.63086841  0.23920227  1
  O  O214  1  0.49566359  0.63080512  0.74346385  1
  O  O215  1  0.98848329  0.12126386  0.25120342  1
  O  O216  1  0.99913086  0.12406777  0.74124459  1
  O  O217  1  0.99850168  0.62929854  0.24282553  1
  O  O218  1  1.00429810  0.63230454  0.74129648  1
  O  O219  1  0.36356778  0.25457512  0.00775056  1
  O  O220  1  0.36798679  0.26040717  0.50142555  1
  O  O221  1  0.37541884  0.75239467  0.00832125  1
  O  O222  1  0.38104458  0.74626573  0.51300847  1
  O  O223  1  0.86091662  0.24260305  0.00879331  1
  O  O224  1  0.87718581  0.24891090  0.51649650  1
  O  O225  1  0.88080863  0.76138473  -0.00289166  1
  O  O226  1  0.86505474  0.74181143  0.49018125  1
  O  O227  1  0.13250461  0.24573071  0.49641678  1
  O  O228  1  0.14257799  0.24412058  1.00883084  1
  O  O229  1  0.12365790  0.73333483  0.50498207  1
  O  O230  1  0.11962027  0.73545415  1.00130713  1
  O  O231  1  0.61977777  0.23992744  0.49173362  1
  O  O232  1  0.63649236  0.24432928  0.99117876  1
  O  O233  1  0.61475694  0.73482433  0.49645253  1
  O  O234  1  0.62186213  0.75271478  0.98727581  1
  O  O235  1  0.49715941  0.25248181  0.12892009  1
  O  O236  1  0.49607426  0.23596638  0.62305179  1
  O  O237  1  0.49248637  0.74011784  0.12824984  1
  O  O238  1  0.49466598  0.74826434  0.63094979  1
  O  O239  1  0.98764092  0.25317829  0.11694894  1
  O  O240  1  0.99268833  0.24007117  0.63262972  1
  O  O241  1  1.00007719  0.73381229  0.12929846  1
  O  O242  1  0.99575924  0.74056636  0.63079098  1
  O  O243  1  0.01115141  0.25553094  0.38032468  1
  O  O244  1  -0.00432922  0.25155936  0.87379002  1
  O  O245  1  0.00997193  0.74255421  0.35964358  1
  O  O246  1  -0.00631140  0.75439159  0.86216484  1
  O  O247  1  0.50902589  0.25473957  0.36999836  1
  O  O248  1  0.50844882  0.25778278  0.88109603  1
  O  O249  1  0.48898323  0.74844257  0.35516387  1
  O  O250  1  0.50736933  0.75539268  0.86837861  1
  O  O251  1  0.24296935  0.13405388  0.49293866  1
  O  O252  1  0.25349539  0.13039343  0.99391152  1
  O  O253  1  0.24072147  0.62360514  0.49186374  1
  O  O254  1  0.23833966  0.62728436  0.98982962  1
  O  O255  1  0.74192891  0.11939463  0.49120156  1
  O  O256  1  0.74432580  0.13020154  0.99411402  1
  O  O257  1  0.73174593  0.61541253  0.50338002  1
  O  O258  1  0.74716198  0.62168448  0.98378211  1
  O  O259  1  0.24390487  0.37154653  0.01069750  1
  O  O260  1  0.26025269  0.36793326  0.49500546  1
  O  O261  1  0.25522882  0.86797269  0.00086101  1
  O  O262  1  0.24968630  0.87929316  0.50850143  1
  O  O263  1  0.74676312  0.36648810  0.00904558  1
  O  O264  1  0.75083440  0.38113064  0.51560028  1
  O  O265  1  0.75772922  0.87764542  0.01754611  1
  O  O266  1  0.74423400  0.88438624  0.50732000  1
  O  O267  1  0.13551046  0.50095022  0.24405268  1
  O  O268  1  0.13973215  0.49571450  0.74599535  1
  O  O269  1  0.12379556  0.98849211  0.23959477  1
  O  O270  1  0.13564995  0.99742498  0.74135891  1
  O  O271  1  0.63390339  0.49723761  0.24430582  1
  O  O272  1  0.62988756  0.50257823  0.73720145  1
  O  O273  1  0.63708115  1.00644177  0.24382298  1
  O  O274  1  0.63147642  0.98676101  0.75027958  1
  O  O275  1  0.35231541  0.02568706  0.19927550  1
  O  O276  1  0.36912975  0.00712750  0.75695547  1
  O  O277  1  0.36414515  0.50396350  0.25208858  1
  O  O278  1  0.36478863  0.50570719  0.75534081  1
  O  O279  1  0.86078756  0.01397502  0.24675437  1
  O  O280  1  0.86709360  -0.00379313  0.75891639  1
  O  O281  1  0.86856531  0.50602222  0.25980657  1
  O  O282  1  0.86274374  0.49683785  0.75319790  1
  O  O283  1  0.11888472  0.36630036  0.37305962  1
  O  O284  1  0.12370044  0.38515105  0.85610802  1
  O  O285  1  0.13119468  0.87799358  0.35976894  1
  O  O286  1  0.11105338  0.87733999  0.87611683  1
  O  O287  1  0.62055101  0.37013405  0.37331230  1
  O  O288  1  0.61960278  0.36650075  0.87299401  1
  O  O289  1  0.61979319  0.87590487  0.36563514  1
  O  O290  1  0.62231087  0.86868671  0.86876305  1
  O  O291  1  0.39271889  0.14539249  0.11469343  1
  O  O292  1  0.38079424  0.12661499  0.63625266  1
  O  O293  1  0.37967495  0.62959635  0.12573018  1
  O  O294  1  0.38056812  0.63230764  0.63043248  1
  O  O295  1  0.87958309  0.13594583  0.13363705  1
  O  O296  1  0.88283403  0.12665747  0.62666255  1
  O  O297  1  0.88407512  0.61491459  0.13609195  1
  O  O298  1  0.88812049  0.62500152  0.61747047  1
  O  O299  1  0.26030828  0.25812189  0.12205992  1
  O  O300  1  0.25431248  0.24436014  0.61221775  1
  O  O301  1  0.25569935  0.75551158  0.11819923  1
  O  O302  1  0.25947980  0.76204913  0.63282057  1
  O  O303  1  0.75564162  0.25923273  0.11748988  1
  O  O304  1  0.75584115  0.25856752  0.63006930  1
  O  O305  1  0.75054075  0.75937217  0.13505727  1
  O  O306  1  0.75008226  0.76576349  0.62604101  1
  O  O307  1  0.24206624  0.24462349  0.38554751  1
  O  O308  1  0.25588474  0.23948041  0.88493781  1
  O  O309  1  0.25917117  0.73677591  0.36627301  1
  O  O310  1  0.25649469  0.73323648  0.87145560  1
  O  O311  1  0.73778987  0.24604232  0.37039532  1
  O  O312  1  0.74660681  0.24500240  0.88092416  1
  O  O313  1  0.74682187  0.75259078  0.36421793  1
  O  O314  1  0.74264967  0.74093602  0.86548283  1
  O  O315  1  -0.00092571  0.11133244  0.00347061  1
  O  O316  1  0.01444470  0.13147964  0.51379205  1
  O  O317  1  0.00277486  0.61669078  0.00497913  1
  O  O318  1  0.01356873  0.61898523  0.50771502  1
  O  O319  1  0.50677233  0.12211383  0.00413369  1
  O  O320  1  0.50648845  0.12177435  0.50869836  1
  O  O321  1  0.50394538  0.62676348  0.01153878  1
  O  O322  1  0.50611685  0.61750006  0.50524772  1
  O  O323  1  0.49278964  0.38063436  0.49498335  1
  O  O324  1  0.50694326  0.37882725  0.98416131  1
  O  O325  1  0.50345101  0.89677837  0.50411993  1
  O  O326  1  0.49526009  0.88002627  0.99778683  1
  O  O327  1  0.99683560  0.37557119  0.48854014  1
  O  O328  1  1.00777408  0.38988126  0.99806136  1
  O  O329  1  1.00264935  0.88062597  0.49990361  1
  O  O330  1  0.99151785  0.88054214  0.99445076  1
  O  O331  1  0.49261494  0.49440170  0.37912301  1
  O  O332  1  0.48512429  0.49880589  0.87247838  1
  O  O333  1  0.49907316  1.01293027  0.38808932  1
  O  O334  1  0.49546772  0.99338658  0.88181847  1
  O  O335  1  0.99251325  0.49180354  0.37627265  1
  O  O336  1  0.99038280  0.50048627  0.88158737  1
  O  O337  1  1.01068939  1.00300633  0.38677649  1
  O  O338  1  0.99150012  0.99058988  0.87981778  1
  O  O339  1  0.01128755  -0.00133473  0.11553228  1
  O  O340  1  0.01082561  0.00651291  0.63385928  1
  O  O341  1  0.00421696  0.50623410  0.11839156  1
  O  O342  1  0.00161997  0.50680758  0.62429688  1
  O  O343  1  0.50351476  0.01203796  0.12058219  1
  O  O344  1  0.50280877  0.01401926  0.61940355  1
  O  O345  1  0.51130101  0.50794148  0.13218408  1
  O  O346  1  0.50668160  0.50584062  0.62190951  1
  O  O347  1  0.24905355  0.38249514  0.23957443  1
  O  O348  1  0.24435540  0.38587997  0.75352664  1
  O  O349  1  0.23423222  0.86992222  0.23514123  1
  O  O350  1  0.24876303  0.88660042  0.75233295  1
  O  O351  1  0.74447369  0.38302038  0.24228000  1
  O  O352  1  0.74207118  0.38553562  0.73947997  1
  O  O353  1  0.75619097  0.89570992  0.23580227  1
  O  O354  1  0.74454055  0.88130182  0.74619244  1
  O  O355  1  0.24962832  0.13527772  0.26924830  1
  O  O356  1  0.25692144  0.11390307  0.75822142  1
  O  O357  1  0.25366102  0.61717112  0.25373981  1
  O  O358  1  0.25262163  0.61621965  0.75383266  1
  O  O359  1  0.75670228  0.12269631  0.25565563  1
  O  O360  1  0.74864693  0.10796318  0.75611297  1
  O  O361  1  0.75970833  0.61456531  0.24592184  1
  O  O362  1  0.74296121  0.61397339  0.75964098  1
  O  O363  1  0.36036241  0.13325580  0.37518811  1
  O  O364  1  0.36972285  0.11881397  0.87054551  1
  O  O365  1  0.36728201  0.61526442  0.36991699  1
  O  O366  1  0.37070183  0.61602486  0.86832582  1
  O  O367  1  0.86455827  0.13925638  0.36774174  1
  O  O368  1  0.86654146  0.10825328  0.87566832  1
  O  O369  1  0.88131405  0.61553263  0.36702696  1
  O  O370  1  0.86524929  0.61192135  0.87311804  1
  O  O371  1  0.13334670  0.38239892  0.12815740  1
  O  O372  1  0.12232638  0.37732035  0.64116514  1
  O  O373  1  0.12678071  0.87736899  0.12688635  1
  O  O374  1  0.13487808  0.88247214  0.62679073  1
  O  O375  1  0.63432249  0.38119955  0.13049543  1
  O  O376  1  0.62828417  0.38295994  0.62523735  1
  O  O377  1  0.64128434  0.87718119  0.12966045  1
  O  O378  1  0.63474144  0.87565552  0.63198279  1
  O  O379  1  0.12932150  0.25051444  0.26306892  1
  O  O380  1  0.13104289  0.26173966  0.74973848  1
  O  O381  1  0.11399374  0.75514734  0.24181359  1
  O  O382  1  0.10628151  0.75238143  0.74396358  1
  O  O383  1  0.61999645  0.25791509  0.25702660  1
  O  O384  1  0.63106533  0.24761088  0.76454087  1
  O  O385  1  0.60726796  0.74167337  0.25389004  1
  O  O386  1  0.62046098  0.76041224  0.75536352  1
  O  O387  1  0.38402489  0.24963368  0.24129423  1
  O  O388  1  0.36631510  0.23724365  0.75147942  1
  O  O389  1  0.38122320  0.74148554  0.23401389  1
  O  O390  1  0.38349849  0.74246898  0.74496208  1
  O  O391  1  0.86893463  0.24158365  0.23774154  1
  O  O392  1  0.87303580  0.24302774  0.73891228  1
  O  O393  1  0.89136090  0.73678658  0.25070948  1
  O  O394  1  0.89249874  0.75420292  0.73978193  1
  O  O395  1  0.37839647  0.49422484  0.49633854  1
  O  O396  1  0.36959746  0.50514924  0.98555070  1
  O  O397  1  0.38696408  1.00731090  0.50218321  1
  O  O398  1  0.38112363  0.99467916  0.99836036  1
  O  O399  1  0.87393214  0.49771222  0.48514783  1
  O  O400  1  0.88359521  0.50233040  0.99135032  1
  O  O401  1  0.88669296  1.00195556  0.49579729  1
  O  O402  1  0.88113460  0.99179897  0.99528396  1
  O  O403  1  0.11262103  0.00078386  0.00393425  1
  O  O404  1  0.13401430  0.01332690  0.51722915  1
  O  O405  1  0.11845923  0.51022756  0.00390762  1
  O  O406  1  0.12630588  0.50819202  0.50465231  1
  O  O407  1  0.61906078  0.00805616  0.00106069  1
  O  O408  1  0.61646628  0.01714590  0.50161281  1
  O  O409  1  0.63125323  0.50041578  0.01343193  1
  O  O410  1  0.61799166  0.50667792  0.51017046  1
  O  O411  1  0.36895728  0.36849644  0.12634481  1
  O  O412  1  0.38270482  0.37556711  0.61510919  1
  O  O413  1  0.36400965  0.86575404  0.11913303  1
  O  O414  1  0.36557959  0.86699204  0.63217629  1
  O  O415  1  0.86440836  0.37025360  0.13153042  1
  O  O416  1  0.86637366  0.36616533  0.62498480  1
  O  O417  1  0.86061243  0.87806354  0.12331935  1
  O  O418  1  0.85841963  0.87449286  0.62382784  1
  O  O419  1  0.13044426  0.13368285  0.38456974  1
  O  O420  1  0.13929104  0.11602827  0.87698319  1
  O  O421  1  0.13451764  0.62017025  0.38834510  1
  O  O422  1  0.13315253  0.61703192  0.88106042  1
  O  O423  1  0.63375007  0.13507027  0.38163942  1
  O  O424  1  0.62907947  0.13014286  0.87994558  1
  O  O425  1  0.61766827  0.62196231  0.38985152  1
  O  O426  1  0.63023122  0.63389485  0.87674650  1
