# generated using pymatgen
data_V85Zn86O256
_symmetry_space_group_name_H-M   'P 1'
_cell_length_a   16.91022777
_cell_length_b   16.90507107
_cell_length_c   16.90870451
_cell_angle_alpha   90.05907032
_cell_angle_beta   89.98373934
_cell_angle_gamma   90.06774782
_symmetry_Int_Tables_number   1
_chemical_formula_structural   V85Zn86O256
_chemical_formula_sum   'V85 Zn86 O256'
_cell_volume   4833.66158384
_cell_formula_units_Z   1
loop_
 _symmetry_equiv_pos_site_id
 _symmetry_equiv_pos_as_xyz
  1  'x, y, z'
loop_
 _atom_site_type_symbol
 _atom_site_label
 _atom_site_symmetry_multiplicity
 _atom_site_fract_x
 _atom_site_fract_y
 _atom_site_fract_z
 _atom_site_occupancy
  V  V0  1  0.37176663  0.87036337  0.49959141  1
  V  V1  1  0.75394388  0.12791707  0.86518060  1
  V  V2  1  0.62758904  0.62623882  -0.00197347  1
  V  V3  1  0.62096833  0.50626696  0.12691139  1
  V  V4  1  0.37641517  0.62763703  0.75604109  1
  V  V5  1  0.74685525  0.12803786  0.37124699  1
  V  V6  1  0.87269173  0.24821259  0.63218781  1
  V  V7  1  0.50240510  0.24945252  0.25594520  1
  V  V8  1  0.36885759  0.75004230  0.62417321  1
  V  V9  1  0.87977705  0.48778459  0.37966912  1
  V  V10  1  0.49849636  0.37121797  0.87274313  1
  V  V11  1  0.50406372  0.37713466  0.37968573  1
  V  V12  1  -0.00114205  0.25177570  0.25277397  1
  V  V13  1  0.75922086  0.75219362  -0.00245688  1
  V  V14  1  -0.00850555  0.62783253  0.62224466  1
  V  V15  1  0.37451018  0.12377774  0.25095690  1
  V  V16  1  -0.00895838  -0.00229806  -0.00151662  1
  V  V17  1  -0.00168759  0.48537938  0.49880104  1
  V  V18  1  0.11996748  0.87025877  0.24566341  1
  V  V19  1  0.11821467  0.25117781  0.38106379  1
  V  V20  1  0.24930739  0.00299634  0.76141274  1
  V  V21  1  0.62762174  0.00176532  0.62229523  1
  V  V22  1  0.62649088  0.37313202  0.25274364  1
  V  V23  1  0.75676938  0.87846328  0.12118598  1
  V  V24  1  0.12506115  0.37360588  0.25521304  1
  V  V25  1  0.37573001  0.37914309  0.50184946  1
  V  V26  1  0.87841398  0.00599896  0.86197980  1
  V  V27  1  0.62356189  -0.00185423  0.11981711  1
  V  V28  1  0.00055727  0.87907100  0.37891183  1
  V  V29  1  0.50074005  0.12057610  0.11720332  1
  V  V30  1  0.37413425  -0.00069875  0.37628624  1
  V  V31  1  0.50751917  0.75665336  0.75015534  1
  V  V32  1  0.74779227  0.25053517  -0.00238688  1
  V  V33  1  0.87750844  0.00296671  0.38232034  1
  V  V34  1  0.12795067  -0.00304720  0.12195393  1
  V  V35  1  0.37512953  0.37736489  0.00198187  1
  V  V36  1  0.12151914  0.49803321  0.62970739  1
  V  V37  1  0.87514857  0.86034883  0.50280721  1
  V  V38  1  0.61905686  0.49621862  0.61707829  1
  V  V39  1  0.75571854  0.37679637  0.62217209  1
  V  V40  1  0.37705120  0.50105531  0.37862245  1
  V  V41  1  0.87104771  0.49381076  0.87690294  1
  V  V42  1  0.62063213  0.36914598  0.74840152  1
  V  V43  1  0.24479388  0.63430672  0.87405359  1
  V  V44  1  -0.00891319  0.11995955  0.61876454  1
  V  V45  1  0.24670504  0.24564723  0.50266542  1
  V  V46  1  0.00041110  0.62931847  0.13189517  1
  V  V47  1  0.12517489  0.49873452  0.12536641  1
  V  V48  1  0.49735801  0.51147477  0.00294864  1
  V  V49  1  0.37426865  0.25051583  0.12669339  1
  V  V50  1  0.13181033  0.25957456  0.86735197  1
  V  V51  1  0.12106967  0.62938611  -0.00427751  1
  V  V52  1  0.00105641  0.74803974  0.75031475  1
  V  V53  1  0.75008136  0.86210970  0.62065236  1
  V  V54  1  0.62241103  0.13138931  0.49388453  1
  V  V55  1  -0.00660059  0.86942484  0.87722144  1
  V  V56  1  0.49584511  0.61869535  0.61713189  1
  V  V57  1  0.36726912  0.75953511  0.12795984  1
  V  V58  1  0.75358877  0.50661656  0.25277605  1
  V  V59  1  0.24541020  0.37382118  0.62945770  1
  V  V60  1  0.24671118  0.75801744  0.00460848  1
  V  V61  1  0.24691582  0.49743798  0.75300024  1
  V  V62  1  0.87232852  0.62764411  0.75036529  1
  V  V63  1  0.24560587  0.87349629  0.62187496  1
  V  V64  1  0.75428317  0.37871196  0.11838227  1
  V  V65  1  0.24266672  0.12275031  0.37923440  1
  V  V66  1  0.25039324  0.62921107  0.38106916  1
  V  V67  1  0.39417639  -0.00265014  0.87952299  1
  V  V68  1  0.75606954  0.25479892  0.49320725  1
  V  V69  1  0.24950051  -0.00638000  0.24558137  1
  V  V70  1  0.13103113  0.12336524  -0.01252864  1
  V  V71  1  0.87933096  0.75485069  0.13228505  1
  V  V72  1  0.12294233  0.87374255  0.75372311  1
  V  V73  1  0.12521629  0.63051406  0.50262392  1
  V  V74  1  0.12194942  0.74959741  0.37351734  1
  V  V75  1  0.12477502  0.00874880  0.61321109  1
  V  V76  1  0.50222033  0.87448214  0.37488486  1
  V  V77  1  0.63235318  0.74709208  0.38211852  1
  V  V78  1  0.00041888  0.12464639  0.12369665  1
  V  V79  1  0.38237051  0.24964603  0.63115245  1
  V  V80  1  0.87721292  0.25365950  0.11803484  1
  V  V81  1  0.37539541  0.62358809  0.24547618  1
  V  V82  1  0.50174453  0.74506062  0.24593854  1
  V  V83  1  -0.00493119  0.49018461  0.00020313  1
  V  V84  1  0.37921478  0.12735906  0.75604219  1
  Zn  Zn85  1  0.87553579  0.12336719  0.24981220  1
  Zn  Zn86  1  0.24953951  0.37421142  0.12618455  1
  Zn  Zn87  1  0.74571279  0.50163570  0.75026471  1
  Zn  Zn88  1  0.00093385  0.37463119  0.86532205  1
  Zn  Zn89  1  0.50145964  0.12591424  0.62657472  1
  Zn  Zn90  1  0.88183976  0.62802538  0.25504200  1
  Zn  Zn91  1  0.62665089  0.62302203  0.50099311  1
  Zn  Zn92  1  0.49896179  0.00345902  0.50015973  1
  Zn  Zn93  1  0.37432179  0.50282420  0.87710413  1
  Zn  Zn94  1  0.38875849  0.88211211  -0.00030735  1
  Zn  Zn95  1  0.25272082  0.24531501  -0.00109033  1
  Zn  Zn96  1  0.74808686  0.62731598  0.87196733  1
  Zn  Zn97  1  0.75615928  0.00360113  0.74228954  1
  Zn  Zn98  1  0.24901002  0.49856570  0.25228252  1
  Zn  Zn99  1  0.62036703  0.24690367  0.87129218  1
  Zn  Zn100  1  0.00060597  0.24974960  0.74900416  1
  Zn  Zn101  1  0.75212069  -0.00016507  0.24929593  1
  Zn  Zn102  1  0.61845551  0.76445086  0.88711211  1
  Zn  Zn103  1  0.62777291  0.88191842  0.75465902  1
  Zn  Zn104  1  0.62873532  0.87458430  0.24993952  1
  Zn  Zn105  1  0.76252430  0.63185338  0.38963203  1
  Zn  Zn106  1  0.62295426  0.12075629  -0.00596507  1
  Zn  Zn107  1  0.18724043  0.18321756  0.18756622  1
  Zn  Zn108  1  0.19144667  0.18216402  0.68985797  1
  Zn  Zn109  1  0.18785443  0.68579501  0.18971636  1
  Zn  Zn110  1  0.18392626  0.68815367  0.68889835  1
  Zn  Zn111  1  0.68688044  0.18818026  0.18627991  1
  Zn  Zn112  1  0.68598354  0.18924919  0.68474811  1
  Zn  Zn113  1  0.68898056  0.68963836  0.18721668  1
  Zn  Zn114  1  0.68711616  0.68300321  0.68057324  1
  Zn  Zn115  1  0.30983383  0.31244457  0.31406843  1
  Zn  Zn116  1  0.31065187  0.31196918  0.81562334  1
  Zn  Zn117  1  0.30719581  0.81042136  0.31399518  1
  Zn  Zn118  1  0.31400451  0.81584029  0.81355869  1
  Zn  Zn119  1  0.81243121  0.31257646  0.30826719  1
  Zn  Zn120  1  0.81114503  0.31591319  0.80951504  1
  Zn  Zn121  1  0.81411354  0.81574577  0.30904892  1
  Zn  Zn122  1  0.81202345  0.81411685  0.81056778  1
  Zn  Zn123  1  0.18714203  0.43775240  0.44050543  1
  Zn  Zn124  1  0.18958173  0.44017990  0.94013919  1
  Zn  Zn125  1  0.18934675  0.93359883  0.43743309  1
  Zn  Zn126  1  0.18388995  0.93377971  0.93576592  1
  Zn  Zn127  1  0.69016374  0.44070997  0.43809469  1
  Zn  Zn128  1  0.68617192  0.43841205  0.93625142  1
  Zn  Zn129  1  0.69048735  0.93942953  0.43946849  1
  Zn  Zn130  1  0.69113100  0.93905566  0.93653233  1
  Zn  Zn131  1  0.31328599  0.05916403  0.06045521  1
  Zn  Zn132  1  0.31183347  0.06130634  0.56585210  1
  Zn  Zn133  1  0.30876169  0.56768359  0.06287757  1
  Zn  Zn134  1  0.31098814  0.56190167  0.56329120  1
  Zn  Zn135  1  0.81174570  0.06609643  0.05808072  1
  Zn  Zn136  1  0.81143371  0.06023005  0.55631224  1
  Zn  Zn137  1  0.81474402  0.56602885  0.06302035  1
  Zn  Zn138  1  0.80997661  0.56195093  0.56012460  1
  Zn  Zn139  1  0.43894155  0.43962438  0.18893015  1
  Zn  Zn140  1  0.43518409  0.43837973  0.69048143  1
  Zn  Zn141  1  0.44002939  0.93586234  0.18813938  1
  Zn  Zn142  1  0.43815013  0.94103867  0.68745962  1
  Zn  Zn143  1  0.93917510  0.43613297  0.19041161  1
  Zn  Zn144  1  0.93704863  0.43487877  0.69252946  1
  Zn  Zn145  1  0.93782115  0.93817182  0.19126368  1
  Zn  Zn146  1  0.93849711  0.93636331  0.68129542  1
  Zn  Zn147  1  0.06151134  0.06238671  0.31336630  1
  Zn  Zn148  1  0.05917668  0.06464309  0.80450714  1
  Zn  Zn149  1  0.06035601  0.55959178  0.31503828  1
  Zn  Zn150  1  0.05988194  0.56077941  0.81373992  1
  Zn  Zn151  1  0.56543821  0.05980235  0.30817148  1
  Zn  Zn152  1  0.56586542  0.06506051  0.80766999  1
  Zn  Zn153  1  0.56122120  0.56283731  0.31506822  1
  Zn  Zn154  1  0.56153467  0.56033300  0.81142632  1
  Zn  Zn155  1  0.43469694  0.19014262  0.43845525  1
  Zn  Zn156  1  0.43408361  0.18689785  0.93562723  1
  Zn  Zn157  1  0.43934223  0.69053973  0.43691559  1
  Zn  Zn158  1  0.45099447  0.71573676  0.95281797  1
  Zn  Zn159  1  0.93723181  0.18579878  0.44471701  1
  Zn  Zn160  1  0.94073696  0.18873575  0.93583060  1
  Zn  Zn161  1  0.94156777  0.68421350  0.43379974  1
  Zn  Zn162  1  0.93645255  0.68450284  0.93808281  1
  Zn  Zn163  1  0.06544948  0.31107125  0.06034555  1
  Zn  Zn164  1  0.06268287  0.30799792  0.56857974  1
  Zn  Zn165  1  0.06092550  0.81309261  0.06112964  1
  Zn  Zn166  1  0.05866540  0.81203331  0.56285633  1
  Zn  Zn167  1  0.56226715  0.31548285  0.06316634  1
  Zn  Zn168  1  0.56630398  0.31103252  0.55873252  1
  Zn  Zn169  1  0.56420869  0.81410819  0.06448889  1
  Zn  Zn170  1  0.55943580  0.81374477  0.56455584  1
  O  O171  1  0.11972423  0.11471436  0.11821955  1
  O  O172  1  0.12619137  0.11222910  0.62278899  1
  O  O173  1  0.12001711  0.61798921  0.11941691  1
  O  O174  1  0.11885180  0.61835939  0.61860500  1
  O  O175  1  0.61667510  0.11862216  0.12541491  1
  O  O176  1  0.62348022  0.11995888  0.61526898  1
  O  O177  1  0.63125740  0.61350098  0.11679194  1
  O  O178  1  0.61250965  0.61442410  0.62487432  1
  O  O179  1  0.37867621  0.38158057  0.38185180  1
  O  O180  1  0.37987351  0.37916477  0.88399599  1
  O  O181  1  0.37845724  0.87635278  0.38210325  1
  O  O182  1  0.37295920  0.89350412  0.87332556  1
  O  O183  1  0.87472724  0.38838480  0.36941695  1
  O  O184  1  0.87546869  0.38922785  0.87148725  1
  O  O185  1  0.88170902  0.87816031  0.38193793  1
  O  O186  1  0.88675903  0.88557671  0.87002845  1
  O  O187  1  0.25324339  0.00596846  0.37017882  1
  O  O188  1  0.24814988  -0.00329104  0.86312337  1
  O  O189  1  0.26062672  0.50560013  0.37578206  1
  O  O190  1  0.25044027  0.51067885  0.86817098  1
  O  O191  1  0.75766252  0.00877353  0.37283175  1
  O  O192  1  0.76253451  0.01003885  0.87282805  1
  O  O193  1  0.76168576  0.50083274  0.36895893  1
  O  O194  1  0.75656229  0.50398480  0.87328472  1
  O  O195  1  0.23580097  0.50137908  0.12812760  1
  O  O196  1  0.24273626  0.49428561  0.63188534  1
  O  O197  1  0.24196301  1.00266821  0.13369788  1
  O  O198  1  0.24073848  0.99253742  0.63227022  1
  O  O199  1  0.74653390  0.49466480  0.13145606  1
  O  O200  1  0.74093399  0.49003509  0.62582206  1
  O  O201  1  0.74780388  0.99437506  0.12483390  1
  O  O202  1  0.74353444  0.99411709  0.62219876  1
  O  O203  1  0.01157047  0.36138284  0.24610335  1
  O  O204  1  0.00037606  0.36514734  0.75021209  1
  O  O205  1  0.01333883  0.87852361  0.25917236  1
  O  O206  1  0.00379938  0.86691273  0.75139811  1
  O  O207  1  0.50585418  0.37029602  0.25835565  1
  O  O208  1  0.50439562  0.38028155  0.76139058  1
  O  O209  1  0.49964220  0.86703994  0.26237549  1
  O  O210  1  0.50206670  0.85976429  0.74090248  1
  O  O211  1  0.49505417  0.13337829  0.24508071  1
  O  O212  1  0.48555775  0.12295831  0.74582362  1
  O  O213  1  0.48740481  0.63247327  0.25929730  1
  O  O214  1  0.49097104  0.62974203  0.73927555  1
  O  O215  1  1.00235572  0.13629512  0.24291001  1
  O  O216  1  1.00921133  0.13286746  0.72796558  1
  O  O217  1  1.00477689  0.62187617  0.23586648  1
  O  O218  1  0.99626704  0.63020765  0.74311764  1
  O  O219  1  0.37444309  0.25825236  0.00897909  1
  O  O220  1  0.36418501  0.26027640  0.50498589  1
  O  O221  1  0.35706019  0.73103317  0.01760630  1
  O  O222  1  0.37716582  0.76138574  0.50793496  1
  O  O223  1  0.86670295  0.24798670  0.01082555  1
  O  O224  1  0.86226268  0.24708365  0.51013645  1
  O  O225  1  0.86479833  0.74233747  0.01106109  1
  O  O226  1  0.87695184  0.76159125  0.49335520  1
  O  O227  1  0.13724661  0.25526615  0.49448610  1
  O  O228  1  0.12759003  0.23692769  0.99518510  1
  O  O229  1  0.12099423  0.73707296  0.49554569  1
  O  O230  1  0.13091134  0.73758385  1.00622925  1
  O  O231  1  0.63661725  0.23807618  0.50228771  1
  O  O232  1  0.63794088  0.25101725  1.00193744  1
  O  O233  1  0.61653330  0.75097280  0.48431256  1
  O  O234  1  0.63826254  0.74023516  1.00470152  1
  O  O235  1  0.49099841  0.24713428  0.13520044  1
  O  O236  1  0.48466046  0.25289747  0.61966266  1
  O  O237  1  0.49120815  0.75034460  0.14212724  1
  O  O238  1  0.48824698  0.74353718  0.63139125  1
  O  O239  1  0.99434065  0.24681871  0.12927082  1
  O  O240  1  0.98907665  0.24103047  0.62300035  1
  O  O241  1  0.99178974  0.74182201  0.11810488  1
  O  O242  1  1.00235590  0.73796981  0.63277044  1
  O  O243  1  0.01049710  0.24248133  0.36970484  1
  O  O244  1  0.01559570  0.25145232  0.87568078  1
  O  O245  1  0.01325268  0.75988565  0.37755053  1
  O  O246  1  -0.00491582  0.75820626  0.86797723  1
  O  O247  1  0.49357300  0.25835365  0.36245338  1
  O  O248  1  0.50151258  0.26635875  0.88538984  1
  O  O249  1  0.50616772  0.75686161  0.36720988  1
  O  O250  1  0.50493572  0.73724749  0.85190083  1
  O  O251  1  0.25673625  0.13379215  0.49211270  1
  O  O252  1  0.23422712  0.12356345  1.00467466  1
  O  O253  1  0.24167970  0.61975839  0.49016401  1
  O  O254  1  0.23911013  0.62860361  0.99142977  1
  O  O255  1  0.74448325  0.13194649  0.48829437  1
  O  O256  1  0.74770452  0.13564892  0.99003942  1
  O  O257  1  0.74105512  0.62326971  0.50023161  1
  O  O258  1  0.74325734  0.63192740  0.99949700  1
  O  O259  1  0.26420892  0.37674267  0.00446740  1
  O  O260  1  0.25690381  0.36922691  0.50848151  1
  O  O261  1  0.25197652  0.86002447  -0.00661740  1
  O  O262  1  0.25532219  0.87501108  0.51318610  1
  O  O263  1  0.74544338  0.37109319  0.01221395  1
  O  O264  1  0.74181097  0.36514827  0.50805450  1
  O  O265  1  0.75051018  0.86661149  0.01222382  1
  O  O266  1  0.76230200  0.87628378  0.50799355  1
  O  O267  1  0.12351252  0.49027610  0.24528018  1
  O  O268  1  0.13178981  0.50712729  0.73802431  1
  O  O269  1  0.13051553  0.99559286  0.24144135  1
  O  O270  1  0.13194467  0.99323343  0.74187860  1
  O  O271  1  0.63066683  0.49522664  0.24525275  1
  O  O272  1  0.62384143  0.49009551  0.73936303  1
  O  O273  1  0.63029788  0.99642349  0.23734446  1
  O  O274  1  0.62949831  1.00123234  0.73413752  1
  O  O275  1  0.36693061  0.00172115  0.25514972  1
  O  O276  1  0.36950731  0.00478550  0.75866503  1
  O  O277  1  0.37258079  0.50643713  0.25850208  1
  O  O278  1  0.36446527  0.51078761  0.75071893  1
  O  O279  1  0.87453143  0.00287158  0.26360277  1
  O  O280  1  0.87845291  0.00092016  0.75788477  1
  O  O281  1  0.87023128  0.50086127  0.25882099  1
  O  O282  1  0.87371373  0.51105066  0.75755120  1
  O  O283  1  0.13041545  0.36409545  0.36831456  1
  O  O284  1  0.12539036  0.36271394  0.88252405  1
  O  O285  1  0.11951705  0.86902927  0.37146957  1
  O  O286  1  0.11258587  0.88020601  0.86006357  1
  O  O287  1  0.61566045  0.38377668  0.36586064  1
  O  O288  1  0.61695461  0.37522274  0.86682572  1
  O  O289  1  0.61866036  0.86762229  0.37459917  1
  O  O290  1  0.63422649  0.87412351  0.86714561  1
  O  O291  1  0.38119320  0.12958374  0.13074826  1
  O  O292  1  0.37653210  0.13386702  0.63048577  1
  O  O293  1  0.36669832  0.63041680  0.14215017  1
  O  O294  1  0.37517907  0.63177833  0.63284315  1
  O  O295  1  0.88183424  0.13345649  0.12650820  1
  O  O296  1  0.88363846  0.12783486  0.61996527  1
  O  O297  1  0.88433496  0.63171692  0.12978914  1
  O  O298  1  0.88599707  0.61547011  0.63240078  1
  O  O299  1  0.26290561  0.24861342  0.12568161  1
  O  O300  1  0.25418577  0.25650937  0.62002458  1
  O  O301  1  0.25429964  0.74905426  0.11963509  1
  O  O302  1  0.26027312  0.75677242  0.63203864  1
  O  O303  1  0.75706984  0.25747493  0.11987171  1
  O  O304  1  0.75486746  0.25518331  0.61657903  1
  O  O305  1  0.75877815  0.75680102  0.12029762  1
  O  O306  1  0.74604481  0.76315438  0.62226265  1
  O  O307  1  0.24288112  0.24266172  0.38262858  1
  O  O308  1  0.23741418  0.25111239  0.88156031  1
  O  O309  1  0.23669285  0.74222374  0.37664362  1
  O  O310  1  0.25368372  0.73987755  0.88071391  1
  O  O311  1  0.75597947  0.24382309  0.38121432  1
  O  O312  1  0.75074947  0.24706603  0.88256828  1
  O  O313  1  0.73542727  0.75024608  0.36713459  1
  O  O314  1  0.75187618  0.74815781  0.88486898  1
  O  O315  1  0.01127263  0.11747821  0.00461867  1
  O  O316  1  0.00662761  0.12888052  0.51813845  1
  O  O317  1  0.00646430  0.61752719  0.00860760  1
  O  O318  1  0.00667053  0.61704920  0.50726281  1
  O  O319  1  0.50208773  0.13381353  0.01454637  1
  O  O320  1  0.50791604  0.12606395  0.49909568  1
  O  O321  1  0.50678770  0.61779132  -0.00225088  1
  O  O322  1  0.49789227  0.62827663  0.51334214  1
  O  O323  1  0.49221121  0.36623609  0.48701474  1
  O  O324  1  0.49049787  0.38589852  0.99860131  1
  O  O325  1  0.49178256  0.87616573  0.48927118  1
  O  O326  1  0.48485934  0.82279380  0.98884903  1
  O  O327  1  1.00732629  0.38639896  0.50497733  1
  O  O328  1  1.00314546  0.38772084  1.00007091  1
  O  O329  1  0.98741355  0.87359014  0.49455452  1
  O  O330  1  1.00899264  0.88507439  0.98785361  1
  O  O331  1  0.48668586  0.49194213  0.37270622  1
  O  O332  1  0.49711252  0.49255235  0.88580100  1
  O  O333  1  0.49280074  0.99171642  0.37421783  1
  O  O334  1  0.49304288  1.00056627  0.87329707  1
  O  O335  1  0.99010340  0.49950608  0.38331079  1
  O  O336  1  0.99341386  0.49818639  0.88412357  1
  O  O337  1  0.99655893  0.98798467  0.37370841  1
  O  O338  1  0.99553079  0.99671195  0.87853728  1
  O  O339  1  0.00573416  0.00336321  0.11688979  1
  O  O340  1  0.01258074  0.00874911  0.62751879  1
  O  O341  1  0.00810279  0.50461052  0.12015900  1
  O  O342  1  0.00638464  0.50508232  0.61996781  1
  O  O343  1  0.50705007  0.00916880  0.12968875  1
  O  O344  1  0.51040021  0.00039974  0.61955704  1
  O  O345  1  0.50982470  0.49750275  0.11793520  1
  O  O346  1  0.50338526  0.50693036  0.62793106  1
  O  O347  1  0.23865823  0.37581119  0.24805442  1
  O  O348  1  0.25560617  0.38849525  0.74454930  1
  O  O349  1  0.23821551  0.88691792  0.25780441  1
  O  O350  1  0.24200816  0.87906213  0.74130514  1
  O  O351  1  0.74249683  0.38380161  0.24236523  1
  O  O352  1  0.73968910  0.37765296  0.73987230  1
  O  O353  1  0.74910355  0.87651021  0.23564262  1
  O  O354  1  0.75433376  0.87836597  0.73141266  1
  O  O355  1  0.25426070  0.11441217  0.25729534  1
  O  O356  1  0.26411470  0.11229757  0.74409398  1
  O  O357  1  0.25495498  0.62211776  0.26510333  1
  O  O358  1  0.25351636  0.62006215  0.75552815  1
  O  O359  1  0.75169444  0.12798245  0.26079271  1
  O  O360  1  0.74775085  0.12671325  0.76105446  1
  O  O361  1  0.75031971  0.61241478  0.25149898  1
  O  O362  1  0.75829682  0.62409559  0.74897347  1
  O  O363  1  0.36508430  0.12110332  0.36976385  1
  O  O364  1  0.37694176  0.11279969  0.86921890  1
  O  O365  1  0.36815481  0.62021604  0.37370471  1
  O  O366  1  0.36796869  0.62661065  0.86338428  1
  O  O367  1  0.86989359  0.11873152  0.37578136  1
  O  O368  1  0.86949259  0.11817483  0.87837729  1
  O  O369  1  0.87748094  0.61411280  0.37084189  1
  O  O370  1  0.87487802  0.61531632  0.86639649  1
  O  O371  1  0.12685670  0.38150511  0.13167338  1
  O  O372  1  0.13755553  0.38229935  0.62195892  1
  O  O373  1  0.11963050  0.88705915  0.13134459  1
  O  O374  1  0.12837397  0.88098190  0.63215133  1
  O  O375  1  0.63102269  0.38649697  0.13230875  1
  O  O376  1  0.62805832  0.37825471  0.62998713  1
  O  O377  1  0.63211745  0.88110168  0.12656563  1
  O  O378  1  0.63674197  0.88161295  0.62052660  1
  O  O379  1  0.12062569  0.25409926  0.25736260  1
  O  O380  1  0.13243454  0.24618458  0.76526796  1
  O  O381  1  0.12980138  0.75984785  0.25779552  1
  O  O382  1  0.11193050  0.75781216  0.74682089  1
  O  O383  1  0.61696809  0.26407247  0.24308297  1
  O  O384  1  0.62419725  0.26400565  0.74911508  1
  O  O385  1  0.61655462  0.75021084  0.25787999  1
  O  O386  1  0.61196906  0.74983420  0.74053774  1
  O  O387  1  0.38032719  0.24601141  0.24527276  1
  O  O388  1  0.36666259  0.24154777  0.74294773  1
  O  O389  1  0.37665849  0.74410442  0.24682140  1
  O  O390  1  0.38171898  0.74582281  0.74364830  1
  O  O391  1  0.88411255  0.24878759  0.24062510  1
  O  O392  1  0.87022157  0.24853616  0.73558867  1
  O  O393  1  0.87404721  0.74694799  0.23775725  1
  O  O394  1  0.88537287  0.73723199  0.75340063  1
  O  O395  1  0.37156646  0.48740259  0.49605908  1
  O  O396  1  0.38121707  0.49756291  1.00299805  1
  O  O397  1  0.37411885  0.98865540  0.49502399  1
  O  O398  1  0.37518066  0.99922954  0.98577972  1
  O  O399  1  0.88301974  0.49907557  0.48833949  1
  O  O400  1  0.88407695  0.50671738  0.99178868  1
  O  O401  1  0.87366834  0.98943355  0.48678537  1
  O  O402  1  0.88811962  1.00452825  0.99218436  1
  O  O403  1  0.12015885  0.00716711  0.00327565  1
  O  O404  1  0.12986345  -0.00576073  0.51517394  1
  O  O405  1  0.11879629  0.50801207  0.00769693  1
  O  O406  1  0.11997899  0.50842230  0.50862097  1
  O  O407  1  0.63112885  0.00308177  0.01442437  1
  O  O408  1  0.62513567  0.01128110  0.50561654  1
  O  O409  1  0.61826815  0.50542566  0.00784764  1
  O  O410  1  0.62086611  0.49629878  0.51276487  1
  O  O411  1  0.37506319  0.36783365  0.12138322  1
  O  O412  1  0.36605952  0.37085456  0.62051477  1
  O  O413  1  0.37629207  0.86386391  0.12248006  1
  O  O414  1  0.36699759  0.87049621  0.62002697  1
  O  O415  1  0.86595186  0.36736452  0.13110342  1
  O  O416  1  0.86145238  0.36886286  0.62670223  1
  O  O417  1  0.87129202  0.86818636  0.12661953  1
  O  O418  1  0.86770726  0.87699247  0.61089204  1
  O  O419  1  0.13627871  0.13166826  0.37136026  1
  O  O420  1  0.12119285  0.12897099  0.88490383  1
  O  O421  1  0.12897974  0.62981497  0.38087831  1
  O  O422  1  0.13092938  0.62180219  0.88413490  1
  O  O423  1  0.63338929  0.12078052  0.38076556  1
  O  O424  1  0.63356152  0.12871355  0.87617378  1
  O  O425  1  0.62291137  0.63786990  0.37739196  1
  O  O426  1  0.62603042  0.62513951  0.88795083  1
