# generated using pymatgen
data_V85Zn86O256
_symmetry_space_group_name_H-M   'P 1'
_cell_length_a   16.92494916
_cell_length_b   16.93344145
_cell_length_c   16.93338771
_cell_angle_alpha   90.04951225
_cell_angle_beta   89.93957109
_cell_angle_gamma   90.00876921
_symmetry_Int_Tables_number   1
_chemical_formula_structural   V85Zn86O256
_chemical_formula_sum   'V85 Zn86 O256'
_cell_volume   4853.06431355
_cell_formula_units_Z   1
loop_
 _symmetry_equiv_pos_site_id
 _symmetry_equiv_pos_as_xyz
  1  'x, y, z'
loop_
 _atom_site_type_symbol
 _atom_site_label
 _atom_site_symmetry_multiplicity
 _atom_site_fract_x
 _atom_site_fract_y
 _atom_site_fract_z
 _atom_site_occupancy
  V  V0  1  0.25364680  0.38309254  0.12180222  1
  V  V1  1  0.62033435  0.74747145  0.87340692  1
  V  V2  1  0.93196591  -0.05814286  0.33068153  1
  V  V3  1  0.12904925  0.24134638  0.37732997  1
  V  V4  1  0.49763306  0.12461021  0.12954028  1
  V  V5  1  0.00310618  0.62315373  0.62013170  1
  V  V6  1  0.24138704  0.13217669  0.87071550  1
  V  V7  1  0.38476474  0.49191071  0.86651830  1
  V  V8  1  0.75544006  0.12447158  0.37762381  1
  V  V9  1  0.48705755  0.87450211  0.87493507  1
  V  V10  1  0.62161634  0.87416309  0.75023522  1
  V  V11  1  0.74978071  0.50036195  0.25142647  1
  V  V12  1  0.12468196  -0.00128641  0.61940543  1
  V  V13  1  0.89354898  0.76005014  0.63622604  1
  V  V14  1  0.62138647  0.75148681  0.36565338  1
  V  V15  1  0.61817028  0.37699131  0.25409190  1
  V  V16  1  0.87946058  0.87845636  0.49772608  1
  V  V17  1  0.87409999  0.00089497  0.87689148  1
  V  V18  1  0.25482468  0.50729306  0.74901847  1
  V  V19  1  0.74857155  0.87497641  0.62536124  1
  V  V20  1  0.24862962  -0.00255360  0.74636632  1
  V  V21  1  0.75077146  -0.00148547  0.75128104  1
  V  V22  1  0.24102953  0.61904196  0.36927287  1
  V  V23  1  0.49915838  -0.00179327  0.00063992  1
  V  V24  1  0.49069429  0.74361768  0.75034935  1
  V  V25  1  0.62331819  0.62753492  0.50208344  1
  V  V26  1  0.74980043  0.49433161  0.74710033  1
  V  V27  1  0.87561856  0.13420796  0.74309087  1
  V  V28  1  0.37473927  0.12732592  0.75158334  1
  V  V29  1  0.49487423  0.62186445  0.62571387  1
  V  V30  1  0.74402980  0.87181168  0.12517393  1
  V  V31  1  0.12917218  0.38417246  0.25547409  1
  V  V32  1  0.24977992  0.37456386  0.61919528  1
  V  V33  1  0.00699673  0.49584443  0.49445316  1
  V  V34  1  0.62513029  0.12409841  0.00000874  1
  V  V35  1  0.74970777  0.62495079  0.87487696  1
  V  V36  1  0.24833952  0.23750660  0.49519550  1
  V  V37  1  0.24825336  -0.01541208  0.24746941  1
  V  V38  1  0.36174264  0.12677338  0.25303842  1
  V  V39  1  0.13147233  -0.00986913  0.12551196  1
  V  V40  1  0.00942712  0.36809627  0.87663935  1
  V  V41  1  0.87588384  0.37615097  0.00008133  1
  V  V42  1  0.75000879  0.25047417  0.00265827  1
  V  V43  1  0.61840226  0.26093402  0.87850451  1
  V  V44  1  0.00298017  0.50199112  0.00315215  1
  V  V45  1  0.62686738  0.12560385  0.50059300  1
  V  V46  1  0.38022202  0.49789067  0.36998954  1
  V  V47  1  0.74915473  0.37536995  0.12840943  1
  V  V48  1  0.38951884  0.75523197  0.13041055  1
  V  V49  1  0.62386694  -0.00250047  0.13185192  1
  V  V50  1  0.36765073  0.00237769  0.37546141  1
  V  V51  1  0.87976387  0.62692774  0.25049738  1
  V  V52  1  0.49712636  0.25031829  0.25748259  1
  V  V53  1  0.74729044  -0.00582540  0.25657544  1
  V  V54  1  0.60901431  0.62324085  0.00513263  1
  V  V55  1  0.37106292  0.87055475  0.49973036  1
  V  V56  1  0.00108406  -0.00693108  -0.00255864  1
  V  V57  1  0.24818088  0.75695122  0.00634223  1
  V  V58  1  0.12098390  0.76920345  0.37083611  1
  V  V59  1  0.87458392  0.37438762  0.51710150  1
  V  V60  1  0.37592153  0.25302843  0.62172743  1
  V  V61  1  0.00040280  0.00564781  0.49716005  1
  V  V62  1  0.12970073  0.62721674  -0.00648191  1
  V  V63  1  0.49926358  -0.00197512  0.49923050  1
  V  V64  1  0.49169048  0.47817258  0.00430059  1
  V  V65  1  0.87699723  0.12502607  0.25469378  1
  V  V66  1  0.00254621  0.13629695  0.62160457  1
  V  V67  1  0.12809295  0.50262899  0.62247507  1
  V  V68  1  0.62772527  0.49290045  0.62439172  1
  V  V69  1  0.88131393  0.62538121  0.75064675  1
  V  V70  1  0.49969419  0.12560301  0.62630800  1
  V  V71  1  0.38615527  0.62520120  0.24443741  1
  V  V72  1  0.87773573  0.49134225  0.37569684  1
  V  V73  1  0.87653386  0.25068513  0.12779402  1
  V  V74  1  0.50198543  0.87111832  0.36377977  1
  V  V75  1  0.00281220  0.12875199  0.12496993  1
  V  V76  1  0.75033028  0.74572293  -0.00070966  1
  V  V77  1  0.62517650  0.25613199  0.37945586  1
  V  V78  1  0.00162705  0.25820772  0.25679222  1
  V  V79  1  0.12329669  0.13225324  -0.00283474  1
  V  V80  1  0.75429202  0.74839596  0.50444839  1
  V  V81  1  0.25649423  0.25298658  -0.00151386  1
  V  V82  1  0.75352250  0.25545002  0.51413216  1
  V  V83  1  0.37011760  0.74642310  0.62655343  1
  V  V84  1  0.62385522  -0.00026805  0.62552366  1
  Zn  Zn85  1  0.49560257  0.25774969  0.75766292  1
  Zn  Zn86  1  0.00493516  0.63454154  0.12523304  1
  Zn  Zn87  1  0.87401818  0.86949051  -0.00620964  1
  Zn  Zn88  1  0.24073952  0.86765399  0.62755671  1
  Zn  Zn89  1  0.87622054  0.49895354  0.87589403  1
  Zn  Zn90  1  0.37623730  0.25421133  0.12382296  1
  Zn  Zn91  1  0.74768738  0.12773905  0.87319949  1
  Zn  Zn92  1  0.61553241  0.50427395  0.13026841  1
  Zn  Zn93  1  0.62421272  0.37540725  0.74967128  1
  Zn  Zn94  1  0.36817898  0.87969165  0.00983343  1
  Zn  Zn95  1  0.75155636  0.62493464  0.37736295  1
  Zn  Zn96  1  0.00495365  0.76469365  0.24971787  1
  Zn  Zn97  1  0.25459338  0.62573168  0.87422510  1
  Zn  Zn98  1  0.00856995  0.24391107  0.75815840  1
  Zn  Zn99  1  0.13031550  0.36962213  0.75191447  1
  Zn  Zn100  1  0.24052184  0.74184441  0.49818414  1
  Zn  Zn101  1  0.87599673  0.74963156  0.12670207  1
  Zn  Zn102  1  0.50282148  0.49165157  0.49405223  1
  Zn  Zn103  1  0.37225003  0.00381432  0.87874523  1
  Zn  Zn104  1  0.38279032  0.37116787  0.48697876  1
  Zn  Zn105  1  0.13041356  0.50746232  0.12825735  1
  Zn  Zn106  1  0.07369879  0.81674356  0.80724680  1
  Zn  Zn107  1  0.18655042  0.19145284  0.18431838  1
  Zn  Zn108  1  0.18193540  0.18731302  0.68505213  1
  Zn  Zn109  1  0.19038615  0.69019722  0.18821418  1
  Zn  Zn110  1  0.18172902  0.68693761  0.68704218  1
  Zn  Zn111  1  0.68704366  0.18586966  0.19069028  1
  Zn  Zn112  1  0.68563315  0.18698017  0.69141574  1
  Zn  Zn113  1  0.68733489  0.68272558  0.18630884  1
  Zn  Zn114  1  0.68827672  0.68523057  0.68849739  1
  Zn  Zn115  1  0.30709809  0.31504824  0.30887905  1
  Zn  Zn116  1  0.31051715  0.31642303  0.81091796  1
  Zn  Zn117  1  0.31097055  0.80518525  0.31273357  1
  Zn  Zn118  1  0.27019473  0.79432044  0.79985751  1
  Zn  Zn119  1  0.81088301  0.31334899  0.31795510  1
  Zn  Zn120  1  0.81172923  0.31292684  0.81718967  1
  Zn  Zn121  1  0.80222658  0.80555158  0.31024686  1
  Zn  Zn122  1  0.91160595  0.81381637  0.81506930  1
  Zn  Zn123  1  0.19376291  0.43818371  0.43471911  1
  Zn  Zn124  1  0.19137320  0.44150196  0.93852421  1
  Zn  Zn125  1  0.18740154  0.93998551  0.43807884  1
  Zn  Zn126  1  0.18885765  0.93489970  0.93509244  1
  Zn  Zn127  1  0.69042893  0.43766594  0.44021473  1
  Zn  Zn128  1  0.68726300  0.44250769  0.94156240  1
  Zn  Zn129  1  0.68761877  0.93471043  0.43758293  1
  Zn  Zn130  1  0.68543668  0.93444024  0.93518227  1
  Zn  Zn131  1  0.31134157  0.06599221  0.06284363  1
  Zn  Zn132  1  0.31236072  0.06325281  0.56166469  1
  Zn  Zn133  1  0.31863384  0.56524405  0.06093296  1
  Zn  Zn134  1  0.31304498  0.56275481  0.55255055  1
  Zn  Zn135  1  0.81179617  0.06301979  0.06545784  1
  Zn  Zn136  1  0.81663407  0.06237130  0.56172865  1
  Zn  Zn137  1  0.81290744  0.56278686  0.06522867  1
  Zn  Zn138  1  0.81569743  0.56348612  0.56472918  1
  Zn  Zn139  1  0.43462906  0.44004181  0.18925879  1
  Zn  Zn140  1  0.44205379  0.43394708  0.68756629  1
  Zn  Zn141  1  0.43552945  0.93655875  0.19009517  1
  Zn  Zn142  1  0.43219442  0.93482547  0.68760363  1
  Zn  Zn143  1  0.94063034  0.43886931  0.18768259  1
  Zn  Zn144  1  0.94132346  0.43911291  0.69177252  1
  Zn  Zn145  1  0.93443756  0.93726788  0.16562347  1
  Zn  Zn146  1  0.94233673  0.94367063  0.68780832  1
  Zn  Zn147  1  0.07096906  0.06803029  0.30672278  1
  Zn  Zn148  1  0.08074125  0.01851234  0.82813951  1
  Zn  Zn149  1  0.06031590  0.56425273  0.31376913  1
  Zn  Zn150  1  0.06500435  0.55898881  0.81276867  1
  Zn  Zn151  1  0.56048362  0.06362715  0.31564362  1
  Zn  Zn152  1  0.56051384  0.06538345  0.81410102  1
  Zn  Zn153  1  0.56131812  0.56821021  0.31350377  1
  Zn  Zn154  1  0.55905244  0.55934204  0.81393969  1
  Zn  Zn155  1  0.43718177  0.18600753  0.43727441  1
  Zn  Zn156  1  0.43619712  0.18704955  0.93881183  1
  Zn  Zn157  1  0.43559875  0.68425526  0.43524145  1
  Zn  Zn158  1  0.42251739  0.68599340  0.93524042  1
  Zn  Zn159  1  0.93990495  0.19428595  0.43884330  1
  Zn  Zn160  1  0.93525723  0.18391018  0.93559246  1
  Zn  Zn161  1  0.94305938  0.68611086  0.43531346  1
  Zn  Zn162  1  0.94363064  0.68659237  0.93560361  1
  Zn  Zn163  1  0.06810530  0.31517253  0.06430070  1
  Zn  Zn164  1  0.06372045  0.31608138  0.55936121  1
  Zn  Zn165  1  0.06252638  0.80840219  0.05893680  1
  Zn  Zn166  1  0.06433535  0.81613998  0.55327352  1
  Zn  Zn167  1  0.56315078  0.31136468  0.07015463  1
  Zn  Zn168  1  0.55902652  0.31567145  0.56357836  1
  Zn  Zn169  1  0.56202619  0.81227874  0.06198198  1
  Zn  Zn170  1  0.55806720  0.81112857  0.55963222  1
  O  O171  1  0.11945870  0.12093317  0.11796665  1
  O  O172  1  0.10926290  0.11807652  0.61976624  1
  O  O173  1  0.12413285  0.62434827  0.11497014  1
  O  O174  1  0.11819647  0.61288978  0.62572762  1
  O  O175  1  0.62004930  0.11952326  0.11787939  1
  O  O176  1  0.61914864  0.11978753  0.62087200  1
  O  O177  1  0.62783652  0.62119090  0.10933089  1
  O  O178  1  0.61525921  0.62146321  0.61949214  1
  O  O179  1  0.36747984  0.39378460  0.36611531  1
  O  O180  1  0.36740181  0.39148492  0.87674789  1
  O  O181  1  0.38169484  0.87922584  0.38047789  1
  O  O182  1  0.38497072  0.87890235  0.87568023  1
  O  O183  1  0.87255485  0.38770951  0.38040036  1
  O  O184  1  0.88207922  0.37708798  0.88573013  1
  O  O185  1  0.86569166  0.87587923  0.38196065  1
  O  O186  1  0.86230876  0.89530272  0.87879729  1
  O  O187  1  0.26045207  -0.00257023  0.36697650  1
  O  O188  1  0.25351791  0.01320454  0.86450338  1
  O  O189  1  0.26078210  0.51144529  0.37362136  1
  O  O190  1  0.25644727  0.49900057  0.86309959  1
  O  O191  1  0.74144771  0.00928226  0.36656307  1
  O  O192  1  0.74957636  0.00486589  0.86644946  1
  O  O193  1  0.75571446  0.50112509  0.36530956  1
  O  O194  1  0.74970719  0.51121274  0.87074651  1
  O  O195  1  0.25075169  0.48640204  0.11736177  1
  O  O196  1  0.24693018  0.49525831  0.62414554  1
  O  O197  1  0.23867879  1.00331092  0.12933958  1
  O  O198  1  0.24127282  1.00240941  0.62709568  1
  O  O199  1  0.74779957  0.49439539  0.13857440  1
  O  O200  1  0.74063476  0.51160958  0.63605675  1
  O  O201  1  0.74272417  0.99502703  0.13357313  1
  O  O202  1  0.74434575  0.99588683  0.63002669  1
  O  O203  1  0.01268622  0.36503009  0.24401214  1
  O  O204  1  -0.00259268  0.37526119  0.76803470  1
  O  O205  1  -0.01791286  0.88553399  0.25825601  1
  O  O206  1  -0.01918880  0.84886333  0.73025102  1
  O  O207  1  0.51104897  0.36811637  0.24757343  1
  O  O208  1  0.51073024  0.36828440  0.74457868  1
  O  O209  1  0.50190830  0.88067271  0.26466659  1
  O  O210  1  0.50152648  0.86530399  0.75516313  1
  O  O211  1  0.49357353  0.13177483  0.24691631  1
  O  O212  1  0.49184005  0.13083278  0.74542118  1
  O  O213  1  0.48607264  0.62851991  0.25115543  1
  O  O214  1  0.50322388  0.63689218  0.74347465  1
  O  O215  1  0.99550317  0.13685612  0.24584864  1
  O  O216  1  0.99051244  0.12596716  0.73430077  1
  O  O217  1  0.98717600  0.62026628  0.24619583  1
  O  O218  1  0.99126741  0.61658368  0.73877264  1
  O  O219  1  0.36126409  0.24440754  0.00363919  1
  O  O220  1  0.36771193  0.24957801  0.50438986  1
  O  O221  1  0.37161358  0.75157265  0.01637146  1
  O  O222  1  0.37749654  0.75676993  0.50910320  1
  O  O223  1  0.86925466  0.25438009  0.00743364  1
  O  O224  1  0.86896568  0.26669289  0.49680500  1
  O  O225  1  0.85889235  0.74649716  0.00020051  1
  O  O226  1  0.87134647  0.75715940  0.50722925  1
  O  O227  1  0.13171348  0.25912532  0.48432747  1
  O  O228  1  0.13323314  0.23774484  1.00405557  1
  O  O229  1  0.12496655  0.75351223  0.48044447  1
  O  O230  1  0.13921274  0.74473153  1.00163089  1
  O  O231  1  0.63186720  0.24592610  0.49492151  1
  O  O232  1  0.62757422  0.24365697  0.99610222  1
  O  O233  1  0.63303714  0.74061849  0.50169160  1
  O  O234  1  0.62934236  0.73860668  0.99570939  1
  O  O235  1  0.49882873  0.24449833  0.13970108  1
  O  O236  1  0.49138168  0.24099937  0.62414404  1
  O  O237  1  0.48913617  0.74981213  0.12370797  1
  O  O238  1  0.49363366  0.74311814  0.63209803  1
  O  O239  1  0.99634703  0.24693350  0.13250341  1
  O  O240  1  1.00183172  0.23831181  0.61994496  1
  O  O241  1  0.99423654  0.75391061  0.13199382  1
  O  O242  1  0.99559862  0.73892480  0.61159180  1
  O  O243  1  0.01271682  0.25071719  0.36769294  1
  O  O244  1  -0.00340882  0.26420732  0.87906187  1
  O  O245  1  0.01439318  0.74662522  0.36952522  1
  O  O246  1  -0.00681246  0.76226565  0.87355315  1
  O  O247  1  0.50981494  0.24361312  0.36533141  1
  O  O248  1  0.51474982  0.24476900  0.87817442  1
  O  O249  1  0.50964942  0.75839595  0.38280812  1
  O  O250  1  0.49709672  0.75442356  0.86753426  1
  O  O251  1  0.25081672  0.13797436  0.50103046  1
  O  O252  1  0.24312122  0.13131515  0.99125221  1
  O  O253  1  0.25967778  0.62871940  0.47676146  1
  O  O254  1  0.24374960  0.63072349  1.00143471  1
  O  O255  1  0.74726515  0.13009441  0.49370207  1
  O  O256  1  0.73991813  0.13137606  1.00372253  1
  O  O257  1  0.74568910  0.63380013  0.50194453  1
  O  O258  1  0.74133688  0.62651642  0.99403730  1
  O  O259  1  0.24109896  0.36610471  0.01217216  1
  O  O260  1  0.25741741  0.36973648  0.50853753  1
  O  O261  1  0.25129742  0.86365956  -0.00246902  1
  O  O262  1  0.26318514  0.87474105  0.50004630  1
  O  O263  1  0.75499750  0.37216493  0.00818999  1
  O  O264  1  0.76299792  0.36896535  0.49905827  1
  O  O265  1  0.74396329  0.86218813  0.00497026  1
  O  O266  1  0.75822157  0.86986477  0.50605637  1
  O  O267  1  0.11807700  0.48688086  0.24768346  1
  O  O268  1  0.13418928  0.49327028  0.74012137  1
  O  O269  1  0.13381399  1.00545361  0.23546449  1
  O  O270  1  0.13846031  1.01202304  0.73148771  1
  O  O271  1  0.62997863  0.49423993  0.25283126  1
  O  O272  1  0.63213275  0.50291488  0.74201218  1
  O  O273  1  0.63222187  1.00825238  0.23957192  1
  O  O274  1  0.62977806  0.99786617  0.74503783  1
  O  O275  1  0.36744294  0.00699256  0.25533367  1
  O  O276  1  0.37094300  0.01598183  0.74618390  1
  O  O277  1  0.37685240  0.51395456  0.25607528  1
  O  O278  1  0.37201581  0.49627613  0.75779180  1
  O  O279  1  0.87076174  0.00203437  0.25670708  1
  O  O280  1  0.86744605  0.00758020  0.75625029  1
  O  O281  1  0.86905394  0.50187379  0.25694103  1
  O  O282  1  0.86773809  0.51012308  0.75054927  1
  O  O283  1  0.13268425  0.36957035  0.35929867  1
  O  O284  1  0.11174360  0.37903184  0.87711285  1
  O  O285  1  0.12602194  0.86892882  0.37073045  1
  O  O286  1  0.10776115  0.91149807  0.86492868  1
  O  O287  1  0.63143303  0.36340207  0.37019352  1
  O  O288  1  0.62864585  0.36233783  0.88080342  1
  O  O289  1  0.61458730  0.86394816  0.38488885  1
  O  O290  1  0.61445269  0.86677042  0.86851536  1
  O  O291  1  0.38152077  0.12741964  0.13553446  1
  O  O292  1  0.37793039  0.13528627  0.62982353  1
  O  O293  1  0.37210207  0.63311255  0.13804911  1
  O  O294  1  0.38726843  0.63029014  0.61747087  1
  O  O295  1  0.88075395  0.13084783  0.13447699  1
  O  O296  1  0.88568503  0.11984936  0.63291226  1
  O  O297  1  0.87602975  0.62697634  0.13593315  1
  O  O298  1  0.88432567  0.63307101  0.63200057  1
  O  O299  1  0.25148091  0.25815489  0.11600186  1
  O  O300  1  0.25521906  0.25584190  0.61599139  1
  O  O301  1  0.26001543  0.74793771  0.11137667  1
  O  O302  1  0.25655248  0.74838339  0.61653750  1
  O  O303  1  0.75473018  0.25462455  0.12320929  1
  O  O304  1  0.74549798  0.24532719  0.61295198  1
  O  O305  1  0.74670425  0.75677783  0.11829162  1
  O  O306  1  0.75751245  0.75483416  0.61791969  1
  O  O307  1  0.23973351  0.25400835  0.38081986  1
  O  O308  1  0.25208379  0.24051134  0.88055357  1
  O  O309  1  0.23782861  0.74346488  0.37540944  1
  O  O310  1  0.27333276  0.74089207  0.89987416  1
  O  O311  1  0.74232327  0.24266842  0.38230575  1
  O  O312  1  0.73977487  0.24781337  0.88616257  1
  O  O313  1  0.74197179  0.74933369  0.39141414  1
  O  O314  1  0.73968644  0.73511693  0.88296702  1
  O  O315  1  0.00652115  0.12212392  0.00581569  1
  O  O316  1  -0.01166512  0.11912228  0.51113102  1
  O  O317  1  0.00705844  0.61736223  0.00232637  1
  O  O318  1  -0.00899671  0.61010233  0.51259166  1
  O  O319  1  0.50632104  0.11915749  0.00796750  1
  O  O320  1  0.50703386  0.11835446  0.50488405  1
  O  O321  1  0.50938380  0.62600312  -0.00485917  1
  O  O322  1  0.50901834  0.62317210  0.50778770  1
  O  O323  1  0.49609185  0.37770336  0.49748152  1
  O  O324  1  0.50124033  0.37968169  1.00154114  1
  O  O325  1  0.48873124  0.88138801  0.49588817  1
  O  O326  1  0.50043286  0.88162211  0.99100990  1
  O  O327  1  0.98583001  0.38331553  0.50353086  1
  O  O328  1  0.99711883  0.37901740  0.99373790  1
  O  O329  1  0.98643076  0.88488865  0.49802707  1
  O  O330  1  0.99407398  0.89023796  1.00790015  1
  O  O331  1  0.48540044  0.50634475  0.37392772  1
  O  O332  1  0.49216890  0.49702645  0.88446397  1
  O  O333  1  0.49277668  0.99313698  0.38122879  1
  O  O334  1  0.49927444  0.99219512  0.88053443  1
  O  O335  1  0.99275945  0.50291897  0.38578406  1
  O  O336  1  0.99831766  0.49081734  0.88663153  1
  O  O337  1  0.99904457  1.00967796  0.37809384  1
  O  O338  1  0.98430150  1.01514139  0.88797759  1
  O  O339  1  0.00888537  0.01051005  0.11822312  1
  O  O340  1  0.00554079  0.00899144  0.61551157  1
  O  O341  1  0.00252643  0.49819232  0.11142514  1
  O  O342  1  0.00949129  0.50298848  0.61913057  1
  O  O343  1  0.50786828  0.00287942  0.12312522  1
  O  O344  1  0.50292838  0.00495830  0.62011648  1
  O  O345  1  0.49922505  0.49460766  0.10980889  1
  O  O346  1  0.50830278  0.50883095  0.62303537  1
  O  O347  1  0.23623871  0.37086481  0.23690909  1
  O  O348  1  0.25215984  0.38324287  0.73329564  1
  O  O349  1  0.25674724  0.88594512  0.24985503  1
  O  O350  1  0.26718001  0.89575769  0.74375342  1
  O  O351  1  0.73994554  0.37998711  0.24924687  1
  O  O352  1  0.74743129  0.39031945  0.75827534  1
  O  O353  1  0.75117964  0.88598427  0.24269283  1
  O  O354  1  0.74110691  0.88914798  0.74227901  1
  O  O355  1  0.25989155  0.12172660  0.24524465  1
  O  O356  1  0.25596138  0.12205221  0.75370942  1
  O  O357  1  0.26170654  0.63078535  0.26292428  1
  O  O358  1  0.24982890  0.60967341  0.74657479  1
  O  O359  1  0.75655620  0.11606652  0.25627084  1
  O  O360  1  0.75626813  0.11384932  0.74732022  1
  O  O361  1  0.75814873  0.61526678  0.25240314  1
  O  O362  1  0.75550393  0.61790410  0.75821738  1
  O  O363  1  0.38171072  0.11261422  0.36615738  1
  O  O364  1  0.36801945  0.12578222  0.86560375  1
  O  O365  1  0.37094524  0.62065420  0.36309953  1
  O  O366  1  0.37155952  0.60101065  0.87983257  1
  O  O367  1  0.86265166  0.13316192  0.37129271  1
  O  O368  1  0.86766886  0.11775270  0.86661918  1
  O  O369  1  0.87282913  0.61373029  0.36960167  1
  O  O370  1  0.86714132  0.62275766  0.86712416  1
  O  O371  1  0.13504901  0.37686222  0.13550854  1
  O  O372  1  0.13376870  0.38569441  0.62214086  1
  O  O373  1  0.12015398  0.89237791  0.12057880  1
  O  O374  1  0.12508945  0.89157814  0.61655463  1
  O  O375  1  0.63206750  0.37765434  0.13699164  1
  O  O376  1  0.62915371  0.39007451  0.62194077  1
  O  O377  1  0.63346529  0.88434057  0.12134192  1
  O  O378  1  0.62680691  0.87938675  0.62954604  1
  O  O379  1  0.12018059  0.25691689  0.25846785  1
  O  O380  1  0.12081893  0.25711375  0.74526243  1
  O  O381  1  0.12320009  0.74788243  0.26346704  1
  O  O382  1  0.16412058  0.76513627  0.76264546  1
  O  O383  1  0.61992281  0.25589162  0.25879543  1
  O  O384  1  0.62881556  0.24874321  0.76932177  1
  O  O385  1  0.63519246  0.74496490  0.26673488  1
  O  O386  1  0.61552636  0.75380850  0.75440741  1
  O  O387  1  0.38194694  0.24324836  0.25456911  1
  O  O388  1  0.37268097  0.24196699  0.74142094  1
  O  O389  1  0.37346734  0.74205387  0.23854127  1
  O  O390  1  0.37698592  0.75393886  0.73528983  1
  O  O391  1  0.88337204  0.24911942  0.24899135  1
  O  O392  1  0.87514259  0.23673625  0.75643769  1
  O  O393  1  0.87386092  0.73869893  0.25174688  1
  O  O394  1  0.86216334  0.73595624  0.73894081  1
  O  O395  1  0.37872970  0.49919475  0.48208072  1
  O  O396  1  0.38882105  0.49754623  0.99458257  1
  O  O397  1  0.37799180  0.99475996  0.49216336  1
  O  O398  1  0.38269663  0.99895315  1.00051303  1
  O  O399  1  0.87856011  0.49077696  0.49548785  1
  O  O400  1  0.88176214  0.49293327  1.00055983  1
  O  O401  1  0.88419862  0.99178751  0.49764709  1
  O  O402  1  0.88170354  1.00428787  0.99480164  1
  O  O403  1  0.12003336  0.01064423  0.01002168  1
  O  O404  1  0.10960007  0.00025974  0.50040165  1
  O  O405  1  0.11907107  0.50729156  0.00336500  1
  O  O406  1  0.11560573  0.49179032  0.50503083  1
  O  O407  1  0.62173153  0.00704327  0.00948560  1
  O  O408  1  0.62132771  0.00550991  0.50632019  1
  O  O409  1  0.60974339  0.50836117  -0.00094084  1
  O  O410  1  0.62842132  0.51233105  0.50556992  1
  O  O411  1  0.35779948  0.37131311  0.13544782  1
  O  O412  1  0.37009657  0.36229658  0.62341067  1
  O  O413  1  0.37889240  0.86122717  0.12698051  1
  O  O414  1  0.37397351  0.86546657  0.61539423  1
  O  O415  1  0.87008726  0.36902774  0.12124661  1
  O  O416  1  0.87431746  0.38132609  0.61584341  1
  O  O417  1  0.85628003  0.87344856  0.11483265  1
  O  O418  1  0.86853575  0.87123890  0.61609896  1
  O  O419  1  0.12770625  0.14220787  0.37215484  1
  O  O420  1  0.13244058  0.11623034  0.88349867  1
  O  O421  1  0.13894327  0.62218320  0.37111166  1
  O  O422  1  0.12960838  0.61837319  0.88840488  1
  O  O423  1  0.63401632  0.13456926  0.37957194  1
  O  O424  1  0.62558091  0.13001723  0.88896764  1
  O  O425  1  0.62744235  0.63225327  0.38577527  1
  O  O426  1  0.62858857  0.62785643  0.88392286  1
