# generated using pymatgen
data_V85Zn86O256
_symmetry_space_group_name_H-M   'P 1'
_cell_length_a   16.99124611
_cell_length_b   16.98872544
_cell_length_c   16.97280405
_cell_angle_alpha   89.93893461
_cell_angle_beta   90.08077083
_cell_angle_gamma   89.95896263
_symmetry_Int_Tables_number   1
_chemical_formula_structural   V85Zn86O256
_chemical_formula_sum   'V85 Zn86 O256'
_cell_volume   4899.35416947
_cell_formula_units_Z   1
loop_
 _symmetry_equiv_pos_site_id
 _symmetry_equiv_pos_as_xyz
  1  'x, y, z'
loop_
 _atom_site_type_symbol
 _atom_site_label
 _atom_site_symmetry_multiplicity
 _atom_site_fract_x
 _atom_site_fract_y
 _atom_site_fract_z
 _atom_site_occupancy
  V  V0  1  0.50480743  0.62284125  0.62027255  1
  V  V1  1  0.11707603  0.62412733  0.51420635  1
  V  V2  1  0.88875891  0.62421712  0.74720933  1
  V  V3  1  0.62804917  -0.00017879  0.62369104  1
  V  V4  1  0.87878988  0.12349659  0.75627154  1
  V  V5  1  0.48376095  0.38603663  0.87233346  1
  V  V6  1  0.24214995  0.37438061  0.12730327  1
  V  V7  1  0.24064640  0.37500292  0.63455216  1
  V  V8  1  0.37109474  0.50385521  0.37489958  1
  V  V9  1  0.00054619  0.12411517  0.62673216  1
  V  V10  1  0.88796583  0.50015131  0.87708135  1
  V  V11  1  0.62659355  0.87229961  0.74792442  1
  V  V12  1  0.50356141  0.74768548  0.74433117  1
  V  V13  1  0.37504782  0.24912319  0.62828988  1
  V  V14  1  0.49946327  0.49922708  0.49897810  1
  V  V15  1  0.49844075  0.12343989  0.12211057  1
  V  V16  1  0.37627294  0.87349591  0.49654343  1
  V  V17  1  0.12349944  0.25913014  0.86946418  1
  V  V18  1  0.11291181  0.00237460  0.12685226  1
  V  V19  1  0.37502350  0.00196220  0.37470555  1
  V  V20  1  0.11692616  0.49870781  0.63745480  1
  V  V21  1  0.50286575  -0.00116782  0.49854184  1
  V  V22  1  0.62705675  0.62269479  0.49739483  1
  V  V23  1  0.87628376  0.49260987  0.37382909  1
  V  V24  1  0.88334154  0.74554583  0.62248496  1
  V  V25  1  0.63403728  0.12553882  0.49564869  1
  V  V26  1  0.14742973  0.86308680  0.24700269  1
  V  V27  1  0.75305340  0.62387867  0.87282552  1
  V  V28  1  0.24738927  0.25190529  0.50260980  1
  V  V29  1  0.75225508  0.75305351  -0.00236075  1
  V  V30  1  0.61549004  0.61441325  0.01107904  1
  V  V31  1  0.74971213  0.62073103  0.37170094  1
  V  V32  1  0.75005327  0.75034313  0.49832222  1
  V  V33  1  0.88096381  0.62218210  0.24364552  1
  V  V34  1  0.01488883  0.50154757  0.02578585  1
  V  V35  1  0.49855999  0.24988563  0.25225593  1
  V  V36  1  0.62411458  0.38000480  0.24281529  1
  V  V37  1  0.37688969  0.74866575  0.62253109  1
  V  V38  1  0.37198623  0.12810350  0.25108249  1
  V  V39  1  0.81683707  0.06026803  0.30723481  1
  V  V40  1  0.49158990  0.74466124  0.24010413  1
  V  V41  1  0.14372392  0.68186865  0.00452330  1
  V  V42  1  0.75143759  -0.00238924  0.75707242  1
  V  V43  1  0.87447431  0.87705317  0.49536203  1
  V  V44  1  0.11392392  0.37785320  0.25464068  1
  V  V45  1  0.11661266  0.74729189  0.38006132  1
  V  V46  1  0.74572517  0.87601736  0.13339177  1
  V  V47  1  0.87714841  0.37162652  0.49857174  1
  V  V48  1  0.24956704  0.25295494  -0.00217812  1
  V  V49  1  0.75229693  0.49077313  0.75051304  1
  V  V50  1  0.11860608  0.11867977  0.00050556  1
  V  V51  1  0.74738348  0.38155526  0.12114613  1
  V  V52  1  0.74888846  0.24887180  0.00509913  1
  V  V53  1  0.50079254  0.12552696  0.62537072  1
  V  V54  1  0.24256984  0.50074326  0.24723307  1
  V  V55  1  0.24877606  0.74879209  0.50162182  1
  V  V56  1  0.75188761  0.87373515  0.62288125  1
  V  V57  1  -0.00275755  0.50056575  0.50265181  1
  V  V58  1  0.24645047  0.62366937  0.37589479  1
  V  V59  1  0.62214350  0.12281609  -0.00472678  1
  V  V60  1  0.87773863  0.37210011  0.00178278  1
  V  V61  1  0.87393419  0.24974290  0.62863138  1
  V  V62  1  -0.00064250  0.75760802  0.76164952  1
  V  V63  1  0.24920957  0.12953570  0.37711376  1
  V  V64  1  0.62692067  0.26414618  0.86863662  1
  V  V65  1  0.37584932  0.85121121  -0.00286661  1
  V  V66  1  0.62374618  0.74750552  0.87388942  1
  V  V67  1  -0.00373661  0.87586504  0.36706210  1
  V  V68  1  0.88708785  0.87331756  -0.00623945  1
  V  V69  1  0.62644822  0.75425368  0.36483329  1
  V  V70  1  0.63282459  0.24898198  0.37242168  1
  V  V71  1  0.10994720  0.25272689  0.37738043  1
  V  V72  1  0.48614073  0.00083682  -0.00975676  1
  V  V73  1  0.12283798  0.87585339  0.76222877  1
  V  V74  1  0.37255326  0.37643670  0.50172556  1
  V  V75  1  0.62775423  0.49051432  0.62784830  1
  V  V76  1  0.25675540  0.11539917  0.87629074  1
  V  V77  1  0.89435042  -0.00482907  0.87620420  1
  V  V78  1  0.37220791  0.25255329  0.11975277  1
  V  V79  1  -0.00396685  -0.00040753  0.49308235  1
  V  V80  1  0.12798116  -0.00423135  0.62406899  1
  V  V81  1  0.50260073  0.87518848  0.36270512  1
  V  V82  1  -0.00175146  0.24036503  0.23222035  1
  V  V83  1  0.12409115  0.12368568  0.50062680  1
  V  V84  1  0.37662036  0.60994355  0.74801992  1
  Zn  Zn85  1  0.87806217  0.74256191  0.11670395  1
  Zn  Zn86  1  0.42969098  0.46706880  0.01891766  1
  Zn  Zn87  1  0.00321100  0.73985799  0.24333818  1
  Zn  Zn88  1  0.49329830  0.88032230  0.86649804  1
  Zn  Zn89  1  0.24914610  0.00558937  0.24526837  1
  Zn  Zn90  1  0.00957848  0.37889576  0.87335265  1
  Zn  Zn91  1  0.25898833  0.87653885  0.11307182  1
  Zn  Zn92  1  0.25046176  0.87545178  0.62516292  1
  Zn  Zn93  1  0.61946598  -0.01401781  0.12899162  1
  Zn  Zn94  1  0.24651787  0.49513787  0.75774421  1
  Zn  Zn95  1  0.49983089  0.37540354  0.37641174  1
  Zn  Zn96  1  0.41500894  0.59596634  0.18291900  1
  Zn  Zn97  1  0.74856383  0.37006690  0.62589442  1
  Zn  Zn98  1  0.84348741  0.19423450  0.16448378  1
  Zn  Zn99  1  0.75015303  0.12574743  0.87497290  1
  Zn  Zn100  1  0.26082781  0.63125497  0.87811097  1
  Zn  Zn101  1  0.38097415  0.11638765  0.75664851  1
  Zn  Zn102  1  0.75403677  0.24727647  0.49556145  1
  Zn  Zn103  1  0.25855718  -0.00662533  0.75565109  1
  Zn  Zn104  1  0.50742438  0.25368401  0.74865862  1
  Zn  Zn105  1  0.74448494  0.50102426  0.24386497  1
  Zn  Zn106  1  0.00616609  0.25463770  0.75111436  1
  Zn  Zn107  1  0.18117821  0.18678814  0.18767014  1
  Zn  Zn108  1  0.18966981  0.18288137  0.69181482  1
  Zn  Zn109  1  0.22241849  0.68902494  0.17465497  1
  Zn  Zn110  1  0.20430632  0.70480435  0.71699062  1
  Zn  Zn111  1  0.66825203  0.14792975  0.20514368  1
  Zn  Zn112  1  0.69124379  0.18475005  0.68874303  1
  Zn  Zn113  1  0.68967298  0.69049906  0.18484840  1
  Zn  Zn114  1  0.69336738  0.68237415  0.68649052  1
  Zn  Zn115  1  0.30864647  0.31488849  0.31425808  1
  Zn  Zn116  1  0.31257287  0.30603986  0.81130388  1
  Zn  Zn117  1  0.30606831  0.81140491  0.30399244  1
  Zn  Zn118  1  0.30938936  0.81098057  0.81902001  1
  Zn  Zn119  1  0.81241419  0.31123533  0.30867607  1
  Zn  Zn120  1  0.81940186  0.31163194  0.81740931  1
  Zn  Zn121  1  0.81564368  0.81031867  0.31163642  1
  Zn  Zn122  1  0.81612485  0.81123205  0.81336772  1
  Zn  Zn123  1  0.18286037  0.43626778  0.44155038  1
  Zn  Zn124  1  0.22179507  0.46029563  0.95500911  1
  Zn  Zn125  1  0.18938917  0.93509633  0.42918200  1
  Zn  Zn126  1  0.18905082  0.93167897  0.94553810  1
  Zn  Zn127  1  0.68966991  0.43267024  0.43631041  1
  Zn  Zn128  1  0.69002412  0.43890017  0.93543301  1
  Zn  Zn129  1  0.69111009  0.94057973  0.42834135  1
  Zn  Zn130  1  0.68204719  0.93569103  0.93964286  1
  Zn  Zn131  1  0.30592053  0.06149616  0.06412125  1
  Zn  Zn132  1  0.31379297  0.06157462  0.56363991  1
  Zn  Zn133  1  0.30331995  0.58040883  0.05817493  1
  Zn  Zn134  1  0.30650916  0.56176383  0.56762652  1
  Zn  Zn135  1  0.80870408  0.05150983  0.06022690  1
  Zn  Zn136  1  0.81453995  0.06195680  0.56381618  1
  Zn  Zn137  1  0.81101041  0.55985770  0.05770591  1
  Zn  Zn138  1  0.81315617  0.56182224  0.56324001  1
  Zn  Zn139  1  0.43068202  0.42875332  0.19288619  1
  Zn  Zn140  1  0.44400669  0.42977747  0.68801293  1
  Zn  Zn141  1  0.43474543  0.93782228  0.18101896  1
  Zn  Zn142  1  0.43737193  0.93665838  0.68675386  1
  Zn  Zn143  1  0.93246659  0.42921346  0.18954324  1
  Zn  Zn144  1  0.94124940  0.43322024  0.69030521  1
  Zn  Zn145  1  0.93416314  0.93067399  0.18270784  1
  Zn  Zn146  1  0.93944773  0.93718373  0.68509297  1
  Zn  Zn147  1  0.05916309  0.06142360  0.30831427  1
  Zn  Zn148  1  0.07013116  0.06685573  0.81291294  1
  Zn  Zn149  1  0.06022365  0.55961782  0.31920283  1
  Zn  Zn150  1  0.09434765  0.55534177  0.85129439  1
  Zn  Zn151  1  0.56248603  0.06144057  0.31350163  1
  Zn  Zn152  1  0.56436004  0.06459106  0.81220717  1
  Zn  Zn153  1  0.56066162  0.56260160  0.31104615  1
  Zn  Zn154  1  0.56501860  0.55872946  0.81225788  1
  Zn  Zn155  1  0.44084045  0.18975904  0.43998886  1
  Zn  Zn156  1  0.43829860  0.19478905  0.93578455  1
  Zn  Zn157  1  0.43779785  0.68692218  0.43147018  1
  Zn  Zn158  1  0.44351863  0.67978684  0.92974697  1
  Zn  Zn159  1  0.93302642  0.18283042  0.43519631  1
  Zn  Zn160  1  0.91681151  0.16363504  0.97756765  1
  Zn  Zn161  1  0.93568409  0.68289176  0.43634036  1
  Zn  Zn162  1  0.95917724  0.67695741  0.93801308  1
  Zn  Zn163  1  0.06659218  0.31528760  0.05702210  1
  Zn  Zn164  1  0.05751372  0.31447580  0.56375732  1
  Zn  Zn165  1  0.05835512  0.81668879  0.07402416  1
  Zn  Zn166  1  0.06035776  0.81486897  0.56449578  1
  Zn  Zn167  1  0.55966996  0.31613211  0.05577088  1
  Zn  Zn168  1  0.56225799  0.31169353  0.55920978  1
  Zn  Zn169  1  0.56163263  0.81092694  0.05752047  1
  Zn  Zn170  1  0.56445347  0.81269808  0.55543946  1
  O  O171  1  0.12985431  0.11170894  0.11718506  1
  O  O172  1  0.11979136  0.11893535  0.62024043  1
  O  O173  1  0.13350847  0.65985139  0.10425616  1
  O  O174  1  0.12891381  0.61668217  0.61497554  1
  O  O175  1  0.61013049  0.14321502  0.10241990  1
  O  O176  1  0.61965740  0.12053604  0.61840738  1
  O  O177  1  0.63163593  0.62794226  0.10960442  1
  O  O178  1  0.62321515  0.61647237  0.61649065  1
  O  O179  1  0.37252865  0.38407317  0.38443364  1
  O  O180  1  0.38430621  0.37190844  0.87107791  1
  O  O181  1  0.38390733  0.88011487  0.37937961  1
  O  O182  1  0.37980617  0.86657874  0.88648178  1
  O  O183  1  0.86716602  0.38568204  0.38086143  1
  O  O184  1  0.87589939  0.38729634  0.88245118  1
  O  O185  1  0.88304392  0.86840952  0.38406242  1
  O  O186  1  0.87103294  0.88165082  0.88389270  1
  O  O187  1  0.25876088  0.02205723  0.38912547  1
  O  O188  1  0.24801007  0.01345278  0.87947802  1
  O  O189  1  0.25343821  0.50470897  0.37581905  1
  O  O190  1  0.20848923  0.52757298  0.86189997  1
  O  O191  1  0.74645029  0.00680832  0.35777178  1
  O  O192  1  0.74761811  -0.00314114  0.86238162  1
  O  O193  1  0.75502489  0.50691828  0.37268685  1
  O  O194  1  0.76006465  0.50721147  0.86742525  1
  O  O195  1  0.24703408  0.48861690  0.14384422  1
  O  O196  1  0.23531602  0.48874745  0.62423527  1
  O  O197  1  0.24427827  0.99324229  0.13029673  1
  O  O198  1  0.23664235  0.99947352  0.62036496  1
  O  O199  1  0.74987763  0.48577873  0.12439925  1
  O  O200  1  0.74432596  0.49928948  0.63255592  1
  O  O201  1  0.74293525  0.97949713  0.11643506  1
  O  O202  1  0.74673913  0.99386688  0.63474611  1
  O  O203  1  0.01061442  0.36512875  0.24991551  1
  O  O204  1  -0.00797433  0.36643375  0.76114048  1
  O  O205  1  0.00745732  0.87664910  0.26248838  1
  O  O206  1  0.01126904  0.87178154  0.74499549  1
  O  O207  1  0.50489158  0.36285987  0.25106536  1
  O  O208  1  0.50131402  0.36896253  0.76383424  1
  O  O209  1  0.49945658  0.87316575  0.25931113  1
  O  O210  1  0.51004061  0.86694095  0.74651211  1
  O  O211  1  0.48949241  0.13802234  0.24605045  1
  O  O212  1  0.50221708  0.12727713  0.73578181  1
  O  O213  1  0.49725523  0.63763693  0.25269915  1
  O  O214  1  0.49483899  0.62650524  0.73900931  1
  O  O215  1  1.00285997  0.14159231  0.25040328  1
  O  O216  1  0.99580238  0.12778941  0.74351764  1
  O  O217  1  0.98423931  0.61952016  0.25614453  1
  O  O218  1  0.98884489  0.63688767  0.75222536  1
  O  O219  1  0.36548944  0.24617348  0.01115255  1
  O  O220  1  0.36977986  0.25562320  0.50935936  1
  O  O221  1  0.38819981  0.75317644  -0.00099288  1
  O  O222  1  0.37314671  0.75147540  0.50675950  1
  O  O223  1  0.86249431  0.26595194  -0.01755953  1
  O  O224  1  0.87485847  0.25478032  0.50627840  1
  O  O225  1  0.86889459  0.75789937  -0.00637734  1
  O  O226  1  0.86882805  0.75308197  0.50525325  1
  O  O227  1  0.12637429  0.24512942  0.49507875  1
  O  O228  1  0.13383675  0.23982238  0.99487639  1
  O  O229  1  0.12536080  0.74235546  0.49769109  1
  O  O230  1  0.13589052  0.78190032  0.99904940  1
  O  O231  1  0.62711913  0.24335263  0.49176832  1
  O  O232  1  0.63109705  0.24784079  0.98659397  1
  O  O233  1  0.63195909  0.74208086  0.48970951  1
  O  O234  1  0.63126253  0.74137616  0.98859941  1
  O  O235  1  0.48845711  0.24821897  0.12994885  1
  O  O236  1  0.49386966  0.24317221  0.62447491  1
  O  O237  1  0.50532858  0.75685224  0.14222544  1
  O  O238  1  0.49779948  0.74295272  0.62357992  1
  O  O239  1  1.00714812  0.24951493  0.13332824  1
  O  O240  1  0.98908461  0.24259396  0.62573023  1
  O  O241  1  0.98647353  0.76106167  0.13495001  1
  O  O242  1  0.98557632  0.75423518  0.62883239  1
  O  O243  1  0.00874782  0.24633885  0.37534012  1
  O  O244  1  0.02085503  0.24908955  0.87848085  1
  O  O245  1  0.00306083  0.75553618  0.37646949  1
  O  O246  1  -0.01527712  0.75726375  0.85969943  1
  O  O247  1  0.50539961  0.25355515  0.36674655  1
  O  O248  1  0.51280486  0.25843865  0.87407321  1
  O  O249  1  0.50887225  0.75788906  0.37065699  1
  O  O250  1  0.51082357  0.74792199  0.86138265  1
  O  O251  1  0.24356694  0.13469206  0.49826568  1
  O  O252  1  0.24572122  0.13338848  0.99204895  1
  O  O253  1  0.23938731  0.62875406  0.49464945  1
  O  O254  1  0.24252112  0.65625534  0.98771891  1
  O  O255  1  0.73755233  0.12510441  0.50603070  1
  O  O256  1  0.73766048  0.13201491  0.99560868  1
  O  O257  1  0.74803722  0.62867293  0.48833896  1
  O  O258  1  0.75071470  0.63459677  0.98674084  1
  O  O259  1  0.23955837  0.36060717  0.01336973  1
  O  O260  1  0.25334378  0.36899397  0.51077443  1
  O  O261  1  0.27101095  0.87059936  -0.00315542  1
  O  O262  1  0.25879030  0.86620274  0.49821569  1
  O  O263  1  0.75321648  0.36915283  0.00405875  1
  O  O264  1  0.76273519  0.37171047  0.50360446  1
  O  O265  1  0.75026139  0.86050904  -0.00228367  1
  O  O266  1  0.75586550  0.87194727  0.50123820  1
  O  O267  1  0.12992665  0.48779820  0.26425609  1
  O  O268  1  0.11511345  0.50961909  0.73739933  1
  O  O269  1  0.12712793  0.99645091  0.23996316  1
  O  O270  1  0.12657987  0.99120794  0.74045544  1
  O  O271  1  0.62259698  0.48336521  0.25423905  1
  O  O272  1  0.63936284  0.50829563  0.73865936  1
  O  O273  1  0.62405480  1.04318458  0.22616572  1
  O  O274  1  0.63252830  0.99415953  0.74400093  1
  O  O275  1  0.37370804  0.00815531  0.25765461  1
  O  O276  1  0.37017519  0.00503278  0.73913460  1
  O  O277  1  0.36138056  0.49837761  0.26585943  1
  O  O278  1  0.37816487  0.50828183  0.74082835  1
  O  O279  1  0.87656129  -0.00083493  0.25317192  1
  O  O280  1  0.86901238  0.00155131  0.75606702  1
  O  O281  1  0.87075867  0.50453063  0.25831611  1
  O  O282  1  0.87152448  0.50878850  0.75470379  1
  O  O283  1  0.13063936  0.36182744  0.36912009  1
  O  O284  1  0.13109565  0.35861041  0.88236734  1
  O  O285  1  0.11063911  0.86199411  0.38135626  1
  O  O286  1  0.12692330  0.88391505  0.86015999  1
  O  O287  1  0.62184943  0.36567957  0.36643287  1
  O  O288  1  0.62374305  0.36551917  0.87528752  1
  O  O289  1  0.61581584  0.86527737  0.38031584  1
  O  O290  1  0.62438067  0.86095047  0.86711256  1
  O  O291  1  0.37733580  0.13407020  0.13177340  1
  O  O292  1  0.38565731  0.13353194  0.61899461  1
  O  O293  1  0.32386952  0.64448047  0.14366371  1
  O  O294  1  0.38796319  0.62918418  0.62277726  1
  O  O295  1  0.88064815  0.13111769  0.08242162  1
  O  O296  1  0.88196834  0.12977596  0.63177951  1
  O  O297  1  0.86272293  0.62078341  0.14228758  1
  O  O298  1  0.86679590  0.63484996  0.63445931  1
  O  O299  1  0.25299081  0.25195857  0.11980466  1
  O  O300  1  0.25492125  0.25422672  0.62241472  1
  O  O301  1  0.23814974  0.80231301  0.19978207  1
  O  O302  1  0.26166663  0.75089220  0.61942996  1
  O  O303  1  0.75247340  0.25767533  0.10913384  1
  O  O304  1  0.76276104  0.24830990  0.62348326  1
  O  O305  1  0.75640839  0.75568374  0.11385033  1
  O  O306  1  0.75653736  0.75521800  0.61714067  1
  O  O307  1  0.24358230  0.24249306  0.38247095  1
  O  O308  1  0.24456903  0.24343917  0.88269894  1
  O  O309  1  0.24019851  0.74067195  0.38267975  1
  O  O310  1  0.23794978  0.72822321  0.82516898  1
  O  O311  1  0.73690913  0.25230897  0.37419711  1
  O  O312  1  0.73954275  0.25074511  0.88079574  1
  O  O313  1  0.74368762  0.74300383  0.37841500  1
  O  O314  1  0.74439070  0.74222502  0.87678240  1
  O  O315  1  0.02122018  0.12133765  -0.01239947  1
  O  O316  1  0.00455871  0.11643946  0.50484884  1
  O  O317  1  -0.02323544  0.59623119  0.01682524  1
  O  O318  1  0.00492709  0.61500031  0.50015805  1
  O  O319  1  0.50146373  0.11659243  -0.00135648  1
  O  O320  1  0.50917862  0.12081139  0.50925548  1
  O  O321  1  0.51584984  0.62237817  -0.00506003  1
  O  O322  1  0.50722722  0.61842124  0.50106256  1
  O  O323  1  0.49132996  0.38211232  0.49888689  1
  O  O324  1  0.49631569  0.37880770  0.98378184  1
  O  O325  1  0.49536207  0.88022590  0.48964650  1
  O  O326  1  0.49294438  0.88569404  0.99444167  1
  O  O327  1  0.98472523  0.38108704  0.50131106  1
  O  O328  1  0.99273222  0.38473280  0.99804033  1
  O  O329  1  0.99346741  0.88189491  0.49298320  1
  O  O330  1  0.98446184  0.87402877  0.99951834  1
  O  O331  1  0.48848132  0.49947027  0.38013199  1
  O  O332  1  0.49970043  0.48640087  0.86971579  1
  O  O333  1  0.49584094  0.99355092  0.37860364  1
  O  O334  1  0.50491857  0.99869379  0.88593054  1
  O  O335  1  0.98803342  0.50062060  0.38951937  1
  O  O336  1  0.99391733  0.50127660  0.87886235  1
  O  O337  1  1.00804569  0.99113965  0.38551288  1
  O  O338  1  0.99237082  1.00069553  0.86680439  1
  O  O339  1  0.01434307  -0.00522799  0.12739001  1
  O  O340  1  0.00991616  0.00469614  0.61654814  1
  O  O341  1  0.00614301  0.48655479  0.12440680  1
  O  O342  1  0.00360183  0.49438028  0.61289839  1
  O  O343  1  0.49998374  0.00747345  0.11101435  1
  O  O344  1  0.50951578  0.00639584  0.61730129  1
  O  O345  1  0.45714795  0.50858314  0.12147841  1
  O  O346  1  0.51000031  0.50258966  0.61901686  1
  O  O347  1  0.23835846  0.38016060  0.24901042  1
  O  O348  1  0.25600842  0.37770385  0.73813722  1
  O  O349  1  0.23048469  0.90183730  0.30471460  1
  O  O350  1  0.23592239  0.87693153  0.74447143  1
  O  O351  1  0.74057426  0.37318195  0.23903403  1
  O  O352  1  0.75878963  0.38823849  0.74856091  1
  O  O353  1  0.75555899  0.86499381  0.23197235  1
  O  O354  1  0.74620445  0.87903653  0.74300004  1
  O  O355  1  0.25346690  0.12748771  0.26159745  1
  O  O356  1  0.25128115  0.12028798  0.76585921  1
  O  O357  1  0.23052749  0.61342529  0.27103720  1
  O  O358  1  0.27427345  0.61106736  0.72362221  1
  O  O359  1  0.77547243  0.13404903  0.24009080  1
  O  O360  1  0.75876843  0.11292930  0.75189748  1
  O  O361  1  0.75399440  0.62198232  0.25999342  1
  O  O362  1  0.76052744  0.62069026  0.76084641  1
  O  O363  1  0.36925719  0.12527337  0.37200139  1
  O  O364  1  0.36069587  0.13456558  0.87428115  1
  O  O365  1  0.36046369  0.61520173  0.38408172  1
  O  O366  1  0.37808764  0.62585767  0.85136939  1
  O  O367  1  0.87142891  0.11132230  0.37571385  1
  O  O368  1  0.87120480  0.11110847  0.87608886  1
  O  O369  1  0.86638334  0.61279059  0.36989939  1
  O  O370  1  0.87159984  0.61744484  0.86872328  1
  O  O371  1  0.13574701  0.36500076  0.13922418  1
  O  O372  1  0.13082928  0.38280392  0.62116704  1
  O  O373  1  0.12773173  0.88636414  0.13891961  1
  O  O374  1  0.12650272  0.88515677  0.62617050  1
  O  O375  1  0.63144753  0.36503103  0.13300659  1
  O  O376  1  0.62819178  0.38653234  0.61945258  1
  O  O377  1  0.63992989  0.86943734  0.11901349  1
  O  O378  1  0.63233805  0.87997646  0.62625141  1
  O  O379  1  0.11474234  0.25455101  0.25882241  1
  O  O380  1  0.12771754  0.24548201  0.76477995  1
  O  O381  1  0.11709941  0.75423943  0.27077258  1
  O  O382  1  0.10966311  0.76818758  0.73807205  1
  O  O383  1  0.61518669  0.24870006  0.25646589  1
  O  O384  1  0.62806852  0.24384322  0.76500087  1
  O  O385  1  0.61840204  0.74425828  0.26195880  1
  O  O386  1  0.62391883  0.75160821  0.75217188  1
  O  O387  1  0.37959080  0.24738661  0.24686950  1
  O  O388  1  0.37697794  0.24236979  0.73590804  1
  O  O389  1  0.39389581  0.75461060  0.25847837  1
  O  O390  1  0.38506624  0.74247453  0.73189562  1
  O  O391  1  0.89336611  0.26002922  0.24591007  1
  O  O392  1  0.87379784  0.23937587  0.74467742  1
  O  O393  1  0.87500550  0.72822654  0.25536099  1
  O  O394  1  0.87831230  0.74612726  0.74011491  1
  O  O395  1  0.37714272  0.49526255  0.49592732  1
  O  O396  1  0.32755380  0.50145762  0.98718964  1
  O  O397  1  0.38378525  0.99527369  0.49482911  1
  O  O398  1  0.38663182  1.00553227  0.99768773  1
  O  O399  1  0.87855104  0.49344708  0.49560795  1
  O  O400  1  0.87303937  0.48699016  0.99122695  1
  O  O401  1  0.88756276  0.99235115  0.50812296  1
  O  O402  1  0.86762272  0.98184707  0.98572438  1
  O  O403  1  0.13247144  0.00445730  0.01547808  1
  O  O404  1  0.11792056  0.00402861  0.50413720  1
  O  O405  1  0.11340031  0.49766923  0.00403018  1
  O  O406  1  0.11363798  0.50522949  0.50551292  1
  O  O407  1  0.61534311  0.00905159  0.00176681  1
  O  O408  1  0.62189859  0.00673670  0.50215257  1
  O  O409  1  0.63492660  0.51713791  -0.00569760  1
  O  O410  1  0.62156396  0.50402727  0.50421094  1
  O  O411  1  0.35648309  0.35975665  0.13478838  1
  O  O412  1  0.36873313  0.36694117  0.61976908  1
  O  O413  1  0.37863392  0.87641726  0.10337132  1
  O  O414  1  0.37758547  0.86442610  0.61357685  1
  O  O415  1  0.86409537  0.37492316  0.11316889  1
  O  O416  1  0.87333530  0.36425622  0.61816278  1
  O  O417  1  0.86217723  0.87514706  0.10755807  1
  O  O418  1  0.86946848  0.86783083  0.61654351  1
  O  O419  1  0.13174884  0.13159730  0.38094441  1
  O  O420  1  0.13968721  0.12997723  0.88214605  1
  O  O421  1  0.12545105  0.63045532  0.38939259  1
  O  O422  1  0.08559411  0.64752757  0.92233265  1
  O  O423  1  0.61509980  0.13617549  0.38680751  1
  O  O424  1  0.62485802  0.13412954  0.88357356  1
  O  O425  1  0.63263476  0.62911914  0.37814368  1
  O  O426  1  0.63501031  0.63348380  0.87365345  1
