# generated using pymatgen
data_V85Zn86O256
_symmetry_space_group_name_H-M   'P 1'
_cell_length_a   16.93670965
_cell_length_b   16.94509271
_cell_length_c   16.93739146
_cell_angle_alpha   89.99798881
_cell_angle_beta   90.00124107
_cell_angle_gamma   90.07018023
_symmetry_Int_Tables_number   1
_chemical_formula_structural   V85Zn86O256
_chemical_formula_sum   'V85 Zn86 O256'
_cell_volume   4860.92802770
_cell_formula_units_Z   1
loop_
 _symmetry_equiv_pos_site_id
 _symmetry_equiv_pos_as_xyz
  1  'x, y, z'
loop_
 _atom_site_type_symbol
 _atom_site_label
 _atom_site_symmetry_multiplicity
 _atom_site_fract_x
 _atom_site_fract_y
 _atom_site_fract_z
 _atom_site_occupancy
  V  V0  1  0.50276222  0.62317581  0.62672329  1
  V  V1  1  0.37083577  0.24950082  0.12358378  1
  V  V2  1  0.50003700  0.49975690  0.49763946  1
  V  V3  1  0.23762143  0.24783463  0.00483175  1
  V  V4  1  0.49755782  0.37836584  0.36954238  1
  V  V5  1  0.01187201  0.62857960  0.62073512  1
  V  V6  1  0.11516414  0.38497904  0.25420673  1
  V  V7  1  0.62499481  0.87453814  0.25222992  1
  V  V8  1  0.49390154  0.12827684  0.62895004  1
  V  V9  1  0.62598963  0.75395001  0.87558756  1
  V  V10  1  0.37510340  0.12310379  0.24953216  1
  V  V11  1  0.87984362  0.49365507  0.37433211  1
  V  V12  1  0.11085238  0.25247532  0.36987756  1
  V  V13  1  0.87762446  0.87219623  0.50296934  1
  V  V14  1  -0.00123448  0.87766225  0.87571273  1
  V  V15  1  0.87541141  0.74947322  0.12682472  1
  V  V16  1  0.86702679  0.00192452  0.86203840  1
  V  V17  1  0.25612541  0.88114241  0.63301295  1
  V  V18  1  0.49782147  0.49881477  -0.00086824  1
  V  V19  1  0.25124379  0.11282344  0.88133820  1
  V  V20  1  0.75138270  0.62666091  0.37497440  1
  V  V21  1  0.75224224  0.49876215  0.24655401  1
  V  V22  1  0.75567661  0.75010157  0.50780488  1
  V  V23  1  0.24861692  0.12682693  0.37625648  1
  V  V24  1  0.00314151  0.37576334  0.86010684  1
  V  V25  1  0.25077208  0.74938260  -0.00109234  1
  V  V26  1  0.00931186  0.49721560  0.00038115  1
  V  V27  1  0.37365590  -0.00115300  0.37366506  1
  V  V28  1  0.12757631  0.00255845  0.63364179  1
  V  V29  1  0.37381906  0.62095029  0.74920729  1
  V  V30  1  0.49696169  0.25243920  0.75158980  1
  V  V31  1  0.00133057  0.23392675  0.74417882  1
  V  V32  1  0.24142445  0.87366049  0.12965217  1
  V  V33  1  0.88737102  0.37271284  0.50316323  1
  V  V34  1  0.37472506  0.37059103  0.50692427  1
  V  V35  1  0.25589622  0.24762493  0.50862815  1
  V  V36  1  0.75124959  0.00265130  0.25078360  1
  V  V37  1  0.36767583  0.11270628  0.75151163  1
  V  V38  1  0.75258755  0.12975073  0.37820255  1
  V  V39  1  0.49978623  0.24874147  0.24765075  1
  V  V40  1  0.49852251  0.88241947  0.87831614  1
  V  V41  1  0.50689005  0.37582388  0.87099761  1
  V  V42  1  0.13528923  0.75054504  0.38739899  1
  V  V43  1  0.87796224  0.62525231  0.24968794  1
  V  V44  1  0.87220660  0.62668846  0.73928507  1
  V  V45  1  0.88041957  0.13375351  0.24992749  1
  V  V46  1  0.00756324  0.13099027  0.12430614  1
  V  V47  1  0.62936402  0.25186737  0.37624866  1
  V  V48  1  0.71020067  0.31092799  0.56037267  1
  V  V49  1  0.36391778  0.61641072  0.25103363  1
  V  V50  1  0.12194459  0.12606033  0.50757155  1
  V  V51  1  0.63495311  0.13113276  0.00234883  1
  V  V52  1  0.50280161  0.00191551  0.49851940  1
  V  V53  1  0.12406229  0.74975523  0.87507235  1
  V  V54  1  0.24783101  0.62129990  0.87047397  1
  V  V55  1  -0.00438992  0.75249588  0.74410445  1
  V  V56  1  0.00020619  0.00210182  0.50558659  1
  V  V57  1  0.00911213  0.50829562  0.49617115  1
  V  V58  1  0.75015539  0.74793840  0.00125001  1
  V  V59  1  0.62495970  0.75014763  0.37679580  1
  V  V60  1  0.12890180  0.25166565  0.87090780  1
  V  V61  1  0.37856743  0.75603788  0.62651603  1
  V  V62  1  0.87051832  0.37110754  -0.00381422  1
  V  V63  1  0.87372054  0.24976250  0.11952276  1
  V  V64  1  0.00111544  0.00811545  -0.00084782  1
  V  V65  1  0.23696498  -0.00461352  0.25314899  1
  V  V66  1  0.74772833  0.87955922  0.63450854  1
  V  V67  1  0.63122088  0.12417191  0.50473790  1
  V  V68  1  0.37659273  0.74862639  0.12682895  1
  V  V69  1  0.00782771  0.62035736  0.12469431  1
  V  V70  1  0.62586669  0.49908130  0.12266244  1
  V  V71  1  0.62745343  0.37473706  0.24743314  1
  V  V72  1  0.50626356  0.75090938  0.75470688  1
  V  V73  1  0.62397113  0.62412788  0.50239118  1
  V  V74  1  0.74953407  0.87624670  0.12599770  1
  V  V75  1  0.35208712  0.49699619  0.37189973  1
  V  V76  1  0.37358290  0.88446208  -0.00054296  1
  V  V77  1  0.74440923  0.48834701  0.74427504  1
  V  V78  1  0.87960192  0.24090260  0.62499003  1
  V  V79  1  0.24011067  0.38678626  0.12935904  1
  V  V80  1  0.01115334  0.76089274  0.24910000  1
  V  V81  1  0.49866102  0.86954719  0.37648610  1
  V  V82  1  0.75140234  0.12908423  0.86083445  1
  V  V83  1  0.36832184  0.49562096  0.87266858  1
  V  V84  1  0.87436410  0.50257556  0.87347824  1
  Zn  Zn85  1  0.12869983  0.61831963  0.00320420  1
  Zn  Zn86  1  0.87303509  0.87831387  -0.00064073  1
  Zn  Zn87  1  0.49832400  0.62236170  0.12609469  1
  Zn  Zn88  1  0.37277056  0.87921958  0.50411634  1
  Zn  Zn89  1  0.12114893  -0.00033395  0.12369829  1
  Zn  Zn90  1  0.24884166  0.38139982  0.63941019  1
  Zn  Zn91  1  0.49793630  0.74514834  0.25199738  1
  Zn  Zn92  1  0.63004711  0.25571145  0.87454334  1
  Zn  Zn93  1  0.62693062  0.48486489  0.62692434  1
  Zn  Zn94  1  0.13404755  0.49935253  0.63985225  1
  Zn  Zn95  1  0.63527859  0.00157231  0.64467619  1
  Zn  Zn96  1  0.74902134  0.36957090  0.11672623  1
  Zn  Zn97  1  0.74903164  0.62680903  0.87179849  1
  Zn  Zn98  1  0.87825903  0.00041100  0.37661714  1
  Zn  Zn99  1  0.50073940  0.12412122  0.12058394  1
  Zn  Zn100  1  0.24413173  0.74082859  0.50735675  1
  Zn  Zn101  1  0.00487063  0.87912125  0.37302569  1
  Zn  Zn102  1  0.62387012  0.62469339  0.00008948  1
  Zn  Zn103  1  0.13043463  0.88064154  0.75339446  1
  Zn  Zn104  1  0.36900683  0.37276593  -0.00006690  1
  Zn  Zn105  1  0.62226561  0.00156408  0.12335608  1
  Zn  Zn106  1  0.49968781  0.00522528  0.00264535  1
  Zn  Zn107  1  0.18509914  0.18759563  0.19271676  1
  Zn  Zn108  1  0.19083025  0.19189468  0.69188683  1
  Zn  Zn109  1  0.18723246  0.68618497  0.19060366  1
  Zn  Zn110  1  0.18881629  0.69092563  0.69047276  1
  Zn  Zn111  1  0.69110468  0.18953612  0.18585695  1
  Zn  Zn112  1  0.68125060  0.18571341  0.69507072  1
  Zn  Zn113  1  0.68534877  0.68566439  0.18779312  1
  Zn  Zn114  1  0.68897816  0.68869094  0.68803795  1
  Zn  Zn115  1  0.30661425  0.31268155  0.31092621  1
  Zn  Zn116  1  0.32058298  0.30318244  0.81486296  1
  Zn  Zn117  1  0.31271414  0.81099805  0.31166785  1
  Zn  Zn118  1  0.31617007  0.81333973  0.81139237  1
  Zn  Zn119  1  0.81633523  0.31284258  0.31284829  1
  Zn  Zn120  1  0.81863415  0.31045619  0.80733310  1
  Zn  Zn121  1  0.81698861  0.81305415  0.31650639  1
  Zn  Zn122  1  0.81497657  0.81237630  0.81335992  1
  Zn  Zn123  1  0.17482530  0.42442813  0.46168652  1
  Zn  Zn124  1  0.18782600  0.43195277  0.80782635  1
  Zn  Zn125  1  0.18583490  0.93005145  0.44392106  1
  Zn  Zn126  1  0.18329102  0.93595160  0.94272551  1
  Zn  Zn127  1  0.68770198  0.44345200  0.43185494  1
  Zn  Zn128  1  0.68937742  0.44029677  0.93437197  1
  Zn  Zn129  1  0.68962014  0.93900323  0.44056815  1
  Zn  Zn130  1  0.68481159  0.93969225  0.93892257  1
  Zn  Zn131  1  0.30786639  0.06360612  0.06518349  1
  Zn  Zn132  1  0.31422066  0.06129732  0.56540457  1
  Zn  Zn133  1  0.31149441  0.56184574  0.05983358  1
  Zn  Zn134  1  0.30172971  0.56153152  0.55943837  1
  Zn  Zn135  1  0.81499870  0.06352440  0.05814005  1
  Zn  Zn136  1  0.81319634  0.05893644  0.56488280  1
  Zn  Zn137  1  0.81626973  0.56175487  0.06109433  1
  Zn  Zn138  1  0.81442847  0.55921807  0.56373306  1
  Zn  Zn139  1  0.43326697  0.43656148  0.18587310  1
  Zn  Zn140  1  0.43686851  0.43829295  0.68729306  1
  Zn  Zn141  1  0.43569486  0.93790413  0.18639833  1
  Zn  Zn142  1  0.46914841  0.95210613  0.70483453  1
  Zn  Zn143  1  0.94135313  0.43461644  0.18562819  1
  Zn  Zn144  1  0.93911059  0.44122489  0.68113609  1
  Zn  Zn145  1  0.93381311  0.94256556  0.18562587  1
  Zn  Zn146  1  0.93749386  0.93669178  0.68365492  1
  Zn  Zn147  1  0.05971319  0.06530449  0.31660177  1
  Zn  Zn148  1  0.06594050  0.06529787  0.81762788  1
  Zn  Zn149  1  0.06597459  0.56743100  0.31627994  1
  Zn  Zn150  1  0.05801827  0.56680443  0.81258218  1
  Zn  Zn151  1  0.56461899  0.06300669  0.31225898  1
  Zn  Zn152  1  0.56618650  0.06379497  0.81547945  1
  Zn  Zn153  1  0.55793011  0.56471849  0.30886136  1
  Zn  Zn154  1  0.56576752  0.56427301  0.81511016  1
  Zn  Zn155  1  0.43874670  0.18794461  0.43529749  1
  Zn  Zn156  1  0.43614674  0.18590181  0.93826973  1
  Zn  Zn157  1  0.40617773  0.67122392  0.45198250  1
  Zn  Zn158  1  0.43665578  0.68658103  0.93981293  1
  Zn  Zn159  1  0.93671747  0.18598083  0.44395860  1
  Zn  Zn160  1  0.93616942  0.18751175  0.93476593  1
  Zn  Zn161  1  0.93944992  0.69006425  0.43382338  1
  Zn  Zn162  1  0.93624544  0.68668748  0.93768233  1
  Zn  Zn163  1  0.05987434  0.31498697  0.06165304  1
  Zn  Zn164  1  0.06692650  0.31375938  0.56626843  1
  Zn  Zn165  1  0.06112356  0.81170080  0.05885269  1
  Zn  Zn166  1  0.06612747  0.81676387  0.56378590  1
  Zn  Zn167  1  0.56096407  0.31084278  0.05759238  1
  Zn  Zn168  1  0.54511829  0.30740159  0.56094341  1
  Zn  Zn169  1  0.56220008  0.81341314  0.06217373  1
  Zn  Zn170  1  0.56422438  0.81350035  0.56422808  1
  O  O171  1  0.11099063  0.12404838  0.13058527  1
  O  O172  1  0.13538173  0.11949165  0.61459329  1
  O  O173  1  0.11249950  0.63006845  0.12262870  1
  O  O174  1  0.11541490  0.62580087  0.62873203  1
  O  O175  1  0.62717525  0.12690295  0.11327918  1
  O  O176  1  0.61738510  0.12097390  0.61912381  1
  O  O177  1  0.62265068  0.61096120  0.12376814  1
  O  O178  1  0.62118116  0.62689852  0.61290647  1
  O  O179  1  0.38259158  0.38073292  0.37205393  1
  O  O180  1  0.38356524  0.38370111  0.87791590  1
  O  O181  1  0.38355114  0.88041441  0.37708023  1
  O  O182  1  0.38304156  0.86449784  0.88977023  1
  O  O183  1  0.87141728  0.38305345  0.38650889  1
  O  O184  1  0.88191100  0.38220277  0.87813876  1
  O  O185  1  0.87753894  0.87978802  0.38802471  1
  O  O186  1  0.88021005  0.88609817  0.87605786  1
  O  O187  1  0.25145425  0.00634776  0.37232042  1
  O  O188  1  0.24203745  0.01408764  0.88108348  1
  O  O189  1  0.25540291  0.48980717  0.38535546  1
  O  O190  1  0.26108611  0.50588917  0.87341939  1
  O  O191  1  0.75044178  0.01252185  0.36855497  1
  O  O192  1  0.76188516  0.00283805  0.87697850  1
  O  O193  1  0.75948964  0.50790372  0.36785729  1
  O  O194  1  0.75801597  0.50465345  0.86482442  1
  O  O195  1  0.25025402  0.48477002  0.12121914  1
  O  O196  1  0.25022559  0.49816377  0.62856694  1
  O  O197  1  0.24575181  0.99293086  0.13469234  1
  O  O198  1  0.24227803  0.99211146  0.62205594  1
  O  O199  1  0.74319688  0.49739981  0.12811676  1
  O  O200  1  0.74798844  0.50132150  0.63892796  1
  O  O201  1  0.75084796  0.99247531  0.13234862  1
  O  O202  1  0.74964002  0.98655215  0.62583500  1
  O  O203  1  0.01542094  0.37203516  0.24628665  1
  O  O204  1  -0.00756373  0.37092017  0.75856221  1
  O  O205  1  -0.00813895  0.86355854  0.24836939  1
  O  O206  1  -0.00004128  0.86869010  0.75967928  1
  O  O207  1  0.50577729  0.37019981  0.25379337  1
  O  O208  1  0.49307360  0.36643261  0.75765848  1
  O  O209  1  0.50593384  0.87392093  0.25971257  1
  O  O210  1  0.48550636  0.85492710  0.76582875  1
  O  O211  1  0.49500869  0.13217417  0.25018163  1
  O  O212  1  0.48994936  0.12813914  0.74425611  1
  O  O213  1  0.48905839  0.62673660  0.24362552  1
  O  O214  1  0.49516743  0.63219584  0.74878610  1
  O  O215  1  0.98905188  0.11728602  0.24093433  1
  O  O216  1  0.99941951  0.13584690  0.75207264  1
  O  O217  1  0.99561370  0.63462573  0.24185622  1
  O  O218  1  0.99248751  0.63393652  0.74175054  1
  O  O219  1  0.36518310  0.25025463  0.00950191  1
  O  O220  1  0.36942840  0.25635501  0.49489290  1
  O  O221  1  0.36796427  0.75291339  0.00949925  1
  O  O222  1  0.39657927  0.76325831  0.52238507  1
  O  O223  1  0.87873638  0.25961521  0.00463004  1
  O  O224  1  0.87858633  0.26450808  0.50472010  1
  O  O225  1  0.86798236  0.75360239  0.00711391  1
  O  O226  1  0.86598884  0.75757350  0.49448423  1
  O  O227  1  0.13257681  0.24191262  0.49030931  1
  O  O228  1  0.13187268  0.25132950  0.99279163  1
  O  O229  1  0.12533801  0.74605022  0.49277898  1
  O  O230  1  0.12977804  0.74744660  0.98843533  1
  O  O231  1  0.63624346  0.24867735  0.50096737  1
  O  O232  1  0.62484407  0.23716866  0.99475178  1
  O  O233  1  0.63098396  0.74246480  0.49454575  1
  O  O234  1  0.63342595  0.74682713  0.99765742  1
  O  O235  1  0.48935082  0.25045689  0.13006145  1
  O  O236  1  0.49764810  0.23586646  0.63238842  1
  O  O237  1  0.48617533  0.74989276  0.12532628  1
  O  O238  1  0.50094892  0.74596944  0.63774930  1
  O  O239  1  0.98871351  0.24176075  0.11997196  1
  O  O240  1  0.99763461  0.25423909  0.63601307  1
  O  O241  1  0.99503037  0.74650183  0.13231023  1
  O  O242  1  1.00528754  0.74698943  0.63681203  1
  O  O243  1  0.01280445  0.24545105  0.37921708  1
  O  O244  1  0.00441532  0.25403879  0.86365139  1
  O  O245  1  0.00309523  0.75390160  0.35991762  1
  O  O246  1  0.00496142  0.75748860  0.87083405  1
  O  O247  1  0.50707731  0.26069578  0.36969117  1
  O  O248  1  0.49887486  0.26078983  0.87148776  1
  O  O249  1  0.50357966  0.76272222  0.37836656  1
  O  O250  1  0.50786840  0.75218385  0.87386456  1
  O  O251  1  0.24611014  0.12858810  0.49313412  1
  O  O252  1  0.25254597  0.13113298  0.98928161  1
  O  O253  1  0.29839807  0.64338100  0.48901506  1
  O  O254  1  0.24927998  0.62966539  0.98821934  1
  O  O255  1  0.73972191  0.11965816  0.49345979  1
  O  O256  1  0.73953107  0.12230692  0.99065576  1
  O  O257  1  0.74430635  0.63055525  0.49748104  1
  O  O258  1  0.75180041  0.63787357  0.99929460  1
  O  O259  1  0.24999949  0.36068480  0.02118516  1
  O  O260  1  0.26610079  0.35866224  0.48476343  1
  O  O261  1  0.25596095  0.86871352  0.00604111  1
  O  O262  1  0.25472353  0.86804768  0.51660775  1
  O  O263  1  0.76559790  0.38095829  -0.00320192  1
  O  O264  1  0.75955199  0.37648801  0.49675004  1
  O  O265  1  0.74909846  0.86572780  0.00954262  1
  O  O266  1  0.75749696  0.86736910  0.50286551  1
  O  O267  1  0.12187357  0.48428445  0.26083092  1
  O  O268  1  0.11409311  0.49395797  0.75250249  1
  O  O269  1  0.13436761  1.00229600  0.25093252  1
  O  O270  1  0.11861767  1.00212580  0.73722655  1
  O  O271  1  0.62970961  0.49464908  0.24221125  1
  O  O272  1  0.63951160  0.50384358  0.74842355  1
  O  O273  1  0.63742199  0.99608399  0.24922050  1
  O  O274  1  0.57735136  0.98540926  0.73829316  1
  O  O275  1  0.36658293  0.00554406  0.25620827  1
  O  O276  1  0.38006922  0.01404355  0.75283993  1
  O  O277  1  0.37347979  0.50703624  0.25501233  1
  O  O278  1  0.38315614  0.51329027  0.75837990  1
  O  O279  1  0.86409802  0.00964098  0.25274758  1
  O  O280  1  0.88134769  -0.00096595  0.76396880  1
  O  O281  1  0.87202828  0.50234631  0.25562731  1
  O  O282  1  0.86894965  0.50633137  0.75462223  1
  O  O283  1  0.12939020  0.35977841  0.36726414  1
  O  O284  1  0.11536113  0.36060362  0.87582090  1
  O  O285  1  0.12033509  0.86015920  0.37844454  1
  O  O286  1  0.11693495  0.86888638  0.87323645  1
  O  O287  1  0.61941301  0.37007953  0.36973258  1
  O  O288  1  0.61149658  0.37633729  0.87950205  1
  O  O289  1  0.61983201  0.87141573  0.37145883  1
  O  O290  1  0.61550215  0.86227525  0.88429873  1
  O  O291  1  0.37454733  0.13455764  0.13122754  1
  O  O292  1  0.37868341  0.12313673  0.63932729  1
  O  O293  1  0.37378294  0.62965865  0.13298594  1
  O  O294  1  0.38584208  0.63258601  0.63568744  1
  O  O295  1  0.88024535  0.13095458  0.13120598  1
  O  O296  1  0.87462739  0.14194323  0.61177476  1
  O  O297  1  0.88337140  0.63050017  0.13077032  1
  O  O298  1  0.88353229  0.62099677  0.63584674  1
  O  O299  1  0.25376024  0.24508060  0.12021355  1
  O  O300  1  0.24600293  0.25369911  0.61054712  1
  O  O301  1  0.25751304  0.75512965  0.12212261  1
  O  O302  1  0.26254671  0.75513283  0.62706176  1
  O  O303  1  0.76677338  0.25234005  0.12749476  1
  O  O304  1  0.75704182  0.25007057  0.63195726  1
  O  O305  1  0.75370786  0.75564907  0.12104640  1
  O  O306  1  0.74724039  0.75654603  0.61233248  1
  O  O307  1  0.24721466  0.23564504  0.37954727  1
  O  O308  1  0.24334509  0.24577652  0.88690956  1
  O  O309  1  0.23904699  0.75808233  0.38015143  1
  O  O310  1  0.24237408  0.74387791  0.87791219  1
  O  O311  1  0.74536151  0.23765237  0.36988803  1
  O  O312  1  0.75107661  0.23448843  0.86405549  1
  O  O313  1  0.74471076  0.74468960  0.38342685  1
  O  O314  1  0.74430078  0.75234795  0.88446776  1
  O  O315  1  -0.00659568  0.11883026  0.00898018  1
  O  O316  1  0.01194305  0.11740565  0.49891765  1
  O  O317  1  -0.00088169  0.61763587  0.00756450  1
  O  O318  1  -0.01229814  0.62100711  0.51178465  1
  O  O319  1  0.51293781  0.12453563  -0.00156347  1
  O  O320  1  0.51076567  0.12443545  0.50354403  1
  O  O321  1  0.49897387  0.61077060  0.00343578  1
  O  O322  1  0.50545843  0.61926940  0.50374552  1
  O  O323  1  0.49235265  0.37709046  0.48840658  1
  O  O324  1  0.49487074  0.38493745  0.99358355  1
  O  O325  1  0.50362141  0.88686453  0.49304463  1
  O  O326  1  0.49026964  0.87459746  0.99593552  1
  O  O327  1  0.99047513  0.38673498  0.49938083  1
  O  O328  1  0.99087471  0.38133583  0.99062521  1
  O  O329  1  0.99268939  0.88108035  0.50095900  1
  O  O330  1  0.99630758  0.87906572  0.98769271  1
  O  O331  1  0.50221131  0.48707072  0.37717274  1
  O  O332  1  0.49296388  0.49600632  0.88017078  1
  O  O333  1  0.49730324  0.99391042  0.38190949  1
  O  O334  1  0.50080931  0.98467443  0.88195787  1
  O  O335  1  0.98378422  0.51167323  0.37795669  1
  O  O336  1  0.99075935  0.49315299  0.87949466  1
  O  O337  1  1.00034088  0.99817266  0.38865467  1
  O  O338  1  0.99316333  0.99612589  0.87926259  1
  O  O339  1  -0.00169735  0.00799450  0.11664418  1
  O  O340  1  0.00978771  -0.00533405  0.61388568  1
  O  O341  1  -0.00787789  0.51013474  0.11453302  1
  O  O342  1  0.00516913  0.51021609  0.61364677  1
  O  O343  1  0.50344477  0.00413956  0.12401388  1
  O  O344  1  0.49161293  0.01319046  0.60564713  1
  O  O345  1  0.50655808  0.49588187  0.11617316  1
  O  O346  1  0.50664419  0.50421041  0.61849969  1
  O  O347  1  0.23821196  0.36712946  0.23628681  1
  O  O348  1  0.25089037  0.35993627  0.75108254  1
  O  O349  1  0.25650285  0.88425123  0.24145591  1
  O  O350  1  0.24817868  0.87009701  0.73954387  1
  O  O351  1  0.74447452  0.38203610  0.24849000  1
  O  O352  1  0.75338725  0.38988443  0.75390766  1
  O  O353  1  0.74774977  0.88242460  0.24671497  1
  O  O354  1  0.75439897  0.86524442  0.73265293  1
  O  O355  1  0.25378360  0.11618915  0.25885016  1
  O  O356  1  0.26133162  0.12983825  0.76115483  1
  O  O357  1  0.26423478  0.62520399  0.24771555  1
  O  O358  1  0.25917076  0.63129295  0.76267755  1
  O  O359  1  0.75487299  0.11888841  0.25688457  1
  O  O360  1  0.74223234  0.11410574  0.76260756  1
  O  O361  1  0.75680251  0.61887125  0.25354568  1
  O  O362  1  0.75912404  0.62114021  0.75091220  1
  O  O363  1  0.36773999  0.11915770  0.37034851  1
  O  O364  1  0.36056053  0.12589672  0.86876925  1
  O  O365  1  0.38322327  0.60843216  0.35784797  1
  O  O366  1  0.36835127  0.61864343  0.86983564  1
  O  O367  1  0.86825554  0.12579741  0.36950152  1
  O  O368  1  0.86085589  0.11457417  0.87810159  1
  O  O369  1  0.86831468  0.62012524  0.36769273  1
  O  O370  1  0.87663765  0.61471102  0.86565119  1
  O  O371  1  0.13213847  0.36940959  0.13791905  1
  O  O372  1  0.14212830  0.39446035  0.58035895  1
  O  O373  1  0.13800798  0.87466106  0.11890179  1
  O  O374  1  0.13484857  0.88457179  0.62914289  1
  O  O375  1  0.62742525  0.38318626  0.12629565  1
  O  O376  1  0.63491526  0.36630149  0.60865004  1
  O  O377  1  0.63581071  0.87390664  0.13299975  1
  O  O378  1  0.64369324  0.87774018  0.61595402  1
  O  O379  1  0.12581341  0.25147179  0.26655183  1
  O  O380  1  0.11152000  0.24846658  0.75493436  1
  O  O381  1  0.11228999  0.75666101  0.24568457  1
  O  O382  1  0.11601089  0.75135954  0.76225527  1
  O  O383  1  0.62052122  0.25599941  0.25376737  1
  O  O384  1  0.60492100  0.24207806  0.75774282  1
  O  O385  1  0.62252111  0.75486498  0.25836096  1
  O  O386  1  0.61757085  0.74553807  0.76067579  1
  O  O387  1  0.37830720  0.24309874  0.24476233  1
  O  O388  1  0.39005069  0.23346883  0.75632194  1
  O  O389  1  0.37554486  0.73885105  0.24407336  1
  O  O390  1  0.38281123  0.73804586  0.74586855  1
  O  O391  1  0.87383906  0.23912117  0.24408128  1
  O  O392  1  0.89053317  0.25210919  0.73955548  1
  O  O393  1  0.88089187  0.74425953  0.24489216  1
  O  O394  1  0.88568584  0.74008429  0.75744602  1
  O  O395  1  0.38430909  0.48878713  0.48644621  1
  O  O396  1  0.38059292  0.49700072  0.99102080  1
  O  O397  1  0.38282755  1.00085218  0.49002817  1
  O  O398  1  0.37385496  0.98716643  1.00706618  1
  O  O399  1  0.87928151  0.49130916  0.49314706  1
  O  O400  1  0.88019388  0.49574590  0.98806317  1
  O  O401  1  0.88424020  0.99423553  0.49969426  1
  O  O402  1  0.88466356  0.99740737  0.99065865  1
  O  O403  1  0.10669641  -0.00323178  0.00202937  1
  O  O404  1  0.12058083  0.00741608  0.50827793  1
  O  O405  1  0.10835784  0.50032399  -0.00519199  1
  O  O406  1  0.10676947  0.51619071  0.47515653  1
  O  O407  1  0.62440119  0.01342987  0.00337453  1
  O  O408  1  0.61810539  0.01051360  0.49984597  1
  O  O409  1  0.61849314  0.50104015  0.00612868  1
  O  O410  1  0.62044942  0.50787546  0.50166339  1
  O  O411  1  0.36218360  0.36290065  0.12937497  1
  O  O412  1  0.37562034  0.37782113  0.60949813  1
  O  O413  1  0.36569862  0.86616032  0.11998342  1
  O  O414  1  0.37239605  0.87057741  0.63255912  1
  O  O415  1  0.87648604  0.36737936  0.11477742  1
  O  O416  1  0.87583848  0.37006887  0.60943140  1
  O  O417  1  0.86236277  0.86989088  0.12520335  1
  O  O418  1  0.86424550  0.87786408  0.61249181  1
  O  O419  1  0.13165755  0.13228778  0.38303163  1
  O  O420  1  0.14017822  0.13721825  0.86929561  1
  O  O421  1  0.12334696  0.65294329  0.36132072  1
  O  O422  1  0.13177345  0.63237519  0.87674831  1
  O  O423  1  0.63013743  0.13308892  0.38395026  1
  O  O424  1  0.63806837  0.12321338  0.88276888  1
  O  O425  1  0.62902841  0.62799848  0.38424080  1
  O  O426  1  0.62834601  0.63774655  0.88050284  1
