# generated using pymatgen
data_V85Zn86O256
_symmetry_space_group_name_H-M   'P 1'
_cell_length_a   16.93476733
_cell_length_b   16.93440487
_cell_length_c   16.93789918
_cell_angle_alpha   89.99010191
_cell_angle_beta   90.05419298
_cell_angle_gamma   90.03353085
_symmetry_Int_Tables_number   1
_chemical_formula_structural   V85Zn86O256
_chemical_formula_sum   'V85 Zn86 O256'
_cell_volume   4857.45114504
_cell_formula_units_Z   1
loop_
 _symmetry_equiv_pos_site_id
 _symmetry_equiv_pos_as_xyz
  1  'x, y, z'
loop_
 _atom_site_type_symbol
 _atom_site_label
 _atom_site_symmetry_multiplicity
 _atom_site_fract_x
 _atom_site_fract_y
 _atom_site_fract_z
 _atom_site_occupancy
  V  V0  1  0.50069207  0.64059201  0.62922108  1
  V  V1  1  0.12134671  -0.00271762  0.64555157  1
  V  V2  1  0.13008132  0.74976732  0.37222461  1
  V  V3  1  0.87413084  0.49763933  0.38598581  1
  V  V4  1  0.62482053  0.75156527  0.85973532  1
  V  V5  1  0.25166725  0.49707271  0.74219082  1
  V  V6  1  0.12097409  0.50223077  0.12700341  1
  V  V7  1  0.24807677  0.24894299  0.00252684  1
  V  V8  1  0.75300453  0.87806597  0.63713031  1
  V  V9  1  -0.00486966  0.24717090  0.74705376  1
  V  V10  1  0.24837680  0.11875134  0.87410927  1
  V  V11  1  0.50013769  0.12426681  0.12617649  1
  V  V12  1  0.48273583  -0.00137357  0.49767587  1
  V  V13  1  0.86571691  0.26269704  0.61695038  1
  V  V14  1  0.50654241  0.87118239  0.85890740  1
  V  V15  1  0.50268949  -0.00310162  0.00032255  1
  V  V16  1  0.63257328  0.37211221  0.74889924  1
  V  V17  1  0.37415417  0.11869605  0.25714870  1
  V  V18  1  0.87656151  0.36809625  0.00506912  1
  V  V19  1  0.12452687  0.24819859  0.87683319  1
  V  V20  1  0.25064343  0.37540114  0.12562015  1
  V  V21  1  0.50764979  0.37425812  0.87494018  1
  V  V22  1  0.12400011  0.11274161  0.00528278  1
  V  V23  1  0.24422535  -0.00016406  0.24738586  1
  V  V24  1  0.75464716  0.50058650  0.74391974  1
  V  V25  1  0.63045724  0.63469359  0.00065942  1
  V  V26  1  0.37927190  -0.00120417  0.87318277  1
  V  V27  1  0.36930243  0.74917203  0.12136134  1
  V  V28  1  0.75300689  0.63147486  0.87629569  1
  V  V29  1  0.50573880  0.24874486  0.25516858  1
  V  V30  1  0.48791612  0.87832654  0.37867140  1
  V  V31  1  0.87196031  0.74025758  0.12239113  1
  V  V32  1  0.24499623  0.88032967  0.11450266  1
  V  V33  1  0.62419983  0.12271633  0.49820767  1
  V  V34  1  0.11714876  0.74767798  0.86561077  1
  V  V35  1  0.25006298  0.63268295  0.87919160  1
  V  V36  1  -0.00007018  0.64366728  0.62426915  1
  V  V37  1  0.86951019  0.11785873  0.24800723  1
  V  V38  1  0.00061468  0.37415180  0.87621232  1
  V  V39  1  0.37249870  0.49771924  0.87599218  1
  V  V40  1  0.37236421  0.12514564  0.74987715  1
  V  V41  1  -0.00185426  0.50449808  0.00495189  1
  V  V42  1  -0.00147108  -0.00575957  0.00783816  1
  V  V43  1  0.87551333  0.49980750  0.87356681  1
  V  V44  1  0.37628714  0.50029409  0.37750046  1
  V  V45  1  0.75198489  0.50122894  0.25242340  1
  V  V46  1  0.37790799  0.62414533  0.25042577  1
  V  V47  1  0.12581083  0.62796954  0.00195121  1
  V  V48  1  0.86564250  0.87229500  0.00210860  1
  V  V49  1  0.62836543  0.63144492  0.49868622  1
  V  V50  1  0.88144287  0.63810124  0.74560712  1
  V  V51  1  0.50534609  0.37101991  0.37907982  1
  V  V52  1  0.12984379  0.62453183  0.49809503  1
  V  V53  1  0.76650293  0.75894039  0.50128779  1
  V  V54  1  0.75246967  0.87466492  0.13746269  1
  V  V55  1  0.49952094  0.50250729  0.50292048  1
  V  V56  1  0.50251619  0.25210011  0.75076547  1
  V  V57  1  -0.00269115  0.37225354  0.38479603  1
  V  V58  1  0.13112154  0.37089203  0.74691828  1
  V  V59  1  0.36848765  0.38039821  0.50565952  1
  V  V60  1  0.37426941  0.24888780  0.12707438  1
  V  V61  1  0.62372314  0.13008260  -0.00711293  1
  V  V62  1  -0.00020706  0.87206303  0.86656501  1
  V  V63  1  0.74566353  0.25246300  -0.00581743  1
  V  V64  1  0.36778953  0.25545019  0.62735266  1
  V  V65  1  0.50178306  0.62613574  0.12433490  1
  V  V66  1  0.12146965  0.49351992  0.62347704  1
  V  V67  1  0.62760423  0.49685176  0.62432044  1
  V  V68  1  0.75301547  0.36922695  0.12856484  1
  V  V69  1  0.74351769  0.26145489  0.49421252  1
  V  V70  1  0.24984897  0.50065666  0.25330261  1
  V  V71  1  0.74599094  0.11783069  0.37391759  1
  V  V72  1  0.38165088  0.63145136  0.75053948  1
  V  V73  1  0.12165217  0.11380810  0.49796404  1
  V  V74  1  0.50498419  0.75422413  0.25117057  1
  V  V75  1  0.50218393  0.50004781  -0.00000486  1
  V  V76  1  -0.00641105  0.25247513  0.24673904  1
  V  V77  1  0.37711766  0.86849105  -0.00410844  1
  V  V78  1  0.62622098  0.49888935  0.12594660  1
  V  V79  1  0.63137687  0.00141096  0.13272565  1
  V  V80  1  0.24616715  0.25167057  0.49904053  1
  V  V81  1  0.00247142  0.88144513  0.37739397  1
  V  V82  1  -0.00784688  0.12118317  0.61549110  1
  V  V83  1  -0.00519523  0.12855683  0.12452750  1
  V  V84  1  0.00201531  0.74339194  0.24179057  1
  Zn  Zn85  1  0.62319485  -0.00614945  0.62613258  1
  Zn  Zn86  1  0.12424266  0.24916816  0.37298463  1
  Zn  Zn87  1  0.12105301  0.87835263  0.23831526  1
  Zn  Zn88  1  0.86659403  0.12377617  0.74925203  1
  Zn  Zn89  1  0.89533639  0.88496359  0.51196752  1
  Zn  Zn90  1  0.74962485  0.12678685  0.87344459  1
  Zn  Zn91  1  0.74176596  0.00448730  0.75696758  1
  Zn  Zn92  1  0.87878491  0.62174237  0.24965775  1
  Zn  Zn93  1  0.62916220  0.75795132  0.37679966  1
  Zn  Zn94  1  -0.00528231  0.49660077  0.50495335  1
  Zn  Zn95  1  0.31312902  0.83404412  0.54816615  1
  Zn  Zn96  1  0.25685848  0.63067596  0.38401556  1
  Zn  Zn97  1  0.87570656  -0.00020840  0.38000060  1
  Zn  Zn98  1  0.87032842  0.00377897  0.87417609  1
  Zn  Zn99  1  0.12297589  0.37313355  0.25251878  1
  Zn  Zn100  1  0.37730970  0.37278088  0.00099404  1
  Zn  Zn101  1  0.62862444  0.36995296  0.25573470  1
  Zn  Zn102  1  0.75530906  0.62970864  0.37549676  1
  Zn  Zn103  1  0.62832507  0.88454118  0.25761679  1
  Zn  Zn104  1  0.27635401  -0.04454414  0.71248054  1
  Zn  Zn105  1  0.24969489  0.12305168  0.37525062  1
  Zn  Zn106  1  0.49936042  0.12345381  0.62441551  1
  Zn  Zn107  1  0.18129089  0.18574829  0.18776782  1
  Zn  Zn108  1  0.18596539  0.18271354  0.68501137  1
  Zn  Zn109  1  0.18892140  0.68565216  0.18666282  1
  Zn  Zn110  1  0.18064896  0.67922857  0.69084853  1
  Zn  Zn111  1  0.68903582  0.18701189  0.18464638  1
  Zn  Zn112  1  0.68624182  0.18442634  0.68231423  1
  Zn  Zn113  1  0.69121470  0.68858482  0.18827843  1
  Zn  Zn114  1  0.69428955  0.68900347  0.68028160  1
  Zn  Zn115  1  0.31531973  0.31218274  0.31500862  1
  Zn  Zn116  1  0.31286735  0.31168158  0.81634589  1
  Zn  Zn117  1  0.31174130  0.81461508  0.30684212  1
  Zn  Zn118  1  0.30240335  0.80198504  0.72363047  1
  Zn  Zn119  1  0.81593823  0.30840032  0.31573708  1
  Zn  Zn120  1  0.81323714  0.31019683  0.81199479  1
  Zn  Zn121  1  0.81830201  0.81105422  0.31507560  1
  Zn  Zn122  1  0.81473345  0.81339643  0.81575646  1
  Zn  Zn123  1  0.18541148  0.43694573  0.43719316  1
  Zn  Zn124  1  0.18766924  0.43815928  0.93776373  1
  Zn  Zn125  1  0.18866366  0.94046519  0.42687817  1
  Zn  Zn126  1  0.21584691  0.90341303  0.89161739  1
  Zn  Zn127  1  0.68621665  0.44047784  0.43680129  1
  Zn  Zn128  1  0.68897036  0.44159949  0.93609726  1
  Zn  Zn129  1  0.68316427  0.93825624  0.43970746  1
  Zn  Zn130  1  0.68696960  0.93666551  0.93864878  1
  Zn  Zn131  1  0.31447399  0.06068138  0.06228404  1
  Zn  Zn132  1  0.30700439  0.06691310  0.56458662  1
  Zn  Zn133  1  0.31211617  0.56117920  0.06211682  1
  Zn  Zn134  1  0.31239855  0.66895948  0.56963363  1
  Zn  Zn135  1  0.81240632  0.06204893  0.06094130  1
  Zn  Zn136  1  0.81419275  0.05898835  0.55741307  1
  Zn  Zn137  1  0.81133673  0.55874455  0.06228191  1
  Zn  Zn138  1  0.81436383  0.56865301  0.56358109  1
  Zn  Zn139  1  0.43848851  0.43498765  0.18940221  1
  Zn  Zn140  1  0.43989654  0.44201812  0.68628664  1
  Zn  Zn141  1  0.43556799  0.93675333  0.18719996  1
  Zn  Zn142  1  0.44364760  0.93391135  0.68002619  1
  Zn  Zn143  1  0.93610658  0.43613642  0.19059612  1
  Zn  Zn144  1  0.93951199  0.43583085  0.68819443  1
  Zn  Zn145  1  0.93849635  0.93621358  0.18924182  1
  Zn  Zn146  1  0.92893454  0.94061198  0.68780673  1
  Zn  Zn147  1  0.06660291  0.06493930  0.30700246  1
  Zn  Zn148  1  0.05208294  0.06291246  0.81853861  1
  Zn  Zn149  1  0.06000336  0.56155441  0.31420089  1
  Zn  Zn150  1  0.06096839  0.56234180  0.81046585  1
  Zn  Zn151  1  0.56151290  0.06336273  0.31952768  1
  Zn  Zn152  1  0.56542862  0.06165278  0.80852863  1
  Zn  Zn153  1  0.56534310  0.56219685  0.31443149  1
  Zn  Zn154  1  0.56546528  0.56273918  0.81225938  1
  Zn  Zn155  1  0.43560045  0.18765105  0.43896225  1
  Zn  Zn156  1  0.43871654  0.18934059  0.93706180  1
  Zn  Zn157  1  0.43943808  0.69412428  0.43886026  1
  Zn  Zn158  1  0.44098993  0.68884206  0.93315171  1
  Zn  Zn159  1  0.93142126  0.18776097  0.43605221  1
  Zn  Zn160  1  0.93496755  0.18685054  0.93837569  1
  Zn  Zn161  1  0.94532869  0.68625533  0.43420068  1
  Zn  Zn162  1  0.93671713  0.68843333  0.93980427  1
  Zn  Zn163  1  0.06308689  0.31130960  0.06588150  1
  Zn  Zn164  1  0.06173543  0.30925067  0.56431601  1
  Zn  Zn165  1  0.05913388  0.80968782  0.05798524  1
  Zn  Zn166  1  0.11484784  0.83277173  0.54427075  1
  Zn  Zn167  1  0.56398981  0.31284634  0.06601771  1
  Zn  Zn168  1  0.56309092  0.31115466  0.56531817  1
  Zn  Zn169  1  0.56581766  0.81366571  0.06416176  1
  Zn  Zn170  1  0.56628280  0.81745608  0.55953779  1
  O  O171  1  0.11010394  0.12950528  0.11550602  1
  O  O172  1  0.11155760  0.12468293  0.61795443  1
  O  O173  1  0.13243077  0.61037542  0.11748256  1
  O  O174  1  0.11414649  0.61457632  0.61988460  1
  O  O175  1  0.61940796  0.11883591  0.11757543  1
  O  O176  1  0.61789144  0.12774561  0.60922581  1
  O  O177  1  0.62350256  0.61925157  0.11816098  1
  O  O178  1  0.62200034  0.61679175  0.61779051  1
  O  O179  1  0.38415681  0.38132187  0.38265369  1
  O  O180  1  0.38391692  0.38469489  0.87637957  1
  O  O181  1  0.38762685  0.87053315  0.36962279  1
  O  O182  1  0.39178736  0.88355412  0.88507631  1
  O  O183  1  0.88512760  0.38454415  0.36939626  1
  O  O184  1  0.88074149  0.38067235  0.88205510  1
  O  O185  1  0.89372546  0.87640620  0.37269321  1
  O  O186  1  0.88443459  0.87231879  0.88659464  1
  O  O187  1  0.24964543  0.00278769  0.35347174  1
  O  O188  1  0.25963192  0.01511422  0.88421662  1
  O  O189  1  0.25645446  0.50133298  0.36721703  1
  O  O190  1  0.25779741  0.50236606  0.86891160  1
  O  O191  1  0.74837285  0.01407442  0.37654682  1
  O  O192  1  0.75052815  0.00506703  0.87851455  1
  O  O193  1  0.75685793  0.50026798  0.36838098  1
  O  O194  1  0.75407888  0.50975419  0.86371970  1
  O  O195  1  0.24582455  0.49247510  0.13181021  1
  O  O196  1  0.23538277  0.50222021  0.64140795  1
  O  O197  1  0.25491131  0.98999688  0.12950562  1
  O  O198  1  0.22807421  1.01588024  0.63028270  1
  O  O199  1  0.74593086  0.49082530  0.13259706  1
  O  O200  1  0.74500205  0.50619456  0.63625901  1
  O  O201  1  0.74108867  0.99159943  0.12106245  1
  O  O202  1  0.74977133  0.98610756  0.62355520  1
  O  O203  1  0.00004349  0.36690105  0.25647823  1
  O  O204  1  0.00858079  0.36416052  0.75466854  1
  O  O205  1  0.00310228  0.86257403  0.25205253  1
  O  O206  1  -0.00643245  0.88088258  0.76902299  1
  O  O207  1  0.49971367  0.36582977  0.25944418  1
  O  O208  1  0.50904728  0.37281184  0.75610654  1
  O  O209  1  0.50137756  0.86821468  0.25411005  1
  O  O210  1  0.50281109  0.87741353  0.76017910  1
  O  O211  1  0.49219299  0.13013442  0.24747970  1
  O  O212  1  0.48887180  0.13687368  0.75277411  1
  O  O213  1  0.49701802  0.63028571  0.24412078  1
  O  O214  1  0.49373343  0.61560516  0.74162465  1
  O  O215  1  0.99484899  0.13079427  0.24185902  1
  O  O216  1  0.99879067  0.13894926  0.74423282  1
  O  O217  1  0.99946122  0.63828610  0.25020828  1
  O  O218  1  0.99406679  0.61931058  0.73560473  1
  O  O219  1  0.36880077  0.24966585  0.00993480  1
  O  O220  1  0.36599451  0.25590394  0.50782977  1
  O  O221  1  0.38326801  0.75730968  0.00798399  1
  O  O222  1  0.36572023  0.74424139  0.50305223  1
  O  O223  1  0.86884942  0.26360248  -0.00004672  1
  O  O224  1  0.86201489  0.24854840  0.50978584  1
  O  O225  1  0.88098314  0.75831881  0.01195827  1
  O  O226  1  0.86782365  0.75221647  0.49406187  1
  O  O227  1  0.13784473  0.24744575  0.50271245  1
  O  O228  1  0.12895544  0.24330215  0.99441192  1
  O  O229  1  0.11754195  0.73560702  0.48334276  1
  O  O230  1  0.11600694  0.73068416  0.99533748  1
  O  O231  1  0.63665912  0.24496749  0.50524122  1
  O  O232  1  0.63190690  0.24222028  1.00615326  1
  O  O233  1  0.63342991  0.74293519  0.49782505  1
  O  O234  1  0.62306995  0.73680570  0.99788351  1
  O  O235  1  0.49251146  0.24554222  0.13195231  1
  O  O236  1  0.48775465  0.25147558  0.63572523  1
  O  O237  1  0.49392998  0.74524431  0.13113156  1
  O  O238  1  0.50753645  0.73987905  0.62287045  1
  O  O239  1  0.99929384  0.24298721  0.13266603  1
  O  O240  1  0.98946293  0.24467908  0.62990180  1
  O  O241  1  0.99134944  0.75282190  0.13535767  1
  O  O242  1  1.01057824  0.73879518  0.62114448  1
  O  O243  1  -0.00164073  0.25764720  0.36846043  1
  O  O244  1  0.00413813  0.25501768  0.86768341  1
  O  O245  1  0.00875107  0.75474422  0.36038992  1
  O  O246  1  0.00266535  0.76148849  0.87981022  1
  O  O247  1  0.49206068  0.25891514  0.36715804  1
  O  O248  1  0.49315460  0.26242758  0.86287025  1
  O  O249  1  0.50427195  0.75700361  0.36647520  1
  O  O250  1  0.51211042  0.75964483  0.87823377  1
  O  O251  1  0.24112348  0.13418714  0.49686477  1
  O  O252  1  0.24175626  0.12940991  0.99784774  1
  O  O253  1  0.23405181  0.61671642  0.50055814  1
  O  O254  1  0.23844567  0.61239895  0.99080327  1
  O  O255  1  0.74102104  0.13108167  0.49328470  1
  O  O256  1  0.74125947  0.13653182  1.00349042  1
  O  O257  1  0.74542957  0.63816150  0.50138886  1
  O  O258  1  0.74183208  0.61507284  0.98838645  1
  O  O259  1  0.25166941  0.36820272  0.00677766  1
  O  O260  1  0.26148908  0.36950449  0.49576319  1
  O  O261  1  0.26916041  0.88139140  -0.00105930  1
  O  O262  1  0.21756116  0.86927740  0.50430754  1
  O  O263  1  0.75563286  0.37340492  0.00635808  1
  O  O264  1  0.74381244  0.36067826  0.49510510  1
  O  O265  1  0.76208131  0.87713740  0.01021543  1
  O  O266  1  0.75500872  0.86368900  0.49622767  1
  O  O267  1  0.13233542  0.49988950  0.24342614  1
  O  O268  1  0.12964212  0.48944216  0.74755528  1
  O  O269  1  0.13974385  1.00064213  0.24039359  1
  O  O270  1  0.12301204  1.01140947  0.74514177  1
  O  O271  1  0.63655295  0.49752261  0.24635074  1
  O  O272  1  0.63427212  0.49543700  0.74345836  1
  O  O273  1  0.61706054  1.00393301  0.23610709  1
  O  O274  1  0.62721974  1.00454509  0.73943897  1
  O  O275  1  0.36460024  0.01028316  0.24099459  1
  O  O276  1  0.37793507  0.01243551  0.75524371  1
  O  O277  1  0.36964232  0.50319821  0.25579023  1
  O  O278  1  0.36796554  0.50074857  0.75845902  1
  O  O279  1  0.88002736  0.01430959  0.25353915  1
  O  O280  1  0.86540959  0.00510532  0.75527403  1
  O  O281  1  0.86388456  0.50085353  0.25524250  1
  O  O282  1  0.86960105  0.50315274  0.75439776  1
  O  O283  1  0.11342261  0.37336663  0.37204058  1
  O  O284  1  0.11943695  0.36848714  0.86979777  1
  O  O285  1  0.11762259  0.86579805  0.36149799  1
  O  O286  1  0.10819709  0.86033815  0.88869987  1
  O  O287  1  0.60968160  0.37971291  0.37442179  1
  O  O288  1  0.61483505  0.38295784  0.86592210  1
  O  O289  1  0.61222935  0.87587033  0.37243408  1
  O  O290  1  0.61801574  0.86184446  0.88443647  1
  O  O291  1  0.38151187  0.13126916  0.13151375  1
  O  O292  1  0.37627235  0.13467468  0.63455216  1
  O  O293  1  0.38074828  0.63093309  0.12801427  1
  O  O294  1  0.38914063  0.61765251  0.63876911  1
  O  O295  1  0.88513947  0.12281074  0.13038588  1
  O  O296  1  0.88156392  0.13607652  0.62439019  1
  O  O297  1  0.86884433  0.63603377  0.12475623  1
  O  O298  1  0.89094185  0.62364843  0.63080418  1
  O  O299  1  0.25344871  0.25582155  0.12337368  1
  O  O300  1  0.26108083  0.24714198  0.61927825  1
  O  O301  1  0.26483638  0.75509763  0.12946190  1
  O  O302  1  0.25360155  0.74294822  0.63654928  1
  O  O303  1  0.74588321  0.26416117  0.11651104  1
  O  O304  1  0.75969693  0.24947456  0.61329905  1
  O  O305  1  0.75973310  0.75971301  0.12836206  1
  O  O306  1  0.75162516  0.75940590  0.60957738  1
  O  O307  1  0.24833558  0.24867233  0.38439308  1
  O  O308  1  0.24671843  0.23966023  0.88307257  1
  O  O309  1  0.23474765  0.74492935  0.35610988  1
  O  O310  1  0.23787066  0.73254404  0.88007539  1
  O  O311  1  0.75488396  0.24185210  0.38939057  1
  O  O312  1  0.74981435  0.25492076  0.89079871  1
  O  O313  1  0.74927987  0.74893292  0.38492377  1
  O  O314  1  0.74533260  0.73743913  0.87419717  1
  O  O315  1  0.00383165  0.11982811  0.00638041  1
  O  O316  1  0.00785521  0.13724612  0.50839732  1
  O  O317  1  0.00502018  0.60970345  -0.00421075  1
  O  O318  1  0.00664108  0.61992469  0.51125324  1
  O  O319  1  0.50465117  0.11968032  0.00582621  1
  O  O320  1  0.50370990  0.11637802  0.49733197  1
  O  O321  1  0.50809330  0.61901147  0.00521297  1
  O  O322  1  0.50932668  0.62079883  0.50771370  1
  O  O323  1  0.49258118  0.37813480  0.49551832  1
  O  O324  1  0.50140947  0.37965651  0.99165929  1
  O  O325  1  0.49880016  0.88886453  0.49441524  1
  O  O326  1  0.49481161  0.88345322  1.00198539  1
  O  O327  1  1.00149059  0.37364791  0.48867803  1
  O  O328  1  0.99344312  0.38136949  0.99829231  1
  O  O329  1  1.01056993  0.86654896  0.47996129  1
  O  O330  1  0.98964365  0.88151498  1.00064894  1
  O  O331  1  0.49510314  0.49420627  0.38173574  1
  O  O332  1  0.49330447  0.49387570  0.87862081  1
  O  O333  1  0.49791094  0.99430882  0.38763105  1
  O  O334  1  0.50022716  0.99328857  0.88352508  1
  O  O335  1  0.99150376  0.49100240  0.37677482  1
  O  O336  1  0.99604490  0.49242662  0.88248132  1
  O  O337  1  1.00730261  0.98335239  0.36340409  1
  O  O338  1  0.99833477  0.98808181  0.88878415  1
  O  O339  1  -0.00234853  0.00678841  0.11471810  1
  O  O340  1  0.00510942  0.01660862  0.63311226  1
  O  O341  1  0.00893840  0.49430503  0.11825687  1
  O  O342  1  0.01175060  0.49823649  0.62509871  1
  O  O343  1  0.50455033  0.00525785  0.11780979  1
  O  O344  1  0.50061256  0.00267878  0.60987113  1
  O  O345  1  0.50579804  0.50518293  0.12188908  1
  O  O346  1  0.51048948  0.50594986  0.61893796  1
  O  O347  1  0.25037677  0.38531059  0.24583308  1
  O  O348  1  0.23878018  0.37987615  0.75871775  1
  O  O349  1  0.25023771  0.88636466  0.23623008  1
  O  O350  1  0.25009906  0.87800882  0.78745900  1
  O  O351  1  0.74989655  0.37795048  0.24464834  1
  O  O352  1  0.73944070  0.38270362  0.75648083  1
  O  O353  1  0.74968098  0.87352678  0.24189518  1
  O  O354  1  0.75181375  0.87095306  0.73897684  1
  O  O355  1  0.25592507  0.11540104  0.24437973  1
  O  O356  1  0.26182093  0.13475977  0.76095304  1
  O  O357  1  0.25870359  0.61189953  0.24731307  1
  O  O358  1  0.25794899  0.61255720  0.76088061  1
  O  O359  1  0.75832104  0.13528852  0.25873219  1
  O  O360  1  0.74868423  0.13022192  0.75571723  1
  O  O361  1  0.75200134  0.61484788  0.25361785  1
  O  O362  1  0.75956214  0.61826199  0.75381432  1
  O  O363  1  0.37103266  0.13059749  0.36007594  1
  O  O364  1  0.36954389  0.12144018  0.87016713  1
  O  O365  1  0.37622800  0.61743606  0.36804443  1
  O  O366  1  0.37019499  0.61262521  0.87522780  1
  O  O367  1  0.86603568  0.12317278  0.36635786  1
  O  O368  1  0.87176571  0.12505506  0.87155004  1
  O  O369  1  0.87663596  0.61308869  0.37221141  1
  O  O370  1  0.87040381  0.61914450  0.86984728  1
  O  O371  1  0.13269358  0.38562778  0.12699734  1
  O  O372  1  0.12233428  0.37860534  0.63625684  1
  O  O373  1  0.14250000  0.86431134  0.11705925  1
  O  O374  1  0.10975742  0.89840269  0.63746581  1
  O  O375  1  0.63237221  0.38369996  0.12894792  1
  O  O376  1  0.62052831  0.38875400  0.63378559  1
  O  O377  1  0.63460544  0.88334378  0.12734319  1
  O  O378  1  0.64684343  0.87517238  0.61519360  1
  O  O379  1  0.11125194  0.25098186  0.25189748  1
  O  O380  1  0.11937096  0.25455060  0.75449320  1
  O  O381  1  0.11458213  0.74892224  0.24808075  1
  O  O382  1  0.11859495  0.73751433  0.76679477  1
  O  O383  1  0.60930446  0.24975122  0.24382885  1
  O  O384  1  0.61501920  0.26164525  0.74067472  1
  O  O385  1  0.61299036  0.74944027  0.24973178  1
  O  O386  1  0.62971097  0.74017898  0.76101508  1
  O  O387  1  0.38152915  0.24381574  0.24266493  1
  O  O388  1  0.37962918  0.24898574  0.74439022  1
  O  O389  1  0.38609435  0.74457375  0.24146633  1
  O  O390  1  0.38007914  0.72930465  0.76754864  1
  O  O391  1  0.88694862  0.23901106  0.25283188  1
  O  O392  1  0.88055795  0.25200695  0.73799621  1
  O  O393  1  0.88561736  0.74642517  0.24248111  1
  O  O394  1  0.87453937  0.73644590  0.75447633  1
  O  O395  1  0.38205260  0.49136212  0.49402791  1
  O  O396  1  0.38274697  0.49702643  0.99300420  1
  O  O397  1  0.38329345  1.00712333  0.50203375  1
  O  O398  1  0.38868645  0.99671913  0.99574532  1
  O  O399  1  0.87274874  0.50044368  0.49009369  1
  O  O400  1  0.88150869  0.49216639  0.99504349  1
  O  O401  1  0.88189657  0.99768394  0.49385798  1
  O  O402  1  0.88222147  0.99061617  0.99976725  1
  O  O403  1  0.11587985  0.01225571  -0.00273588  1
  O  O404  1  0.12419002  0.01310463  0.50512149  1
  O  O405  1  0.11656208  0.50321893  0.00687143  1
  O  O406  1  0.12179735  0.50241317  0.50937372  1
  O  O407  1  0.61558569  0.00631852  0.00972763  1
  O  O408  1  0.61608534  0.01034747  0.50275804  1
  O  O409  1  0.61980724  0.50755840  0.00533841  1
  O  O410  1  0.62300786  0.50654746  0.50882357  1
  O  O411  1  0.36843912  0.36777865  0.12422999  1
  O  O412  1  0.37898900  0.37013777  0.61618929  1
  O  O413  1  0.36943531  0.86707002  0.11638463  1
  O  O414  1  0.34990059  0.88270249  0.64628744  1
  O  O415  1  0.86517109  0.38246395  0.11604830  1
  O  O416  1  0.87798257  0.36127497  0.62479532  1
  O  O417  1  0.86826686  0.86863597  0.12185309  1
  O  O418  1  0.86210941  0.87327304  0.62209349  1
  O  O419  1  0.12588299  0.12848470  0.38349907  1
  O  O420  1  0.13092761  0.12969807  0.88169899  1
  O  O421  1  0.12559779  0.62840831  0.38234266  1
  O  O422  1  0.12940043  0.62335267  0.88277783  1
  O  O423  1  0.63062346  0.12760209  0.38552992  1
  O  O424  1  0.62043401  0.12535872  0.89085248  1
  O  O425  1  0.62768186  0.62354663  0.39024000  1
  O  O426  1  0.63260112  0.62935990  0.88166551  1
