# generated using pymatgen
data_V85Zn86O256
_symmetry_space_group_name_H-M   'P 1'
_cell_length_a   16.92239901
_cell_length_b   16.90944125
_cell_length_c   16.92491848
_cell_angle_alpha   89.99022775
_cell_angle_beta   89.96993949
_cell_angle_gamma   90.08594239
_symmetry_Int_Tables_number   1
_chemical_formula_structural   V85Zn86O256
_chemical_formula_sum   'V85 Zn86 O256'
_cell_volume   4843.03066391
_cell_formula_units_Z   1
loop_
 _symmetry_equiv_pos_site_id
 _symmetry_equiv_pos_as_xyz
  1  'x, y, z'
loop_
 _atom_site_type_symbol
 _atom_site_label
 _atom_site_symmetry_multiplicity
 _atom_site_fract_x
 _atom_site_fract_y
 _atom_site_fract_z
 _atom_site_occupancy
  V  V0  1  0.62738110  0.74643855  0.37790178  1
  V  V1  1  0.50494557  0.01367724  0.49922698  1
  V  V2  1  0.00015678  0.49656865  0.50025222  1
  V  V3  1  0.11625431  0.37366774  0.75562536  1
  V  V4  1  0.00562159  0.24942882  0.25106192  1
  V  V5  1  -0.00072689  0.61746852  0.12049667  1
  V  V6  1  0.11742199  0.13889137  0.49861629  1
  V  V7  1  0.74878124  0.00099986  0.24703470  1
  V  V8  1  0.74901210  0.61126703  0.86769899  1
  V  V9  1  0.49851105  0.13030556  0.63958044  1
  V  V10  1  0.37269354  0.24460885  0.64204149  1
  V  V11  1  0.73325751  0.13093119  0.37352500  1
  V  V12  1  0.50490030  0.24902759  0.25112049  1
  V  V13  1  0.24974397  0.62163392  0.37241795  1
  V  V14  1  0.50009964  0.88070387  0.87963698  1
  V  V15  1  0.50023832  0.75242673  0.75005010  1
  V  V16  1  0.12681632  0.50335340  0.13231236  1
  V  V17  1  0.80639522  0.05821279  0.70234808  1
  V  V18  1  0.12959455  0.37371801  0.25550883  1
  V  V19  1  0.49989741  0.50080487  0.50330359  1
  V  V20  1  0.49015687  0.36865394  0.87403230  1
  V  V21  1  0.37203639  0.49759915  0.37304153  1
  V  V22  1  0.12600794  0.62376877  0.49941151  1
  V  V23  1  0.11514002  0.25117637  0.87970580  1
  V  V24  1  0.87276500  0.75548329  0.11907935  1
  V  V25  1  0.62545394  0.62393862  -0.00039020  1
  V  V26  1  0.12576818  0.49936218  0.62629167  1
  V  V27  1  0.24453586  0.13994855  0.37942635  1
  V  V28  1  0.73073595  0.25178325  0.49578625  1
  V  V29  1  0.87726437  0.74960817  0.61620878  1
  V  V30  1  0.37621162  0.00729456  0.87254800  1
  V  V31  1  0.61818251  0.11814123  -0.00212731  1
  V  V32  1  0.88683954  0.36691225  0.00056527  1
  V  V33  1  0.37629040  0.75014735  0.62545603  1
  V  V34  1  0.25006417  0.87793878  0.62605865  1
  V  V35  1  0.11744053  0.00484287  0.62114777  1
  V  V36  1  0.75752590  0.12801973  0.88181818  1
  V  V37  1  0.87607528  0.49553103  0.37419087  1
  V  V38  1  0.12374492  0.11433963  0.00233510  1
  V  V39  1  0.12641183  0.75699926  0.37161622  1
  V  V40  1  0.51023707  0.37144730  0.37568305  1
  V  V41  1  -0.00649334  0.87773193  0.88621888  1
  V  V42  1  0.87301585  0.13530074  0.24688954  1
  V  V43  1  0.24727818  0.36892137  0.62245692  1
  V  V44  1  0.63036661  0.49723229  0.12617557  1
  V  V45  1  0.75545658  0.87351252  0.62472387  1
  V  V46  1  0.49986061  0.74760263  0.24937124  1
  V  V47  1  0.24920199  0.25508669  0.00018348  1
  V  V48  1  0.87452245  0.62196029  0.24880853  1
  V  V49  1  0.62927001  0.50113444  0.63161303  1
  V  V50  1  0.25210455  0.01087962  0.74912537  1
  V  V51  1  0.37221562  0.36404757  0.50015471  1
  V  V52  1  0.62958325  0.75205620  0.87414743  1
  V  V53  1  0.62841139  0.25158735  0.88039008  1
  V  V54  1  0.24948679  0.75375267  0.00253118  1
  V  V55  1  0.12554700  0.87636457  0.75132006  1
  V  V56  1  0.12502431  0.74988504  0.87546976  1
  V  V57  1  0.12404781  0.61806735  0.00059547  1
  V  V58  1  0.75403797  0.35753428  0.11703161  1
  V  V59  1  0.37563888  0.88377604  0.00550241  1
  V  V60  1  0.75355984  0.37572056  0.63411156  1
  V  V61  1  0.37587510  0.25527620  0.11949464  1
  V  V62  1  0.37377666  0.62195983  0.75237637  1
  V  V63  1  -0.00553727  0.87427883  0.38199422  1
  V  V64  1  0.24074630  -0.01154690  0.24715271  1
  V  V65  1  0.87230640  -0.00264806  0.37581335  1
  V  V66  1  0.25112065  0.75013444  0.50053126  1
  V  V67  1  0.87586459  0.36659982  0.50106934  1
  V  V68  1  0.37682238  0.87804193  0.50222154  1
  V  V69  1  -0.00349141  0.74769063  0.75043198  1
  V  V70  1  0.49464090  0.49316225  -0.00059314  1
  V  V71  1  0.00403082  0.75507738  0.24798104  1
  V  V72  1  0.50129724  0.87652282  0.37700034  1
  V  V73  1  0.62186053  0.37106592  0.75239821  1
  V  V74  1  0.36868810  0.62013461  0.24811978  1
  V  V75  1  0.89563044  0.49529730  0.87929989  1
  V  V76  1  0.25325842  0.38176477  0.12724506  1
  V  V77  1  -0.00243931  0.11899490  0.12263844  1
  V  V78  1  0.37279420  0.75331075  0.12529316  1
  V  V79  1  0.37057598  0.00153870  0.37666007  1
  V  V80  1  0.87267205  -0.00264918  0.89447071  1
  V  V81  1  0.62715081  0.87335758  0.24615787  1
  V  V82  1  0.62305951  0.00641695  0.62876132  1
  V  V83  1  -0.00592036  0.23500006  0.74454822  1
  V  V84  1  0.37010957  0.12475665  0.24750915  1
  Zn  Zn85  1  0.63064606  0.88163524  0.75126139  1
  Zn  Zn86  1  0.75809517  0.88292338  0.11507291  1
  Zn  Zn87  1  0.62998158  0.62467130  0.50221086  1
  Zn  Zn88  1  0.50007905  0.62203176  0.12460230  1
  Zn  Zn89  1  0.63090904  0.37037271  0.25113667  1
  Zn  Zn90  1  0.87367431  0.23755489  0.62786362  1
  Zn  Zn91  1  0.49353512  0.11992750  0.11561429  1
  Zn  Zn92  1  0.87072594  0.61516494  0.74604078  1
  Zn  Zn93  1  0.75845704  0.75578832  -0.00886103  1
  Zn  Zn94  1  0.12170416  -0.01580999  0.12336441  1
  Zn  Zn95  1  0.75060851  0.49539888  0.24897287  1
  Zn  Zn96  1  -0.00375953  0.00173568  0.50274151  1
  Zn  Zn97  1  0.25178452  0.62249601  0.87662880  1
  Zn  Zn98  1  -0.00156004  0.62310188  0.62585468  1
  Zn  Zn99  1  0.00611664  0.36633323  0.37680981  1
  Zn  Zn100  1  0.61887068  -0.00624596  0.11486519  1
  Zn  Zn101  1  0.50303360  0.62613625  0.62548305  1
  Zn  Zn102  1  0.37155049  0.49716923  0.88149801  1
  Zn  Zn103  1  0.24956521  0.49819190  0.75523881  1
  Zn  Zn104  1  0.75077533  0.62321835  0.37673689  1
  Zn  Zn105  1  0.75753116  0.75326777  0.49547697  1
  Zn  Zn106  1  0.25181994  0.12927016  0.87392919  1
  Zn  Zn107  1  0.18598644  0.18721293  0.18610970  1
  Zn  Zn108  1  0.18335107  0.18915408  0.68497151  1
  Zn  Zn109  1  0.18754432  0.80820997  0.18763643  1
  Zn  Zn110  1  0.18807168  0.68701372  0.68848973  1
  Zn  Zn111  1  0.68509915  0.18520215  0.18363459  1
  Zn  Zn112  1  0.68040766  0.19448811  0.68524528  1
  Zn  Zn113  1  0.69060705  0.68430082  0.18845767  1
  Zn  Zn114  1  0.68980670  0.68862059  0.68774107  1
  Zn  Zn115  1  0.31595355  0.31454396  0.30759513  1
  Zn  Zn116  1  0.30428744  0.31535567  0.81318459  1
  Zn  Zn117  1  0.31727014  0.81038129  0.31672099  1
  Zn  Zn118  1  0.31256796  0.81521462  0.81503845  1
  Zn  Zn119  1  0.81041849  0.31342951  0.31183043  1
  Zn  Zn120  1  0.81666172  0.31321312  0.81787590  1
  Zn  Zn121  1  0.81315496  0.81210712  0.30781928  1
  Zn  Zn122  1  0.81294388  0.81493119  0.80693436  1
  Zn  Zn123  1  0.19013168  0.43468756  0.43882673  1
  Zn  Zn124  1  0.18629734  0.43698745  0.93881160  1
  Zn  Zn125  1  0.18602306  0.94088694  0.43716922  1
  Zn  Zn126  1  0.19067096  0.93462687  0.93627796  1
  Zn  Zn127  1  0.68990143  0.43908350  0.44209195  1
  Zn  Zn128  1  0.68746738  0.43332558  0.94279548  1
  Zn  Zn129  1  0.68693875  0.93693220  0.43986748  1
  Zn  Zn130  1  0.69449130  0.93816295  0.93490547  1
  Zn  Zn131  1  0.30695545  0.06404262  0.06385474  1
  Zn  Zn132  1  0.30874132  0.06799221  0.56125382  1
  Zn  Zn133  1  0.31037567  0.56521333  0.06416227  1
  Zn  Zn134  1  0.31346058  0.56022300  0.56433012  1
  Zn  Zn135  1  0.80772722  0.06949775  0.06416126  1
  Zn  Zn136  1  0.80525254  0.06376603  0.54041250  1
  Zn  Zn137  1  0.81216610  0.56110508  0.05583129  1
  Zn  Zn138  1  0.81123855  0.56358930  0.56019848  1
  Zn  Zn139  1  0.44031921  0.43672887  0.18743402  1
  Zn  Zn140  1  0.43842210  0.43497980  0.68933605  1
  Zn  Zn141  1  0.43780789  0.93979219  0.18744226  1
  Zn  Zn142  1  0.43937331  0.94060667  0.69001370  1
  Zn  Zn143  1  0.93831381  0.43287076  0.18361639  1
  Zn  Zn144  1  0.93717423  0.43510847  0.69214612  1
  Zn  Zn145  1  0.94079744  0.93804398  0.19170013  1
  Zn  Zn146  1  0.94112783  0.92943008  0.68793884  1
  Zn  Zn147  1  0.06179751  0.06408987  0.31477462  1
  Zn  Zn148  1  0.06119479  0.06015230  0.81844386  1
  Zn  Zn149  1  0.06105222  0.56268977  0.31079279  1
  Zn  Zn150  1  0.06447250  0.56438157  0.81207587  1
  Zn  Zn151  1  0.55702701  0.05887062  0.30162355  1
  Zn  Zn152  1  0.56425107  0.06458034  0.81296598  1
  Zn  Zn153  1  0.56058745  0.56050132  0.31119366  1
  Zn  Zn154  1  0.56060283  0.55945831  0.81203957  1
  Zn  Zn155  1  0.43621317  0.18814752  0.43606627  1
  Zn  Zn156  1  0.43816369  0.19169987  0.93482719  1
  Zn  Zn157  1  0.44043958  0.68565061  0.43766398  1
  Zn  Zn158  1  0.43962652  0.68809318  0.93740802  1
  Zn  Zn159  1  0.93432432  0.18593522  0.43163328  1
  Zn  Zn160  1  0.93965387  0.18550728  0.93893277  1
  Zn  Zn161  1  0.94022530  0.68279727  0.43637646  1
  Zn  Zn162  1  0.93823685  0.68233557  0.93598815  1
  Zn  Zn163  1  0.06175140  0.30781560  0.07029028  1
  Zn  Zn164  1  0.05706678  0.30979008  0.56870755  1
  Zn  Zn165  1  0.05791589  0.80752900  0.06061936  1
  Zn  Zn166  1  0.06294782  0.81367169  0.56211401  1
  Zn  Zn167  1  0.56433255  0.31010627  0.05995839  1
  Zn  Zn168  1  0.55601222  0.31480239  0.56923422  1
  Zn  Zn169  1  0.56135407  0.81133329  0.06015342  1
  Zn  Zn170  1  0.56572631  0.81922211  0.56320166  1
  O  O171  1  0.11888654  0.12148957  0.11759305  1
  O  O172  1  0.13239833  0.11871428  0.60779532  1
  O  O173  1  0.11647522  0.61647340  0.11884643  1
  O  O174  1  0.12519714  0.61550431  0.61949892  1
  O  O175  1  0.62502586  0.12697234  0.10542034  1
  O  O176  1  0.61306907  0.12140401  0.62619189  1
  O  O177  1  0.62448434  0.61892933  0.11662841  1
  O  O178  1  0.62385214  0.61624330  0.62514675  1
  O  O179  1  0.37919260  0.38073513  0.38221026  1
  O  O180  1  0.38574313  0.37536478  0.86927558  1
  O  O181  1  0.38169866  0.88123344  0.38199548  1
  O  O182  1  0.38189336  0.88275355  0.88316177  1
  O  O183  1  0.87770808  0.37913111  0.38319399  1
  O  O184  1  0.87368631  0.38729767  0.88645848  1
  O  O185  1  0.88193128  0.88276524  0.36875462  1
  O  O186  1  0.87901494  0.88763864  0.87066244  1
  O  O187  1  0.25435131  0.00508451  0.36573227  1
  O  O188  1  0.25772058  0.00058194  0.86566899  1
  O  O189  1  0.26440240  0.50483458  0.38169904  1
  O  O190  1  0.25439572  0.50207093  0.87405092  1
  O  O191  1  0.75361364  0.00642889  0.36984506  1
  O  O192  1  0.76464921  0.00737966  0.87164990  1
  O  O193  1  0.76379585  0.49760082  0.37369444  1
  O  O194  1  0.74497708  0.51085688  0.87626803  1
  O  O195  1  0.24347247  0.49065558  0.12165650  1
  O  O196  1  0.23874938  0.49258613  0.62653424  1
  O  O197  1  0.24756551  1.00328403  0.14411728  1
  O  O198  1  0.24305504  0.99710438  0.63084544  1
  O  O199  1  0.73885805  0.49894106  0.12325649  1
  O  O200  1  0.74124974  0.48796078  0.61831361  1
  O  O201  1  0.74260720  1.00056004  0.13400498  1
  O  O202  1  0.74830934  1.00148620  0.62873272  1
  O  O203  1  0.00908763  0.36605553  0.24716148  1
  O  O204  1  0.01284097  0.36333140  0.74427137  1
  O  O205  1  -0.00335976  0.86020275  0.26022342  1
  O  O206  1  0.00694268  0.86345624  0.75765543  1
  O  O207  1  0.50104618  0.36643903  0.25873002  1
  O  O208  1  0.51019068  0.37941779  0.76059751  1
  O  O209  1  0.50627943  0.86820397  0.25837418  1
  O  O210  1  0.49980828  0.86412390  0.75715312  1
  O  O211  1  0.48227162  0.13328147  0.25564796  1
  O  O212  1  0.49600564  0.12208998  0.73899948  1
  O  O213  1  0.48990319  0.63186660  0.24998059  1
  O  O214  1  0.49321709  0.63648748  0.75061409  1
  O  O215  1  0.99193636  0.12901859  0.24785043  1
  O  O216  1  1.00562064  0.13639398  0.75172624  1
  O  O217  1  0.99156890  0.63306670  0.24462957  1
  O  O218  1  1.00067702  0.63717407  0.74841422  1
  O  O219  1  0.36647922  0.24537988  0.01116603  1
  O  O220  1  0.37716515  0.26204212  0.50558495  1
  O  O221  1  0.37018426  0.75556647  0.00681398  1
  O  O222  1  0.37202992  0.75560029  0.50505380  1
  O  O223  1  0.87683936  0.26726554  -0.01018623  1
  O  O224  1  0.87269361  0.25781540  0.50285384  1
  O  O225  1  0.87624218  0.74150104  0.01558657  1
  O  O226  1  0.88066450  0.74622546  0.51193119  1
  O  O227  1  0.12111991  0.23826727  0.50260765  1
  O  O228  1  0.12909014  0.24450185  0.99527813  1
  O  O229  1  0.13081741  0.74341379  0.49416031  1
  O  O230  1  0.13313803  0.74112851  0.99669451  1
  O  O231  1  0.63257823  0.25995246  0.50104379  1
  O  O232  1  0.62491405  0.24115424  0.98671208  1
  O  O233  1  0.61977012  0.75073831  0.48584223  1
  O  O234  1  0.62024768  0.74089966  0.98623751  1
  O  O235  1  0.49131525  0.24736085  0.12980965  1
  O  O236  1  0.48425277  0.24451461  0.62414620  1
  O  O237  1  0.49001440  0.74636157  0.12982882  1
  O  O238  1  0.49664301  0.75127645  0.63312485  1
  O  O239  1  1.00299825  0.23415842  0.13933245  1
  O  O240  1  0.99404030  0.24429118  0.63833366  1
  O  O241  1  0.99066772  0.73886164  0.13211853  1
  O  O242  1  0.99529583  0.75032860  0.63237778  1
  O  O243  1  -0.00358251  0.24955887  0.35850439  1
  O  O244  1  0.01039263  0.24651593  0.86630665  1
  O  O245  1  0.00641452  0.75366232  0.36894699  1
  O  O246  1  0.00244950  0.75404237  0.86794072  1
  O  O247  1  0.49125913  0.26034561  0.36562262  1
  O  O248  1  0.50937184  0.25961757  0.87626376  1
  O  O249  1  0.50568437  0.75544340  0.36923273  1
  O  O250  1  0.50597511  0.75882339  0.86829426  1
  O  O251  1  0.24076214  0.12290515  0.48498242  1
  O  O252  1  0.24079197  0.13781482  1.00158044  1
  O  O253  1  0.24698828  0.62973301  0.49361993  1
  O  O254  1  0.24462692  0.63740868  1.00038466  1
  O  O255  1  0.74443527  0.14259551  0.48932790  1
  O  O256  1  0.73946884  0.12483992  0.98795057  1
  O  O257  1  0.74751244  0.63223222  0.49467197  1
  O  O258  1  0.73929618  0.62980518  0.98902284  1
  O  O259  1  0.24318576  0.36289022  0.01096393  1
  O  O260  1  0.25732587  0.37808263  0.51329961  1
  O  O261  1  0.25960502  0.86193764  -0.00389387  1
  O  O262  1  0.25640766  0.87124822  0.50500241  1
  O  O263  1  0.75755864  0.37549448  0.01217456  1
  O  O264  1  0.75612098  0.36508206  0.50613949  1
  O  O265  1  0.73899617  0.86583239  0.00585489  1
  O  O266  1  0.74409154  0.87285324  0.51638171  1
  O  O267  1  0.12288886  0.49497967  0.23900610  1
  O  O268  1  0.12426201  0.49246887  0.74310863  1
  O  O269  1  0.13924475  1.00143649  0.25385101  1
  O  O270  1  0.13086251  0.99583993  0.74417755  1
  O  O271  1  0.62647160  0.49568726  0.24067657  1
  O  O272  1  0.62169344  0.49094357  0.73904600  1
  O  O273  1  0.63608217  0.98986558  0.25321030  1
  O  O274  1  0.61979434  0.99985240  0.73497744  1
  O  O275  1  0.36499294  0.00761734  0.25633929  1
  O  O276  1  0.36443113  -0.00590652  0.75951921  1
  O  O277  1  0.38260874  0.50723669  0.26058929  1
  O  O278  1  0.37514184  0.51220025  0.74822465  1
  O  O279  1  0.86332390  0.00537271  0.25628547  1
  O  O280  1  0.87424068  0.00255063  0.75170445  1
  O  O281  1  0.87773710  0.50413210  0.25715965  1
  O  O282  1  0.88158490  0.49853131  0.77013763  1
  O  O283  1  0.12577375  0.38304260  0.36031469  1
  O  O284  1  0.12858781  0.36564077  0.86695231  1
  O  O285  1  0.12017779  0.86191464  0.37894106  1
  O  O286  1  0.11700563  0.87026310  0.87070644  1
  O  O287  1  0.61318649  0.38152679  0.37404030  1
  O  O288  1  0.62230412  0.36895319  0.87008044  1
  O  O289  1  0.62151733  0.86895783  0.36503234  1
  O  O290  1  0.61792544  0.86902829  0.87185524  1
  O  O291  1  0.37213322  0.13285596  0.13291508  1
  O  O292  1  0.37751777  0.13900685  0.62176813  1
  O  O293  1  0.37758178  0.63129363  0.13308807  1
  O  O294  1  0.37765035  0.63268473  0.63252581  1
  O  O295  1  0.88190339  0.11964635  0.13547178  1
  O  O296  1  0.85798419  0.11563136  0.63408377  1
  O  O297  1  0.88041297  0.62700089  0.13019663  1
  O  O298  1  0.87775677  0.63078947  0.62863844  1
  O  O299  1  0.25575499  0.25786062  0.11986045  1
  O  O300  1  0.26072348  0.25571867  0.62677829  1
  O  O301  1  0.26436903  0.75128346  0.11953687  1
  O  O302  1  0.25512161  0.75646855  0.61916277  1
  O  O303  1  0.75067565  0.25907884  0.12345280  1
  O  O304  1  0.75171872  0.25593197  0.61306637  1
  O  O305  1  0.76686579  0.74724040  0.12727314  1
  O  O306  1  0.75957865  0.75583673  0.62280155  1
  O  O307  1  0.25366153  0.23836238  0.37129964  1
  O  O308  1  0.24100876  0.24920113  0.88394184  1
  O  O309  1  0.24408379  0.74465341  0.38095959  1
  O  O310  1  0.24313247  0.74933302  0.88316640  1
  O  O311  1  0.74850173  0.24697662  0.38621489  1
  O  O312  1  0.74300288  0.23926733  0.86817225  1
  O  O313  1  0.74138166  0.75041093  0.37463745  1
  O  O314  1  0.74336914  0.74212839  0.87231600  1
  O  O315  1  0.01018323  0.12838453  0.01030869  1
  O  O316  1  0.01344445  0.12217341  0.49063621  1
  O  O317  1  0.01076576  0.63034165  0.00963828  1
  O  O318  1  0.00850716  0.61472993  0.50228437  1
  O  O319  1  0.51373252  0.12758923  -0.00369747  1
  O  O320  1  0.49342505  0.11628918  0.50610010  1
  O  O321  1  0.51254263  0.61813079  -0.00145208  1
  O  O322  1  0.50142599  0.61112039  0.50229040  1
  O  O323  1  0.49254416  0.38235009  0.49485609  1
  O  O324  1  0.50640941  0.38231851  0.98920792  1
  O  O325  1  0.49471289  0.88623768  0.49557200  1
  O  O326  1  0.49013758  0.87143713  0.99019647  1
  O  O327  1  0.99301735  0.37741098  0.49881291  1
  O  O328  1  0.98632814  0.37443812  1.01379455  1
  O  O329  1  1.00375213  0.87724724  0.48582224  1
  O  O330  1  0.99754607  0.86742360  0.98496228  1
  O  O331  1  0.49112922  0.49257531  0.38279525  1
  O  O332  1  0.49892402  0.49033534  0.88311520  1
  O  O333  1  0.49323080  0.99785213  0.38153324  1
  O  O334  1  0.49283141  0.98837952  0.86696384  1
  O  O335  1  0.99066161  0.49581312  0.38052718  1
  O  O336  1  0.99407401  0.50413505  0.88179921  1
  O  O337  1  0.99095356  0.98999368  0.36960897  1
  O  O338  1  0.98438232  0.99205204  0.87238499  1
  O  O339  1  0.00512200  0.01273445  0.13523383  1
  O  O340  1  0.01355050  -0.00551433  0.62467763  1
  O  O341  1  0.00702673  0.51100668  0.12982849  1
  O  O342  1  0.01140469  0.49724465  0.62075132  1
  O  O343  1  0.50932740  0.01073524  0.14185852  1
  O  O344  1  0.50440927  0.00818630  0.61856333  1
  O  O345  1  0.51273305  0.49758988  0.11792522  1
  O  O346  1  0.50694996  0.49871856  0.61795718  1
  O  O347  1  0.24318867  0.37153179  0.23906299  1
  O  O348  1  0.23808834  0.37601276  0.73848749  1
  O  O349  1  0.25272190  0.88380505  0.25456697  1
  O  O350  1  0.24387381  0.88227472  0.74506031  1
  O  O351  1  0.75061542  0.37539578  0.23475252  1
  O  O352  1  0.74589155  0.36885906  0.73870443  1
  O  O353  1  0.74320282  0.88281092  0.24474813  1
  O  O354  1  0.74644280  0.87314756  0.73363891  1
  O  O355  1  0.25512800  0.12108683  0.25976349  1
  O  O356  1  0.24427600  0.11413055  0.75156774  1
  O  O357  1  0.26654420  0.62848188  0.26099602  1
  O  O358  1  0.26047521  0.62405803  0.75189131  1
  O  O359  1  0.75404804  0.12080788  0.25270012  1
  O  O360  1  0.74777503  0.12321025  0.75670870  1
  O  O361  1  0.76392122  0.62005238  0.25273639  1
  O  O362  1  0.75129101  0.62595278  0.76420422  1
  O  O363  1  0.36214228  0.12149047  0.37070617  1
  O  O364  1  0.37350365  0.11109977  0.88247479  1
  O  O365  1  0.37225982  0.61688069  0.37097457  1
  O  O366  1  0.37531056  0.62441661  0.86536322  1
  O  O367  1  0.86361260  0.11772181  0.36493462  1
  O  O368  1  0.86942057  0.11247154  0.88112574  1
  O  O369  1  0.87721433  0.61521408  0.36609089  1
  O  O370  1  0.86452770  0.61232939  0.87663838  1
  O  O371  1  0.13136194  0.38357569  0.13259319  1
  O  O372  1  0.13096141  0.37902727  0.62895918  1
  O  O373  1  0.11930765  0.87107061  0.12671571  1
  O  O374  1  0.13184989  0.88278963  0.62907115  1
  O  O375  1  0.63737128  0.37889415  0.12305665  1
  O  O376  1  0.62990415  0.37882831  0.63413295  1
  O  O377  1  0.62226344  0.87145522  0.13821703  1
  O  O378  1  0.63151047  0.88684518  0.62877028  1
  O  O379  1  0.11935305  0.26034347  0.24654547  1
  O  O380  1  0.11775528  0.25391015  0.75713710  1
  O  O381  1  0.11745184  0.74550657  0.25974303  1
  O  O382  1  0.11937478  0.75518178  0.75507147  1
  O  O383  1  0.60900450  0.24876042  0.24415577  1
  O  O384  1  0.62563632  0.26304243  0.75950255  1
  O  O385  1  0.62185343  0.75362148  0.25746465  1
  O  O386  1  0.61711163  0.75000379  0.75998291  1
  O  O387  1  0.38010245  0.24384983  0.23904166  1
  O  O388  1  0.37046954  0.25105781  0.74054220  1
  O  O389  1  0.37971003  0.74475052  0.24371648  1
  O  O390  1  0.38105399  0.74468779  0.74634365  1
  O  O391  1  0.87858946  0.23927910  0.25207815  1
  O  O392  1  0.89026698  0.25192008  0.75142398  1
  O  O393  1  0.88242033  0.74013198  0.24266252  1
  O  O394  1  0.88376425  0.74610590  0.74131134  1
  O  O395  1  0.38235887  0.49073440  0.49684481  1
  O  O396  1  0.39112973  0.50756910  1.00304200  1
  O  O397  1  0.37974190  0.99718407  0.49578997  1
  O  O398  1  0.36516237  0.98922468  0.99465319  1
  O  O399  1  0.87976623  0.48838612  0.49467421  1
  O  O400  1  0.87155231  0.49252255  0.98583716  1
  O  O401  1  0.87864499  1.00287922  0.48247060  1
  O  O402  1  0.87032956  0.99775471  0.99313229  1
  O  O403  1  0.13494161  0.01074913  0.00218755  1
  O  O404  1  0.12244227  0.00756580  0.50716019  1
  O  O405  1  0.13127521  0.51189128  0.01024043  1
  O  O406  1  0.12096607  0.50222196  0.50659142  1
  O  O407  1  0.62582374  0.01405936  -0.00553043  1
  O  O408  1  0.61492999  -0.00239868  0.51098381  1
  O  O409  1  0.61798995  0.50646243  0.00533282  1
  O  O410  1  0.61677417  0.49802085  0.51129421  1
  O  O411  1  0.36623740  0.36821649  0.12997152  1
  O  O412  1  0.36857535  0.36564418  0.62176481  1
  O  O413  1  0.38066489  0.86794769  0.11624795  1
  O  O414  1  0.37051900  0.87076783  0.62144698  1
  O  O415  1  0.86263390  0.38076180  0.11333485  1
  O  O416  1  0.86786358  0.37408198  0.61814782  1
  O  O417  1  0.87817571  0.85873559  0.13154845  1
  O  O418  1  0.86911848  0.86466013  0.62677751  1
  O  O419  1  0.13571996  0.12328628  0.38462971  1
  O  O420  1  0.12694793  0.13111318  0.88556928  1
  O  O421  1  0.13023953  0.63155062  0.37910698  1
  O  O422  1  0.12655718  0.63173879  0.88369396  1
  O  O423  1  0.63465158  0.12082606  0.36479214  1
  O  O424  1  0.63112804  0.13062630  0.88059407  1
  O  O425  1  0.62588184  0.63259830  0.37514962  1
  O  O426  1  0.63267306  0.62911251  0.87777009  1
