# generated using pymatgen
data_V85Zn86O256
_symmetry_space_group_name_H-M   'P 1'
_cell_length_a   16.94932984
_cell_length_b   16.96489712
_cell_length_c   16.97144988
_cell_angle_alpha   89.97024781
_cell_angle_beta   90.07603029
_cell_angle_gamma   89.99802075
_symmetry_Int_Tables_number   1
_chemical_formula_structural   V85Zn86O256
_chemical_formula_sum   'V85 Zn86 O256'
_cell_volume   4880.02746551
_cell_formula_units_Z   1
loop_
 _symmetry_equiv_pos_site_id
 _symmetry_equiv_pos_as_xyz
  1  'x, y, z'
loop_
 _atom_site_type_symbol
 _atom_site_label
 _atom_site_symmetry_multiplicity
 _atom_site_fract_x
 _atom_site_fract_y
 _atom_site_fract_z
 _atom_site_occupancy
  V  V0  1  0.63555255  0.48864785  0.11884156  1
  V  V1  1  0.26038254  0.75802945  -0.00165820  1
  V  V2  1  0.49216809  0.00417340  0.00026818  1
  V  V3  1  0.50234770  0.61976184  0.61826558  1
  V  V4  1  0.00823068  0.12031646  0.62668352  1
  V  V5  1  0.88056195  0.87756842  0.00243397  1
  V  V6  1  0.75072295  0.00194376  0.25053837  1
  V  V7  1  0.74892371  0.50151729  0.74918528  1
  V  V8  1  0.37368057  0.12335374  0.74974329  1
  V  V9  1  0.39395044  0.62566232  0.24841335  1
  V  V10  1  0.13881683  0.87356254  0.23908890  1
  V  V11  1  0.87198624  0.87508521  0.49980089  1
  V  V12  1  0.26028958  0.25021449  0.00849566  1
  V  V13  1  0.00712461  -0.00218442  0.50485598  1
  V  V14  1  0.00113315  0.36767125  0.36692240  1
  V  V15  1  0.74491875  0.24988986  0.49685363  1
  V  V16  1  0.11892625  0.12437400  -0.00592869  1
  V  V17  1  0.12420462  0.62238925  0.50109849  1
  V  V18  1  -0.00233083  0.87448665  0.37362829  1
  V  V19  1  0.37035417  -0.00479168  0.87351656  1
  V  V20  1  0.12697424  0.74645841  0.87272897  1
  V  V21  1  0.88154694  0.75006184  0.62968452  1
  V  V22  1  0.88659075  0.12827628  0.25100384  1
  V  V23  1  0.00187028  0.62573118  0.12199366  1
  V  V24  1  0.38681536  0.37839417  0.50009752  1
  V  V25  1  0.36333753  0.61784379  0.75049604  1
  V  V26  1  0.74462828  0.62204665  0.37775771  1
  V  V27  1  0.62523053  0.12621224  0.00019892  1
  V  V28  1  0.00656987  0.37066408  0.87702249  1
  V  V29  1  0.75213994  0.37469723  0.62623724  1
  V  V30  1  0.50177858  0.49065311  0.00002735  1
  V  V31  1  0.13988323  0.62497326  -0.00143974  1
  V  V32  1  0.25098249  0.37898445  0.62750190  1
  V  V33  1  0.37414145  0.75106882  0.62685314  1
  V  V34  1  0.87402421  0.37645078  0.00334330  1
  V  V35  1  0.61606388  0.86767573  0.25450435  1
  V  V36  1  0.36868754  0.12262548  0.25372638  1
  V  V37  1  0.87599290  0.37321818  0.50123662  1
  V  V38  1  0.63862996  0.37347265  0.25443177  1
  V  V39  1  0.24917652  0.62079430  0.37244224  1
  V  V40  1  0.62697873  0.25091408  0.87412721  1
  V  V41  1  0.50098040  0.12037158  0.62301374  1
  V  V42  1  0.49775185  0.26209466  0.26671807  1
  V  V43  1  0.38833906  0.49456588  0.37886023  1
  V  V44  1  0.00154698  0.11225257  0.12352229  1
  V  V45  1  0.75061936  0.25418996  0.00820428  1
  V  V46  1  0.24732476  0.74967026  0.50196965  1
  V  V47  1  0.13007455  0.24507406  0.36986820  1
  V  V48  1  0.36257542  0.49744829  0.87585981  1
  V  V49  1  0.01070646  0.25039539  0.75264752  1
  V  V50  1  0.74583170  0.13184391  0.37197584  1
  V  V51  1  0.24584077  0.88204792  0.62860175  1
  V  V52  1  0.49704768  0.87541414  0.87713018  1
  V  V53  1  0.12875618  0.50044763  0.63592777  1
  V  V54  1  -0.00268308  0.75141602  0.24889421  1
  V  V55  1  0.88627756  0.25156737  0.12708681  1
  V  V56  1  0.62290093  0.74963048  0.87313755  1
  V  V57  1  0.62244568  0.50236258  0.61214587  1
  V  V58  1  0.87297682  0.49910508  0.37141740  1
  V  V59  1  0.57056944  0.67337336  0.05430259  1
  V  V60  1  0.74409742  0.62452343  0.87374737  1
  V  V61  1  0.00126607  0.50054871  -0.00074920  1
  V  V62  1  0.62627306  0.37714354  0.75023377  1
  V  V63  1  0.87644684  0.12691060  0.74912671  1
  V  V64  1  0.74389081  0.74637632  0.49971631  1
  V  V65  1  0.88097963  0.62768089  0.75148676  1
  V  V66  1  0.37420571  0.88146251  0.48744066  1
  V  V67  1  0.24683243  0.13297162  0.87426103  1
  V  V68  1  0.62626200  -0.00032289  0.61893310  1
  V  V69  1  0.11918202  0.87744747  0.74818737  1
  V  V70  1  0.62355008  0.00307704  0.12377431  1
  V  V71  1  0.24617074  0.49739954  0.24937054  1
  V  V72  1  0.74547357  0.87496845  0.12291670  1
  V  V73  1  0.75035373  0.87461581  0.62548035  1
  V  V74  1  0.00149341  0.49900101  0.50258194  1
  V  V75  1  0.88014321  0.00073203  0.88005903  1
  V  V76  1  0.75137488  0.74586786  -0.00001546  1
  V  V77  1  -0.00077520  0.86876004  0.87323255  1
  V  V78  1  0.62405376  0.87650463  0.74638405  1
  V  V79  1  0.75179410  0.12467153  0.87612776  1
  V  V80  1  0.50162934  0.24952810  0.75001626  1
  V  V81  1  0.37406259  0.25100975  0.62388843  1
  V  V82  1  0.49443963  0.14328822  0.12421794  1
  V  V83  1  0.12307115  0.74748178  0.37276980  1
  V  V84  1  0.87103423  0.62226063  0.24962405  1
  Zn  Zn85  1  0.24162726  0.00257272  0.74990369  1
  Zn  Zn86  1  0.27361076  0.09336648  0.38935991  1
  Zn  Zn87  1  0.13365420  0.37640682  0.75665492  1
  Zn  Zn88  1  0.38042693  0.74151406  0.12894594  1
  Zn  Zn89  1  0.87437631  0.49946733  0.87462293  1
  Zn  Zn90  1  0.87266834  0.75142149  0.12649118  1
  Zn  Zn91  1  0.60820009  0.73702152  0.36182528  1
  Zn  Zn92  1  0.28409972  0.88273261  0.11884689  1
  Zn  Zn93  1  0.87722102  0.24903242  0.62512053  1
  Zn  Zn94  1  0.49525998  0.37577369  0.87327677  1
  Zn  Zn95  1  0.12385541  0.49252360  0.12594154  1
  Zn  Zn96  1  0.14044730  -0.00124053  0.12200020  1
  Zn  Zn97  1  0.24912406  0.24878440  0.49873643  1
  Zn  Zn98  1  0.12365919  0.36987731  0.24326572  1
  Zn  Zn99  1  0.87523306  0.00254804  0.37729857  1
  Zn  Zn100  1  0.00253848  0.62625658  0.63140506  1
  Zn  Zn101  1  0.49929786  0.74801900  0.74712407  1
  Zn  Zn102  1  0.75093914  0.00070455  0.75121783  1
  Zn  Zn103  1  0.25791547  0.36460953  0.12719278  1
  Zn  Zn104  1  0.61824251  0.12978273  0.49126974  1
  Zn  Zn105  1  0.12936988  0.12522441  0.50200046  1
  Zn  Zn106  1  0.47281483  0.01247637  0.46741512  1
  Zn  Zn107  1  0.18464637  0.18717385  0.18735041  1
  Zn  Zn108  1  0.18882556  0.19023678  0.68612058  1
  Zn  Zn109  1  0.19277039  0.68831075  0.18157379  1
  Zn  Zn110  1  0.18508653  0.69129594  0.68898955  1
  Zn  Zn111  1  0.68701000  0.19301591  0.18845380  1
  Zn  Zn112  1  0.68972103  0.18793640  0.68507578  1
  Zn  Zn113  1  0.69108152  0.68604837  0.19059768  1
  Zn  Zn114  1  0.68668480  0.68883460  0.68481642  1
  Zn  Zn115  1  0.31405736  0.31262776  0.31166674  1
  Zn  Zn116  1  0.31218680  0.31395230  0.81204485  1
  Zn  Zn117  1  0.31427536  0.80474321  0.31192468  1
  Zn  Zn118  1  0.30874725  0.80963709  0.81209248  1
  Zn  Zn119  1  0.81462323  0.31155320  0.31046361  1
  Zn  Zn120  1  0.81648673  0.31181798  0.81677741  1
  Zn  Zn121  1  0.80629946  0.81221809  0.31470793  1
  Zn  Zn122  1  0.81179987  0.81197762  0.81194730  1
  Zn  Zn123  1  0.18960073  0.43317678  0.44065663  1
  Zn  Zn124  1  0.18652129  0.43447833  0.94272464  1
  Zn  Zn125  1  0.18758607  0.93273395  0.43838043  1
  Zn  Zn126  1  0.18664457  0.93969526  0.94097944  1
  Zn  Zn127  1  0.68941848  0.43559870  0.43506956  1
  Zn  Zn128  1  0.68716132  0.43742726  0.93754037  1
  Zn  Zn129  1  0.64745401  0.96070350  0.41247457  1
  Zn  Zn130  1  0.68718249  0.93764676  0.93706731  1
  Zn  Zn131  1  0.31205664  0.06749153  0.06652544  1
  Zn  Zn132  1  0.30802698  0.06274708  0.56620501  1
  Zn  Zn133  1  0.33236779  0.53039388  0.08064982  1
  Zn  Zn134  1  0.31297604  0.56109080  0.56170528  1
  Zn  Zn135  1  0.81330635  0.06375269  0.06342346  1
  Zn  Zn136  1  0.81364898  0.06180320  0.56209209  1
  Zn  Zn137  1  0.81445395  0.56435925  0.06079256  1
  Zn  Zn138  1  0.81312729  0.56228421  0.56265551  1
  Zn  Zn139  1  0.43813957  0.43447095  0.18446177  1
  Zn  Zn140  1  0.43732710  0.43906989  0.68945511  1
  Zn  Zn141  1  0.43424622  0.94502032  0.19662592  1
  Zn  Zn142  1  0.43682059  0.93670404  0.68668559  1
  Zn  Zn143  1  0.93568814  0.43936236  0.18564520  1
  Zn  Zn144  1  0.93872683  0.43860160  0.68979177  1
  Zn  Zn145  1  0.93579361  0.93833788  0.18748069  1
  Zn  Zn146  1  0.93811700  0.93858024  0.69119419  1
  Zn  Zn147  1  0.09778093  0.04103980  0.33010755  1
  Zn  Zn148  1  0.06030987  0.05805762  0.81667302  1
  Zn  Zn149  1  0.06044425  0.55953743  0.31214823  1
  Zn  Zn150  1  0.06246891  0.56172654  0.81805430  1
  Zn  Zn151  1  0.56144295  0.07301451  0.30468903  1
  Zn  Zn152  1  0.56291065  0.06184424  0.81081789  1
  Zn  Zn153  1  0.56813341  0.54720711  0.30895011  1
  Zn  Zn154  1  0.55657547  0.56312616  0.80762787  1
  Zn  Zn155  1  0.43785432  0.19553973  0.43737842  1
  Zn  Zn156  1  0.43599853  0.18754456  0.93389437  1
  Zn  Zn157  1  0.43420249  0.68273599  0.43553517  1
  Zn  Zn158  1  0.43317277  0.68286459  0.92926420  1
  Zn  Zn159  1  0.93616248  0.18584371  0.43944195  1
  Zn  Zn160  1  0.94032797  0.18967621  0.93847036  1
  Zn  Zn161  1  0.93414583  0.68628902  0.43920097  1
  Zn  Zn162  1  0.93644189  0.68859244  0.93631169  1
  Zn  Zn163  1  0.06947867  0.30749907  0.06151667  1
  Zn  Zn164  1  0.06459028  0.31133588  0.56267847  1
  Zn  Zn165  1  0.06201635  0.80825859  0.05967560  1
  Zn  Zn166  1  0.06092994  0.81160479  0.56385200  1
  Zn  Zn167  1  0.56375510  0.31766767  0.06022658  1
  Zn  Zn168  1  0.56418900  0.31198294  0.56436364  1
  Zn  Zn169  1  0.51544958  0.84764564  0.09088378  1
  Zn  Zn170  1  0.53773788  0.79319097  0.52327859  1
  O  O171  1  0.11646328  0.12110068  0.11950259  1
  O  O172  1  0.11212241  0.12791107  0.62425264  1
  O  O173  1  0.11164834  0.63081636  0.11674216  1
  O  O174  1  0.12307837  0.61934392  0.62005518  1
  O  O175  1  0.61775583  0.12217575  0.11940960  1
  O  O176  1  0.61698744  0.11812950  0.62686164  1
  O  O177  1  0.62408390  0.61735269  0.12262001  1
  O  O178  1  0.61152888  0.61860638  0.62961203  1
  O  O179  1  0.37059759  0.38786759  0.38333274  1
  O  O180  1  0.37707459  0.39320822  0.86587794  1
  O  O181  1  0.36900174  0.86977129  0.38885267  1
  O  O182  1  0.38162560  0.88657282  0.86723761  1
  O  O183  1  0.88446289  0.38041467  0.37891561  1
  O  O184  1  0.88495502  0.37565503  0.88740571  1
  O  O185  1  0.87923154  0.87530773  0.38379000  1
  O  O186  1  0.87968877  0.87986961  0.87973344  1
  O  O187  1  0.20612553  0.01054254  0.36336174  1
  O  O188  1  0.25801757  0.00757273  0.87471795  1
  O  O189  1  0.25105250  0.50599661  0.36892140  1
  O  O190  1  0.26395151  0.49920612  0.88466532  1
  O  O191  1  0.74919558  0.00993340  0.36468860  1
  O  O192  1  0.76016036  0.00555698  0.87335329  1
  O  O193  1  0.76617476  0.50576933  0.38203185  1
  O  O194  1  0.75100324  0.50970109  0.86990578  1
  O  O195  1  0.23686153  0.52339780  0.14720345  1
  O  O196  1  0.23947689  0.49353230  0.62018671  1
  O  O197  1  0.25483146  0.99041021  0.12105397  1
  O  O198  1  0.25018309  0.98563861  0.62975157  1
  O  O199  1  0.73392629  0.50432964  0.11393644  1
  O  O200  1  0.74379340  0.49580053  0.63064304  1
  O  O201  1  0.74329761  0.99683726  0.12922461  1
  O  O202  1  0.74535025  0.99354866  0.63024535  1
  O  O203  1  -0.00070033  0.37985386  0.26493590  1
  O  O204  1  -0.00235725  0.36589788  0.75882479  1
  O  O205  1  -0.00417287  0.86141317  0.25229518  1
  O  O206  1  0.00454772  0.87379656  0.76032027  1
  O  O207  1  0.50587539  0.36516137  0.24351607  1
  O  O208  1  0.50841294  0.36619346  0.74830172  1
  O  O209  1  0.51791561  0.88188401  0.25172028  1
  O  O210  1  0.50644737  0.87423293  0.75964824  1
  O  O211  1  0.50029766  0.14467304  0.24116246  1
  O  O212  1  0.49557383  0.13115867  0.74411791  1
  O  O213  1  0.49222055  0.62147682  0.25932642  1
  O  O214  1  0.48822190  0.62940321  0.73891007  1
  O  O215  1  0.98763995  0.11853872  0.24198124  1
  O  O216  1  0.99615403  0.12968666  0.74655059  1
  O  O217  1  0.99401266  0.63370859  0.24458442  1
  O  O218  1  0.98469900  0.61978562  0.75239103  1
  O  O219  1  0.35994600  0.24256221  -0.00301910  1
  O  O220  1  0.37361749  0.26003183  0.50750068  1
  O  O221  1  0.36194382  0.74016044  -0.00211413  1
  O  O222  1  0.36564041  0.75898612  0.51135218  1
  O  O223  1  0.87001216  0.25616878  0.00597992  1
  O  O224  1  0.86824727  0.25797997  0.50320955  1
  O  O225  1  0.86621649  0.75918199  -0.00004675  1
  O  O226  1  0.87001514  0.75633365  0.50749859  1
  O  O227  1  0.12574004  0.24983743  0.48874749  1
  O  O228  1  0.13494845  0.23043357  1.00208930  1
  O  O229  1  0.12740322  0.74250690  0.49480212  1
  O  O230  1  0.13336004  0.74474973  0.99208884  1
  O  O231  1  0.64010531  0.24820741  0.50656088  1
  O  O232  1  0.63363473  0.24760090  0.99503279  1
  O  O233  1  0.64501623  0.75302766  0.51262285  1
  O  O234  1  0.63037171  0.73938950  0.99656666  1
  O  O235  1  0.50044843  0.24435293  0.11998822  1
  O  O236  1  0.49654240  0.23829321  0.63006727  1
  O  O237  1  0.50751257  0.73313436  0.10651964  1
  O  O238  1  0.48966349  0.74020819  0.62194721  1
  O  O239  1  0.98977457  0.23852510  0.11845154  1
  O  O240  1  0.99671948  0.24365324  0.63450550  1
  O  O241  1  0.99434957  0.74310326  0.13165888  1
  O  O242  1  0.98604401  0.74503137  0.62080211  1
  O  O243  1  0.00125772  0.26514221  0.38113486  1
  O  O244  1  -0.00369313  0.25861245  0.86622020  1
  O  O245  1  0.00320924  0.75202265  0.36790534  1
  O  O246  1  0.00771788  0.76143836  0.88125950  1
  O  O247  1  0.50677066  0.25497355  0.36480261  1
  O  O248  1  0.50724597  0.25131241  0.86773657  1
  O  O249  1  0.51371445  0.75519831  0.41641554  1
  O  O250  1  0.50433217  0.75929839  0.87387804  1
  O  O251  1  0.24709171  0.12843806  0.49772284  1
  O  O252  1  0.24396259  0.13212256  0.99214333  1
  O  O253  1  0.24550758  0.62863036  0.49040932  1
  O  O254  1  0.23952077  0.63261876  1.00723736  1
  O  O255  1  0.75389742  0.13348962  0.49085441  1
  O  O256  1  0.74491681  0.13160334  0.99459950  1
  O  O257  1  0.75952098  0.63302021  0.48926390  1
  O  O258  1  0.75769037  0.63764805  0.98935580  1
  O  O259  1  0.24338830  0.35143686  -0.00481804  1
  O  O260  1  0.25895488  0.37324327  0.51222534  1
  O  O261  1  0.25083952  0.86124876  -0.00065288  1
  O  O262  1  0.25351065  0.86966334  0.50889196  1
  O  O263  1  0.76133156  0.36553690  -0.00697622  1
  O  O264  1  0.75643222  0.36846692  0.50413824  1
  O  O265  1  0.75371437  0.86472456  0.00297354  1
  O  O266  1  0.76411485  0.86754557  0.50755788  1
  O  O267  1  0.13104616  0.49380444  0.25276210  1
  O  O268  1  0.11905230  0.49966007  0.73902139  1
  O  O269  1  0.11227756  0.97449816  0.23738555  1
  O  O270  1  0.12388196  0.98283202  0.75665048  1
  O  O271  1  0.61971535  0.48573218  0.22879289  1
  O  O272  1  0.63189283  0.49374715  0.74428611  1
  O  O273  1  0.63761619  0.99599669  0.24231993  1
  O  O274  1  0.62704499  0.99117262  0.74365151  1
  O  O275  1  0.38480278  0.02294242  0.25816629  1
  O  O276  1  0.37282304  0.00702334  0.75716800  1
  O  O277  1  0.36806239  0.50950105  0.26483484  1
  O  O278  1  0.37648980  0.51019680  0.75956291  1
  O  O279  1  0.86385369  0.00716082  0.25048065  1
  O  O280  1  0.87489223  0.01170018  0.75962055  1
  O  O281  1  0.88180715  0.50927423  0.25952253  1
  O  O282  1  0.86588405  0.50800545  0.75144575  1
  O  O283  1  0.11254853  0.36676421  0.37652948  1
  O  O284  1  0.11147018  0.38132309  0.87288786  1
  O  O285  1  0.11700095  0.86374628  0.36150762  1
  O  O286  1  0.11631504  0.86927427  0.87311103  1
  O  O287  1  0.62781792  0.38755819  0.35366156  1
  O  O288  1  0.62637822  0.36758681  0.86515626  1
  O  O289  1  0.64402101  0.86304055  0.35490449  1
  O  O290  1  0.61862638  0.87125483  0.86693190  1
  O  O291  1  0.38713177  0.12468656  0.13760232  1
  O  O292  1  0.38208884  0.12748576  0.63115596  1
  O  O293  1  0.37814146  0.62006907  0.14532625  1
  O  O294  1  0.37906493  0.62800024  0.63298042  1
  O  O295  1  0.88189475  0.13085080  0.12890185  1
  O  O296  1  0.88271386  0.12540493  0.63589803  1
  O  O297  1  0.88447808  0.62530357  0.13249367  1
  O  O298  1  0.87529398  0.63164006  0.63435980  1
  O  O299  1  0.25254045  0.24635411  0.11335791  1
  O  O300  1  0.25880646  0.25696894  0.62308713  1
  O  O301  1  0.25731946  0.75494220  0.11129010  1
  O  O302  1  0.25539124  0.75632825  0.62011146  1
  O  O303  1  0.76149979  0.24216148  0.11155682  1
  O  O304  1  0.75541222  0.25751466  0.61932676  1
  O  O305  1  0.75112190  0.75349988  0.11527126  1
  O  O306  1  0.76139732  0.75457971  0.62089677  1
  O  O307  1  0.23478622  0.25398318  0.37669716  1
  O  O308  1  0.25421716  0.23639861  0.87716340  1
  O  O309  1  0.24274285  0.74121448  0.38214228  1
  O  O310  1  0.24200830  0.75163840  0.88719920  1
  O  O311  1  0.75904901  0.24458243  0.38539563  1
  O  O312  1  0.74773724  0.24314275  0.88447202  1
  O  O313  1  0.75011743  0.73829894  0.38430980  1
  O  O314  1  0.74219756  0.74699275  0.88168486  1
  O  O315  1  0.01159342  0.12720307  0.00460172  1
  O  O316  1  -0.00378874  0.11491703  0.51053529  1
  O  O317  1  0.00102999  0.62087516  0.00735176  1
  O  O318  1  0.00255979  0.61166346  0.50024598  1
  O  O319  1  0.50533522  0.12240638  0.00483206  1
  O  O320  1  0.49953663  0.12314310  0.50782464  1
  O  O321  1  0.51157791  0.61863630  -0.00879064  1
  O  O322  1  0.48698402  0.61859571  0.52031932  1
  O  O323  1  0.48673955  0.37415787  0.50937646  1
  O  O324  1  0.49957797  0.38689823  0.99337461  1
  O  O325  1  0.47441677  0.88974875  0.51324154  1
  O  O326  1  0.50536327  0.88978567  0.98417919  1
  O  O327  1  0.99602827  0.38435614  0.49396205  1
  O  O328  1  0.99682617  0.37803737  0.99468641  1
  O  O329  1  0.99062916  0.87846710  0.49744237  1
  O  O330  1  0.98639367  0.87039641  0.99465530  1
  O  O331  1  0.48677209  0.50055838  0.37673226  1
  O  O332  1  0.50040284  0.49797549  0.88351947  1
  O  O333  1  0.54171776  0.99918653  0.38349506  1
  O  O334  1  0.49283173  0.99665709  0.87922456  1
  O  O335  1  0.99252534  0.49175635  0.38302731  1
  O  O336  1  0.99487885  0.49295936  0.88366841  1
  O  O337  1  1.00035183  0.99021990  0.38428490  1
  O  O338  1  0.98698597  0.98824613  0.87545215  1
  O  O339  1  -0.00410231  0.01083264  0.12137165  1
  O  O340  1  -0.00709244  0.00892094  0.61896713  1
  O  O341  1  0.00289098  0.50871126  0.11864755  1
  O  O342  1  0.00736540  0.50104978  0.61743063  1
  O  O343  1  0.50485671  0.00822282  0.11526490  1
  O  O344  1  0.50739889  0.01181005  0.62998445  1
  O  O345  1  0.50974349  0.50018328  0.10544497  1
  O  O346  1  0.50868820  0.51073087  0.63239552  1
  O  O347  1  0.24894340  0.38490720  0.24927452  1
  O  O348  1  0.24917277  0.37051175  0.73475642  1
  O  O349  1  0.24060041  0.86490977  0.24491226  1
  O  O350  1  0.24011156  0.87481483  0.74386506  1
  O  O351  1  0.73863137  0.36873006  0.24684333  1
  O  O352  1  0.74765662  0.38025050  0.74689452  1
  O  O353  1  0.74898556  0.88365986  0.23952023  1
  O  O354  1  0.74188026  0.87654602  0.74459898  1
  O  O355  1  0.26783156  0.13504941  0.25020613  1
  O  O356  1  0.25312197  0.12289367  0.75594964  1
  O  O357  1  0.24939087  0.62409784  0.26468678  1
  O  O358  1  0.26449771  0.62638510  0.74238435  1
  O  O359  1  0.75655786  0.12100309  0.25314885  1
  O  O360  1  0.75951172  0.12584321  0.75732839  1
  O  O361  1  0.76508712  0.62881682  0.25740813  1
  O  O362  1  0.75649080  0.62102594  0.75508051  1
  O  O363  1  0.37816295  0.13159792  0.36353198  1
  O  O364  1  0.36829508  0.11571063  0.86758019  1
  O  O365  1  0.36722234  0.61419608  0.37249403  1
  O  O366  1  0.37655605  0.61550449  0.85749371  1
  O  O367  1  0.86898200  0.12382230  0.36560063  1
  O  O368  1  0.87402777  0.11724888  0.87224143  1
  O  O369  1  0.87173323  0.61677232  0.36789184  1
  O  O370  1  0.86314076  0.62739633  0.86731307  1
  O  O371  1  0.13380147  0.37554500  0.12603504  1
  O  O372  1  0.13202028  0.38405535  0.62629811  1
  O  O373  1  0.12276105  0.86860692  0.13527500  1
  O  O374  1  0.13191860  0.86383101  0.63684462  1
  O  O375  1  0.63028533  0.38384785  0.12580511  1
  O  O376  1  0.63159756  0.38179202  0.63252766  1
  O  O377  1  0.62501054  0.88359637  0.13251298  1
  O  O378  1  0.62856837  0.88410324  0.63327548  1
  O  O379  1  0.12396069  0.25222220  0.26407760  1
  O  O380  1  0.11367105  0.25335173  0.74851596  1
  O  O381  1  0.11652285  0.75522639  0.25117079  1
  O  O382  1  0.12902098  0.75737140  0.76554701  1
  O  O383  1  0.61455498  0.26573532  0.24083661  1
  O  O384  1  0.62189459  0.25582671  0.75355656  1
  O  O385  1  0.62561168  0.76184454  0.24586742  1
  O  O386  1  0.62280659  0.76277904  0.75189548  1
  O  O387  1  0.39147847  0.24833236  0.25396689  1
  O  O388  1  0.38242126  0.24366640  0.74464705  1
  O  O389  1  0.37632800  0.72974437  0.25344235  1
  O  O390  1  0.37419358  0.74182114  0.74015312  1
  O  O391  1  0.87141855  0.24141182  0.23792659  1
  O  O392  1  0.88240827  0.23732492  0.75265742  1
  O  O393  1  0.88137668  0.74221417  0.25038195  1
  O  O394  1  0.86893652  0.74103442  0.74170857  1
  O  O395  1  0.36940357  0.49439669  0.48608139  1
  O  O396  1  0.39229997  0.51660387  0.98157586  1
  O  O397  1  0.36317907  0.98902417  0.49460337  1
  O  O398  1  0.38687699  1.00962870  0.98943114  1
  O  O399  1  0.88323901  0.49361765  0.49489337  1
  O  O400  1  0.88173247  0.49192951  0.99983126  1
  O  O401  1  0.88117783  0.98973874  0.49837567  1
  O  O402  1  0.86666359  0.98918306  0.99176790  1
  O  O403  1  0.13008489  0.01723878  0.00348264  1
  O  O404  1  0.10961380  -0.00333169  0.50509729  1
  O  O405  1  0.11931982  0.50957113  0.00157907  1
  O  O406  1  0.11795122  0.50396477  0.50628849  1
  O  O407  1  0.61657610  0.00786973  0.00174907  1
  O  O408  1  0.63583362  0.00838460  0.51673502  1
  O  O409  1  0.61635113  0.49649827  0.00602971  1
  O  O410  1  0.63044378  0.49529899  0.51333320  1
  O  O411  1  0.35517908  0.42124141  0.11430382  1
  O  O412  1  0.36984345  0.37367147  0.62076350  1
  O  O413  1  0.40031068  0.86036952  0.12944392  1
  O  O414  1  0.36422064  0.86622091  0.62662184  1
  O  O415  1  0.88259236  0.36698000  0.11323418  1
  O  O416  1  0.86916692  0.37606981  0.61906478  1
  O  O417  1  0.86649844  0.87467991  0.11625701  1
  O  O418  1  0.87247276  0.86816559  0.62162384  1
  O  O419  1  0.10707646  0.14474453  0.38037379  1
  O  O420  1  0.13122512  0.11985863  0.88440094  1
  O  O421  1  0.12924413  0.62797095  0.38098732  1
  O  O422  1  0.11844980  0.63494923  0.88583448  1
  O  O423  1  0.64211036  0.13256129  0.37253964  1
  O  O424  1  0.63038774  0.13065993  0.87976390  1
  O  O425  1  0.64099494  0.61950630  0.36296140  1
  O  O426  1  0.63713961  0.63329296  0.86251934  1
