# generated using pymatgen
data_V85Zn86O256
_symmetry_space_group_name_H-M   'P 1'
_cell_length_a   16.97420853
_cell_length_b   16.97610975
_cell_length_c   16.96543674
_cell_angle_alpha   90.01386334
_cell_angle_beta   89.90614310
_cell_angle_gamma   90.04792753
_symmetry_Int_Tables_number   1
_chemical_formula_structural   V85Zn86O256
_chemical_formula_sum   'V85 Zn86 O256'
_cell_volume   4888.68443352
_cell_formula_units_Z   1
loop_
 _symmetry_equiv_pos_site_id
 _symmetry_equiv_pos_as_xyz
  1  'x, y, z'
loop_
 _atom_site_type_symbol
 _atom_site_label
 _atom_site_symmetry_multiplicity
 _atom_site_fract_x
 _atom_site_fract_y
 _atom_site_fract_z
 _atom_site_occupancy
  V  V0  1  0.24874127  0.88008373  0.12404829  1
  V  V1  1  0.01029070  0.37875129  0.37082998  1
  V  V2  1  0.02705975  0.25358871  0.74081808  1
  V  V3  1  0.87465664  0.61912323  0.75066806  1
  V  V4  1  0.87167890  0.35876078  0.51126181  1
  V  V5  1  0.74968424  0.62317685  0.37266979  1
  V  V6  1  0.37866241  0.37646882  0.00151809  1
  V  V7  1  0.00566139  0.62654736  0.11642494  1
  V  V8  1  -0.00278501  0.00259388  -0.00039715  1
  V  V9  1  0.00422051  0.50090748  0.50091144  1
  V  V10  1  0.62591640  0.25545478  0.87548388  1
  V  V11  1  0.88211233  0.87495708  0.49271832  1
  V  V12  1  0.49234224  0.49839943  0.48841875  1
  V  V13  1  -0.00094651  0.74988105  0.75730465  1
  V  V14  1  0.00924313  0.36477780  0.87347738  1
  V  V15  1  0.62500137  -0.00103557  0.12878633  1
  V  V16  1  0.11587892  0.87189418  0.24844347  1
  V  V17  1  0.24998042  0.37921391  0.62249452  1
  V  V18  1  0.12210353  0.74980222  0.38338977  1
  V  V19  1  0.50494628  0.38087873  0.87555315  1
  V  V20  1  0.49994127  0.88070942  0.36427788  1
  V  V21  1  0.12473511  0.00441567  0.11937301  1
  V  V22  1  0.74708576  -0.00343570  0.75116312  1
  V  V23  1  0.62054458  0.49786333  0.12147032  1
  V  V24  1  0.62456385  -0.00206546  0.61617560  1
  V  V25  1  0.12345646  0.49490959  0.63059310  1
  V  V26  1  0.74689659  -0.00053263  0.25234300  1
  V  V27  1  0.37668969  0.25527973  0.62124057  1
  V  V28  1  0.24591019  0.49873041  0.75464446  1
  V  V29  1  0.37487438  0.00588578  0.87621363  1
  V  V30  1  0.87689156  0.62337762  0.24554987  1
  V  V31  1  0.00569207  0.62209165  0.62409400  1
  V  V32  1  0.68375368  0.32999600  0.69103907  1
  V  V33  1  -0.00130348  0.13033351  0.12140464  1
  V  V34  1  0.75323304  0.25602447  0.00095596  1
  V  V35  1  0.37639261  0.75341695  0.13250901  1
  V  V36  1  0.74830079  0.62521452  0.87763794  1
  V  V37  1  0.87282112  0.12970239  0.25123953  1
  V  V38  1  0.11928391  0.74592752  0.88002008  1
  V  V39  1  0.74899787  0.87251516  0.62144963  1
  V  V40  1  0.87643554  0.25776866  0.12080051  1
  V  V41  1  0.00203944  0.49281077  -0.00352889  1
  V  V42  1  0.62841059  0.50057519  0.62160284  1
  V  V43  1  0.74888254  0.74909516  -0.00002483  1
  V  V44  1  0.62623537  0.75638152  0.36363820  1
  V  V45  1  0.62503012  0.86878578  0.75442699  1
  V  V46  1  0.00403993  0.10516769  0.62627730  1
  V  V47  1  0.12758923  0.49868374  0.13433789  1
  V  V48  1  0.24867499  0.25331946  -0.00723957  1
  V  V49  1  0.44938373  0.79973846  0.69573000  1
  V  V50  1  0.38197187  0.62297897  0.75530126  1
  V  V51  1  0.87259774  0.74430537  0.62309621  1
  V  V52  1  0.37067949  0.12512485  0.25784483  1
  V  V53  1  0.75022370  0.13498569  0.39262678  1
  V  V54  1  0.24709281  0.37805925  0.13589431  1
  V  V55  1  0.74815315  0.12587495  0.87802267  1
  V  V56  1  0.50111269  0.25686755  0.74705633  1
  V  V57  1  0.61157935  0.75138250  0.87519128  1
  V  V58  1  0.24176604  0.74481221  0.00559905  1
  V  V59  1  0.37747226  0.49935313  0.88177196  1
  V  V60  1  0.24098778  0.61909737  0.37998240  1
  V  V61  1  0.50047664  0.12952740  0.13303877  1
  V  V62  1  0.75153268  0.37716709  0.12678088  1
  V  V63  1  0.12607945  0.13117257  -0.00846100  1
  V  V64  1  0.37329618  0.12695999  0.75021073  1
  V  V65  1  0.49685858  0.62303011  0.62524338  1
  V  V66  1  0.75093955  0.74818817  0.49656362  1
  V  V67  1  0.87651788  0.87390637  -0.00204089  1
  V  V68  1  0.37782350  0.25200882  0.13130140  1
  V  V69  1  0.87381384  0.49711688  0.37757576  1
  V  V70  1  0.87273560  0.13818639  0.74723962  1
  V  V71  1  0.36661333  0.61877330  0.24838555  1
  V  V72  1  0.37737939  0.87473544  -0.00344414  1
  V  V73  1  0.62321206  0.12699185  0.00173254  1
  V  V74  1  0.74625133  0.87394365  0.12910760  1
  V  V75  1  0.61656387  0.25152287  0.38156145  1
  V  V76  1  0.74449266  0.50029448  0.74914908  1
  V  V77  1  0.50038689  0.00416869  0.50060692  1
  V  V78  1  0.62556570  0.62381997  0.49472627  1
  V  V79  1  0.88151348  -0.00223868  0.37550352  1
  V  V80  1  0.24624897  0.00416890  0.25970901  1
  V  V81  1  0.87186895  -0.00303793  0.87483514  1
  V  V82  1  0.49983706  0.62184906  0.12148552  1
  V  V83  1  0.50119088  -0.00251516  -0.00096363  1
  V  V84  1  0.00814984  0.26013276  0.24699789  1
  Zn  Zn85  1  0.37305287  0.37577134  0.49501924  1
  Zn  Zn86  1  0.13200519  0.24548696  0.37493427  1
  Zn  Zn87  1  -0.00038168  0.75026091  0.24930381  1
  Zn  Zn88  1  0.38428343  0.86546540  0.52230989  1
  Zn  Zn89  1  0.87655480  0.74970387  0.12497455  1
  Zn  Zn90  1  0.49136500  0.36764778  0.36130277  1
  Zn  Zn91  1  0.87398358  0.49370209  0.88328038  1
  Zn  Zn92  1  0.05638449  0.93443434  0.42857500  1
  Zn  Zn93  1  0.24684628  0.24230194  0.49130385  1
  Zn  Zn94  1  0.36215602  0.49405818  0.36330598  1
  Zn  Zn95  1  0.50465942  0.75349240  0.24637003  1
  Zn  Zn96  1  0.74784957  0.49727349  0.25007510  1
  Zn  Zn97  1  0.24622298  0.13171771  0.86511925  1
  Zn  Zn98  1  0.03617991  0.90617355  0.83947420  1
  Zn  Zn99  1  0.61877013  0.36629758  0.24824522  1
  Zn  Zn100  1  0.36511830  -0.00090245  0.38349304  1
  Zn  Zn101  1  0.23059740  0.78370016  0.55274657  1
  Zn  Zn102  1  0.50528126  0.12943160  0.61971771  1
  Zn  Zn103  1  0.24578872  0.61956247  0.88527852  1
  Zn  Zn104  1  0.12498231  0.11823727  0.49339308  1
  Zn  Zn105  1  0.61889436  0.62066656  -0.00209231  1
  Zn  Zn106  1  0.16426760  -0.06818903  0.69084437  1
  Zn  Zn107  1  0.19065577  0.19049478  0.18345737  1
  Zn  Zn108  1  0.20128378  0.16989178  0.65406627  1
  Zn  Zn109  1  0.18566313  0.68668898  0.18788562  1
  Zn  Zn110  1  0.18356592  0.68717070  0.70274494  1
  Zn  Zn111  1  0.68713962  0.18898332  0.19280909  1
  Zn  Zn112  1  0.69089786  0.16978845  0.68230222  1
  Zn  Zn113  1  0.68961811  0.68378640  0.18565769  1
  Zn  Zn114  1  0.68449069  0.68593313  0.68736083  1
  Zn  Zn115  1  0.30917638  0.31058968  0.31703178  1
  Zn  Zn116  1  0.31187331  0.31576224  0.80855041  1
  Zn  Zn117  1  0.31174220  0.80701776  0.39573419  1
  Zn  Zn118  1  0.31234592  0.80733440  0.82311153  1
  Zn  Zn119  1  0.81548485  0.31352012  0.31366064  1
  Zn  Zn120  1  0.82122066  0.31640527  0.82321050  1
  Zn  Zn121  1  0.81347769  0.81109917  0.30956294  1
  Zn  Zn122  1  0.81099316  0.80898536  0.81333726  1
  Zn  Zn123  1  0.18687373  0.44167869  0.44003967  1
  Zn  Zn124  1  0.18498977  0.43756045  0.94269826  1
  Zn  Zn125  1  0.20007684  0.94674816  0.53151461  1
  Zn  Zn126  1  0.19723393  0.93303655  0.85682791  1
  Zn  Zn127  1  0.69017218  0.42972217  0.43923097  1
  Zn  Zn128  1  0.68798413  0.43843856  0.94135523  1
  Zn  Zn129  1  0.69104027  0.93721995  0.43331270  1
  Zn  Zn130  1  0.68599923  0.93517252  0.93961349  1
  Zn  Zn131  1  0.31227005  0.06662244  0.06184166  1
  Zn  Zn132  1  0.31829581  0.06574513  0.56521034  1
  Zn  Zn133  1  0.31313282  0.56053484  0.06605547  1
  Zn  Zn134  1  0.28936962  0.60511317  0.58374697  1
  Zn  Zn135  1  0.81089612  0.06574774  0.06445602  1
  Zn  Zn136  1  0.82110860  0.05901344  0.56348385  1
  Zn  Zn137  1  0.81559793  0.55907258  0.06106135  1
  Zn  Zn138  1  0.81416794  0.55644451  0.56065180  1
  Zn  Zn139  1  0.44144713  0.43708278  0.18754089  1
  Zn  Zn140  1  0.43859373  0.43977691  0.68754062  1
  Zn  Zn141  1  0.43645545  0.94042730  0.19073298  1
  Zn  Zn142  1  0.32721857  0.94419856  0.69970279  1
  Zn  Zn143  1  0.93821745  0.44027801  0.18574271  1
  Zn  Zn144  1  0.93747705  0.42897774  0.69113944  1
  Zn  Zn145  1  0.93341956  0.94070989  0.18515568  1
  Zn  Zn146  1  0.92642519  0.93257663  0.68820739  1
  Zn  Zn147  1  0.06251843  0.06862606  0.30718138  1
  Zn  Zn148  1  0.06222247  0.07348797  0.80741472  1
  Zn  Zn149  1  0.06105616  0.56426926  0.30856915  1
  Zn  Zn150  1  0.06515722  0.56416440  0.81842428  1
  Zn  Zn151  1  0.56707505  0.06837109  0.31564884  1
  Zn  Zn152  1  0.55825608  0.06244409  0.81033423  1
  Zn  Zn153  1  0.56260062  0.56323826  0.30298111  1
  Zn  Zn154  1  0.56359771  0.56119854  0.81233429  1
  Zn  Zn155  1  0.43551559  0.18461926  0.43903587  1
  Zn  Zn156  1  0.43924952  0.19076413  0.94000124  1
  Zn  Zn157  1  0.43905576  0.68535363  0.43376513  1
  Zn  Zn158  1  0.43361035  0.68774780  0.94343557  1
  Zn  Zn159  1  0.96170738  0.18242741  0.43267726  1
  Zn  Zn160  1  0.93755758  0.19083571  0.93280341  1
  Zn  Zn161  1  0.94077607  0.68430285  0.43611006  1
  Zn  Zn162  1  0.93532001  0.68178371  0.93981296  1
  Zn  Zn163  1  0.06551825  0.31788057  0.05848525  1
  Zn  Zn164  1  0.06135638  0.31097556  0.55967378  1
  Zn  Zn165  1  0.06058836  0.81510680  0.06039595  1
  Zn  Zn166  1  0.05620089  0.81011095  0.56823389  1
  Zn  Zn167  1  0.56139308  0.31403161  0.06374176  1
  Zn  Zn168  1  0.56268135  0.31071121  0.54878940  1
  Zn  Zn169  1  0.56327345  0.81203535  0.06164827  1
  Zn  Zn170  1  0.56716038  0.81735606  0.54979692  1
  O  O171  1  0.11834637  0.12151197  0.11706105  1
  O  O172  1  0.10422975  0.11080989  0.64233661  1
  O  O173  1  0.11823315  0.61223355  0.12684329  1
  O  O174  1  0.10941810  0.61464940  0.63431459  1
  O  O175  1  0.61857978  0.12195949  0.12287708  1
  O  O176  1  0.61969010  0.10405806  0.63072380  1
  O  O177  1  0.61664361  0.61848735  0.12459327  1
  O  O178  1  0.61550686  0.61929756  0.61915699  1
  O  O179  1  0.37607237  0.38102207  0.37781991  1
  O  O180  1  0.38214764  0.38108129  0.88124038  1
  O  O181  1  0.39396238  0.88360251  0.36302057  1
  O  O182  1  0.37459774  0.88460962  0.89152824  1
  O  O183  1  0.88205843  0.38975434  0.37353297  1
  O  O184  1  0.89758551  0.38224263  0.86828880  1
  O  O185  1  0.86608667  0.88326775  0.38195720  1
  O  O186  1  0.86601672  0.88606110  0.88287594  1
  O  O187  1  0.24870644  -0.00006168  0.35856935  1
  O  O188  1  0.27070077  0.01382799  0.88853586  1
  O  O189  1  0.24455110  0.51288162  0.36900487  1
  O  O190  1  0.25775017  0.49873229  0.87216167  1
  O  O191  1  0.75668846  0.01045029  0.36772001  1
  O  O192  1  0.75327868  0.00656210  0.87320606  1
  O  O193  1  0.75756930  0.50515208  0.37383993  1
  O  O194  1  0.74977760  0.50848328  0.86913432  1
  O  O195  1  0.23584613  0.49386507  0.11789145  1
  O  O196  1  0.24104912  0.50353395  0.63320025  1
  O  O197  1  0.23995886  0.99503987  0.12094981  1
  O  O198  1  0.25368302  0.98995894  0.62749039  1
  O  O199  1  0.74669408  0.49020692  0.12435961  1
  O  O200  1  0.73674657  0.50532361  0.63074303  1
  O  O201  1  0.74567774  0.99487856  0.13162030  1
  O  O202  1  0.74419736  0.99308886  0.63003719  1
  O  O203  1  -0.00314018  0.37058510  0.25532360  1
  O  O204  1  0.00587235  0.36077786  0.75624658  1
  O  O205  1  0.01192386  0.87467467  0.23530886  1
  O  O206  1  -0.01783440  0.85471581  0.75207452  1
  O  O207  1  0.50480269  0.37297730  0.24922093  1
  O  O208  1  0.49666988  0.36562072  0.75926706  1
  O  O209  1  0.50726691  0.87834959  0.25941343  1
  O  O210  1  0.50843314  0.86067414  0.74839259  1
  O  O211  1  0.49184120  0.11676301  0.23846247  1
  O  O212  1  0.49764443  0.14315977  0.75061171  1
  O  O213  1  0.48879152  0.63045151  0.23978926  1
  O  O214  1  0.49192619  0.61989170  0.74304751  1
  O  O215  1  0.98648414  0.13356581  0.23845214  1
  O  O216  1  0.98892491  0.13902959  0.74895184  1
  O  O217  1  0.99219156  0.62271679  0.23486325  1
  O  O218  1  0.99002789  0.62849763  0.74676873  1
  O  O219  1  0.36956900  0.25650599  0.00973043  1
  O  O220  1  0.37490428  0.25103123  0.51204046  1
  O  O221  1  0.36941176  0.75887285  0.01099615  1
  O  O222  1  0.37148264  0.75639876  0.48327289  1
  O  O223  1  0.86484355  0.24322714  0.00766701  1
  O  O224  1  0.88827124  0.26212495  0.49159198  1
  O  O225  1  0.86806719  0.75872955  -0.00127245  1
  O  O226  1  0.86927503  0.75260701  0.50113601  1
  O  O227  1  0.12584606  0.24434868  0.49786932  1
  O  O228  1  0.13567325  0.24300991  1.00600021  1
  O  O229  1  0.12446898  0.75162806  0.48469414  1
  O  O230  1  0.13789046  0.74770572  1.00493576  1
  O  O231  1  0.63295892  0.25054336  0.48297163  1
  O  O232  1  0.63254381  0.24469676  0.99661342  1
  O  O233  1  0.63175737  0.74291470  0.48832832  1
  O  O234  1  0.63285480  0.74866404  0.99188408  1
  O  O235  1  0.49105661  0.24039628  0.11918441  1
  O  O236  1  0.49747990  0.25449931  0.62989735  1
  O  O237  1  0.49327749  0.74645975  0.12710394  1
  O  O238  1  0.50526616  0.74477291  0.62592104  1
  O  O239  1  0.99248259  0.25149266  0.12640577  1
  O  O240  1  1.00424565  0.24642652  0.64092812  1
  O  O241  1  0.99733153  0.73988306  0.12264490  1
  O  O242  1  0.99205319  0.73883648  0.63390631  1
  O  O243  1  -0.01097553  0.26894523  0.35881785  1
  O  O244  1  0.00077357  0.25759332  0.86311050  1
  O  O245  1  0.01670847  0.73546661  0.36750908  1
  O  O246  1  0.00385062  0.74232697  0.86990817  1
  O  O247  1  0.51221182  0.24788080  0.38099385  1
  O  O248  1  0.50693003  0.25933815  0.86826694  1
  O  O249  1  0.50914584  0.76283356  0.36946747  1
  O  O250  1  0.51257369  0.74515518  0.88203699  1
  O  O251  1  0.23504688  0.13719868  0.54138848  1
  O  O252  1  0.24165081  0.13695539  1.00247363  1
  O  O253  1  0.24983775  0.62090245  0.47798498  1
  O  O254  1  0.26082675  0.64184132  1.00346234  1
  O  O255  1  0.75819468  0.12246973  0.49040418  1
  O  O256  1  0.74308557  0.13446387  0.99717296  1
  O  O257  1  0.74600476  0.62806901  0.49266385  1
  O  O258  1  0.75024950  0.62956538  0.99198382  1
  O  O259  1  0.26093418  0.37009306  0.00457807  1
  O  O260  1  0.25308458  0.38038650  0.51371983  1
  O  O261  1  0.26038672  0.86312902  0.01297882  1
  O  O262  1  0.27047168  0.86942179  0.48800340  1
  O  O263  1  0.74887379  0.36363664  0.00936948  1
  O  O264  1  0.77271247  0.37725320  0.49519892  1
  O  O265  1  0.75904785  0.87098577  0.00604261  1
  O  O266  1  0.75694956  0.86694959  0.50366887  1
  O  O267  1  0.11798785  0.49754319  0.23305111  1
  O  O268  1  0.13511912  0.50621837  0.74558675  1
  O  O269  1  0.12688355  1.00004873  0.23811784  1
  O  O270  1  0.11432360  0.97727690  0.78090100  1
  O  O271  1  0.63009055  0.49811254  0.23570850  1
  O  O272  1  0.63629541  0.50270305  0.74133126  1
  O  O273  1  0.63969737  1.00822691  0.24529057  1
  O  O274  1  0.62642450  0.98632447  0.74673869  1
  O  O275  1  0.36214780  0.00890685  0.24562113  1
  O  O276  1  0.39101855  0.01416962  0.76480039  1
  O  O277  1  0.37675283  0.51568854  0.24508407  1
  O  O278  1  0.37283234  0.50584594  0.76234409  1
  O  O279  1  0.86500486  0.00845582  0.25233529  1
  O  O280  1  0.86578118  0.00267988  0.76114392  1
  O  O281  1  0.87400780  0.50960308  0.25646107  1
  O  O282  1  0.86365408  0.50724218  0.74670868  1
  O  O283  1  0.11240106  0.37592904  0.37814624  1
  O  O284  1  0.10938354  0.38015572  0.87611778  1
  O  O285  1  0.11940462  0.85890827  0.36222821  1
  O  O286  1  0.12094745  0.85428482  0.89630658  1
  O  O287  1  0.62478217  0.36220568  0.37333258  1
  O  O288  1  0.61596904  0.36987500  0.88254364  1
  O  O289  1  0.61709293  0.86658517  0.37826776  1
  O  O290  1  0.63141210  0.86507081  0.86665789  1
  O  O291  1  0.38277825  0.13329356  0.12932283  1
  O  O292  1  0.38676919  0.13605340  0.63391996  1
  O  O293  1  0.37977733  0.63110667  0.13111497  1
  O  O294  1  0.39219017  0.61530293  0.63667058  1
  O  O295  1  0.87740606  0.13670652  0.13038370  1
  O  O296  1  0.87908740  0.11728008  0.64404221  1
  O  O297  1  0.88138045  0.62532062  0.13149117  1
  O  O298  1  0.87997961  0.62606457  0.63285409  1
  O  O299  1  0.25778667  0.25946956  0.11513543  1
  O  O300  1  0.26313146  0.26799095  0.63319545  1
  O  O301  1  0.25514091  0.75720617  0.12075026  1
  O  O302  1  0.25946498  0.70796591  0.62615314  1
  O  O303  1  0.75604205  0.25529788  0.11905636  1
  O  O304  1  0.73581284  0.26518625  0.63793611  1
  O  O305  1  0.75163834  0.75750930  0.11925047  1
  O  O306  1  0.75413947  0.75091964  0.61797051  1
  O  O307  1  0.24596129  0.24362802  0.37660958  1
  O  O308  1  0.25869523  0.25116585  0.88804589  1
  O  O309  1  0.23116044  0.73571551  0.36191143  1
  O  O310  1  0.24388424  0.74592579  0.89215297  1
  O  O311  1  0.75727523  0.23571568  0.37569882  1
  O  O312  1  0.74631465  0.24900148  0.88386974  1
  O  O313  1  0.74451132  0.74400840  0.37748812  1
  O  O314  1  0.74470689  0.73774157  0.87875904  1
  O  O315  1  0.00572644  0.12505903  0.00267763  1
  O  O316  1  -0.00931851  0.12350656  0.52754392  1
  O  O317  1  -0.00297111  0.61467532  0.01080803  1
  O  O318  1  -0.00814053  0.61494859  0.51377225  1
  O  O319  1  0.50524453  0.12018227  0.01119504  1
  O  O320  1  0.50133560  0.10885863  0.49778153  1
  O  O321  1  0.49956198  0.62981473  0.01646898  1
  O  O322  1  0.50650053  0.61693191  0.50471434  1
  O  O323  1  0.49901530  0.39082980  0.49443641  1
  O  O324  1  0.48649911  0.36858964  0.99168145  1
  O  O325  1  0.49846817  0.88499238  0.48723052  1
  O  O326  1  0.49073087  0.88593867  1.00969311  1
  O  O327  1  0.99217225  0.38429458  0.49045686  1
  O  O328  1  1.00043253  0.38030172  0.98733051  1
  O  O329  1  0.98630742  0.86701219  0.49652220  1
  O  O330  1  0.98346133  0.88327405  1.00509007  1
  O  O331  1  0.50099781  0.50561583  0.38431285  1
  O  O332  1  0.49503254  0.48833030  0.87177821  1
  O  O333  1  0.50749503  0.99232997  0.38200492  1
  O  O334  1  0.49431926  1.00835451  0.89252497  1
  O  O335  1  0.99529958  0.49900612  0.38225239  1
  O  O336  1  1.00063648  0.49507146  0.88374240  1
  O  O337  1  0.98371983  0.99452704  0.35875654  1
  O  O338  1  0.98629798  1.00385434  0.88177748  1
  O  O339  1  0.00270777  0.01002641  0.11858027  1
  O  O340  1  -0.00685811  0.00539638  0.63586801  1
  O  O341  1  0.00891282  0.50164144  0.11651433  1
  O  O342  1  0.00429331  0.50248783  0.62320209  1
  O  O343  1  0.50597904  0.00695658  0.11819126  1
  O  O344  1  0.50937104  -0.00308229  0.60699903  1
  O  O345  1  0.50808005  0.50946053  0.12497264  1
  O  O346  1  0.51057442  0.50547055  0.61688303  1
  O  O347  1  0.25672606  0.37362801  0.23413268  1
  O  O348  1  0.25900247  0.39203510  0.73975660  1
  O  O349  1  0.23397921  0.88790948  0.23266744  1
  O  O350  1  0.25363527  0.88409712  0.76644796  1
  O  O351  1  0.75098054  0.37499499  0.23649312  1
  O  O352  1  0.74931830  0.38202052  0.75400209  1
  O  O353  1  0.75584849  0.88562190  0.24061277  1
  O  O354  1  0.74456194  0.87807160  0.74334249  1
  O  O355  1  0.25876904  0.11504984  0.23711854  1
  O  O356  1  0.26923053  0.13250638  0.74809549  1
  O  O357  1  0.26362159  0.62686570  0.24881092  1
  O  O358  1  0.26533686  0.61332232  0.75972144  1
  O  O359  1  0.76256881  0.11933182  0.25124127  1
  O  O360  1  0.75735829  0.11661335  0.75767776  1
  O  O361  1  0.75975137  0.62196459  0.25489911  1
  O  O362  1  0.75416947  0.61840100  0.75651109  1
  O  O363  1  0.38104788  0.11938005  0.36073369  1
  O  O364  1  0.37863057  0.12318184  0.86889828  1
  O  O365  1  0.36491878  0.62329967  0.35969393  1
  O  O366  1  0.37810751  0.61548061  0.87218239  1
  O  O367  1  0.87081899  0.11848568  0.36755614  1
  O  O368  1  0.86826303  0.11795784  0.86718496  1
  O  O369  1  0.87218172  0.61439363  0.36818340  1
  O  O370  1  0.86585598  0.61891961  0.86733594  1
  O  O371  1  0.13414229  0.38656472  0.12050405  1
  O  O372  1  0.13242174  0.38820163  0.62402480  1
  O  O373  1  0.13025200  0.88626625  0.12270274  1
  O  O374  1  0.14764974  0.85913229  0.60679974  1
  O  O375  1  0.63351402  0.38004144  0.12444344  1
  O  O376  1  0.62317488  0.38241879  0.62429055  1
  O  O377  1  0.63910655  0.88162167  0.11837507  1
  O  O378  1  0.63020742  0.87942430  0.63106998  1
  O  O379  1  0.11012088  0.24449462  0.24655935  1
  O  O380  1  0.12339762  0.24162616  0.74356350  1
  O  O381  1  0.12120761  0.75977520  0.24825471  1
  O  O382  1  0.11118412  0.74889961  0.76400155  1
  O  O383  1  0.63657573  0.24957886  0.27213826  1
  O  O384  1  0.62505075  0.25958043  0.74934378  1
  O  O385  1  0.62696242  0.74624070  0.26037434  1
  O  O386  1  0.63235882  0.76060480  0.75790206  1
  O  O387  1  0.36908001  0.24115899  0.23654422  1
  O  O388  1  0.38495988  0.24917222  0.74164504  1
  O  O389  1  0.37610954  0.74184487  0.23615498  1
  O  O390  1  0.38603437  0.74327071  0.75870219  1
  O  O391  1  0.88006688  0.24496023  0.24020492  1
  O  O392  1  0.86723508  0.23759746  0.75302398  1
  O  O393  1  0.87842747  0.73674848  0.24937604  1
  O  O394  1  0.87543502  0.73493076  0.74679068  1
  O  O395  1  0.39212869  0.50563895  0.49752445  1
  O  O396  1  0.37157424  0.49243783  0.98982421  1
  O  O397  1  0.38884324  0.99669817  0.49951109  1
  O  O398  1  0.38393670  0.99527320  1.00080570  1
  O  O399  1  0.88579590  0.49689544  0.49248078  1
  O  O400  1  0.89416401  0.50096528  1.00134324  1
  O  O401  1  0.87165604  0.98780361  0.48838063  1
  O  O402  1  0.87475781  0.99655456  0.99315255  1
  O  O403  1  0.11516870  0.01154920  0.01101633  1
  O  O404  1  0.11928486  0.00428066  0.48538733  1
  O  O405  1  0.10977555  0.49770834  0.00841089  1
  O  O406  1  0.11095802  0.49901044  0.51068997  1
  O  O407  1  0.61970643  0.00632717  0.00621941  1
  O  O408  1  0.61907732  -0.00902570  0.50711062  1
  O  O409  1  0.63041926  0.50359038  0.01501473  1
  O  O410  1  0.62051021  0.50459846  0.50477038  1
  O  O411  1  0.37107794  0.37077285  0.11701905  1
  O  O412  1  0.37094261  0.37218728  0.62131436  1
  O  O413  1  0.36818156  0.87085964  0.12249388  1
  O  O414  1  0.39034207  0.86306692  0.64132717  1
  O  O415  1  0.86903035  0.36455830  0.12603044  1
  O  O416  1  0.88121477  0.37282918  0.61126016  1
  O  O417  1  0.86290479  0.87507277  0.11675807  1
  O  O418  1  0.86712050  0.86439973  0.61534527  1
  O  O419  1  0.07357920  0.14315470  0.38738503  1
  O  O420  1  0.12850834  0.12382417  0.88769960  1
  O  O421  1  0.13427871  0.63184442  0.36479185  1
  O  O422  1  0.12953128  0.63771184  0.87895507  1
  O  O423  1  0.64327257  0.13338435  0.37467951  1
  O  O424  1  0.63023312  0.13356752  0.87854208  1
  O  O425  1  0.62983514  0.63113713  0.37645872  1
  O  O426  1  0.63171601  0.63056768  0.87626554  1
