# generated using pymatgen
data_V85Zn86O256
_symmetry_space_group_name_H-M   'P 1'
_cell_length_a   16.95609275
_cell_length_b   16.96283171
_cell_length_c   16.94381849
_cell_angle_alpha   89.99695706
_cell_angle_beta   89.99585218
_cell_angle_gamma   89.99243814
_symmetry_Int_Tables_number   1
_chemical_formula_structural   V85Zn86O256
_chemical_formula_sum   'V85 Zn86 O256'
_cell_volume   4873.43773449
_cell_formula_units_Z   1
loop_
 _symmetry_equiv_pos_site_id
 _symmetry_equiv_pos_as_xyz
  1  'x, y, z'
loop_
 _atom_site_type_symbol
 _atom_site_label
 _atom_site_symmetry_multiplicity
 _atom_site_fract_x
 _atom_site_fract_y
 _atom_site_fract_z
 _atom_site_occupancy
  V  V0  1  0.00403029  0.37291931  0.37351518  1
  V  V1  1  0.62188535  0.49431249  0.13098773  1
  V  V2  1  0.00406024  0.63194135  0.63138165  1
  V  V3  1  0.25681547  0.50160951  0.74822018  1
  V  V4  1  0.74238783  0.88276070  0.12777496  1
  V  V5  1  0.26336181  0.50610310  0.26327910  1
  V  V6  1  0.50403157  -0.00238640  0.01291191  1
  V  V7  1  0.75100973  0.75149047  0.49365012  1
  V  V8  1  0.74632630  0.62386915  0.87619656  1
  V  V9  1  0.12813050  0.50237733  0.62499670  1
  V  V10  1  0.37445151  0.49754082  0.88434545  1
  V  V11  1  0.25609001  0.75107775  0.49302000  1
  V  V12  1  0.25361199  0.87928149  0.12309182  1
  V  V13  1  -0.00024571  0.37204474  0.87817694  1
  V  V14  1  0.49844639  0.64047200  0.62927647  1
  V  V15  1  0.50238944  0.12771602  0.62777875  1
  V  V16  1  0.75721609  0.37695512  0.12035402  1
  V  V17  1  0.36905811  0.00118672  0.37817087  1
  V  V18  1  -0.00320357  0.86848348  0.86933846  1
  V  V19  1  0.74724461  0.74708689  0.00473595  1
  V  V20  1  0.12727306  0.63585048  0.49224272  1
  V  V21  1  0.12217650  0.74492483  0.87758785  1
  V  V22  1  0.00843839  0.50084389  0.00186726  1
  V  V23  1  0.24831723  0.00522475  0.25288837  1
  V  V24  1  0.62944830  0.62969612  0.49577980  1
  V  V25  1  0.87452383  0.25188919  0.61695631  1
  V  V26  1  0.75032167  0.49667993  0.24846126  1
  V  V27  1  0.87921208  0.62834049  0.75370116  1
  V  V28  1  0.87392448  0.49383424  0.88305821  1
  V  V29  1  0.86741340  0.00324454  0.36974693  1
  V  V30  1  0.37510603  0.00593226  0.87902503  1
  V  V31  1  0.13025092  0.23999819  0.37117742  1
  V  V32  1  0.75059840  0.87295836  0.62546164  1
  V  V33  1  0.63599794  0.11880013  0.48832493  1
  V  V34  1  0.74762023  0.00035975  0.74981614  1
  V  V35  1  0.46534241  0.52164039  0.48318439  1
  V  V36  1  0.75314940  0.63382280  0.36271665  1
  V  V37  1  0.87595041  0.87447757  0.49663709  1
  V  V38  1  0.12133171  0.87027880  0.75027454  1
  V  V39  1  0.12412434  -0.00128741  0.62454523  1
  V  V40  1  0.38023482  0.36911908  0.48516331  1
  V  V41  1  0.37578388  0.13207820  0.25156485  1
  V  V42  1  0.26973334  0.37608492  0.11487423  1
  V  V43  1  0.49233523  0.62217944  0.13648187  1
  V  V44  1  0.00022767  0.12490980  0.62087958  1
  V  V45  1  0.87250852  0.87431830  0.00049766  1
  V  V46  1  0.49953165  0.86837004  0.37499202  1
  V  V47  1  0.61705840  0.62047302  0.00243051  1
  V  V48  1  0.37788230  0.63990913  0.74740960  1
  V  V49  1  0.61846445  0.50244038  0.61985490  1
  V  V50  1  0.62416582  -0.00074109  0.62800489  1
  V  V51  1  0.75252427  0.37911647  0.62346745  1
  V  V52  1  0.86613436  0.12771956  0.24723809  1
  V  V53  1  0.87314184  0.00002895  0.87127548  1
  V  V54  1  0.74978942  0.50082428  0.74951333  1
  V  V55  1  0.26337779  0.24023531  0.00085503  1
  V  V56  1  0.37440184  0.25017924  0.62859268  1
  V  V57  1  0.12696376  0.01013348  0.12097586  1
  V  V58  1  0.24883659  0.00673123  0.75570130  1
  V  V59  1  0.51547594  0.25746772  0.27212790  1
  V  V60  1  0.25538237  0.86777306  0.62932315  1
  V  V61  1  0.49689613  -0.00031054  0.50008712  1
  V  V62  1  0.87953307  0.50554567  0.37251716  1
  V  V63  1  0.71506234  0.28240381  0.47726747  1
  V  V64  1  0.13236114  0.37065324  0.24114354  1
  V  V65  1  0.88336407  0.37586066  0.49913345  1
  V  V66  1  0.87787551  0.74936256  0.62894624  1
  V  V67  1  0.12953185  0.23785521  0.88333070  1
  V  V68  1  0.37150318  0.74652912  0.13054591  1
  V  V69  1  0.87152277  0.12635738  0.74566648  1
  V  V70  1  0.75345702  0.25525012  -0.00414106  1
  V  V71  1  0.24905508  0.62466313  0.88377840  1
  V  V72  1  0.50029984  0.13923241  0.12719279  1
  V  V73  1  0.49673836  0.37428046  0.88214278  1
  V  V74  1  0.25016868  0.24089167  0.49552223  1
  V  V75  1  -0.00126611  0.24812250  0.24504647  1
  V  V76  1  0.00184111  0.25107766  0.74845079  1
  V  V77  1  0.62814272  0.12235326  0.00377401  1
  V  V78  1  0.00149331  -0.00028099  0.49304801  1
  V  V79  1  0.49820718  0.86882594  0.87537203  1
  V  V80  1  0.00290446  0.00847079  -0.00351392  1
  V  V81  1  0.61972196  0.86583147  0.75113444  1
  V  V82  1  0.00367639  0.86430877  0.36407826  1
  V  V83  1  0.61982901  0.37331385  0.74575910  1
  V  V84  1  0.25239810  0.37491428  0.62416208  1
  Zn  Zn85  1  0.92229747  0.62791629  0.22413296  1
  Zn  Zn86  1  0.12421379  0.50038292  0.12742616  1
  Zn  Zn87  1  0.25010119  0.75287482  -0.00064812  1
  Zn  Zn88  1  0.37191411  0.12670642  0.75476228  1
  Zn  Zn89  1  0.74561596  0.12770890  0.87255350  1
  Zn  Zn90  1  0.37725211  0.87412566  0.00049328  1
  Zn  Zn91  1  0.73874792  0.01004270  0.24752970  1
  Zn  Zn92  1  0.61646051  0.74380879  0.87297237  1
  Zn  Zn93  1  0.11670748  0.86775637  0.24421230  1
  Zn  Zn94  1  0.50031607  0.74387893  0.25783559  1
  Zn  Zn95  1  0.00432177  0.50334364  0.50306968  1
  Zn  Zn96  1  0.13075056  0.11916168  0.49333686  1
  Zn  Zn97  1  0.62533872  0.87170549  0.25459212  1
  Zn  Zn98  1  0.37606913  0.87367497  0.50882479  1
  Zn  Zn99  1  0.49790517  0.25205549  0.74934238  1
  Zn  Zn100  1  0.12804686  0.37333728  0.75125003  1
  Zn  Zn101  1  0.89695388  0.74957263  0.13197711  1
  Zn  Zn102  1  0.62420573  0.24900729  0.87259285  1
  Zn  Zn103  1  0.87675402  0.25295928  0.11803095  1
  Zn  Zn104  1  0.00027871  0.12816620  0.11925471  1
  Zn  Zn105  1  0.48790194  0.49351694  0.00974556  1
  Zn  Zn106  1  0.06717021  0.66656836  0.05964947  1
  Zn  Zn107  1  0.19322217  0.18802642  0.17994259  1
  Zn  Zn108  1  0.18416906  0.18734117  0.68665485  1
  Zn  Zn109  1  0.12962480  0.66870374  0.21706095  1
  Zn  Zn110  1  0.18913957  0.68816327  0.69296957  1
  Zn  Zn111  1  0.68392397  0.19194341  0.18386825  1
  Zn  Zn112  1  0.68922120  0.19197127  0.67586613  1
  Zn  Zn113  1  0.68213098  0.69344756  0.18804562  1
  Zn  Zn114  1  0.68930104  0.68734716  0.68613578  1
  Zn  Zn115  1  0.31266842  0.30966351  0.30842535  1
  Zn  Zn116  1  0.31175410  0.31220353  0.81504644  1
  Zn  Zn117  1  0.27013151  0.77446462  0.28125829  1
  Zn  Zn118  1  0.31030897  0.81657233  0.81538074  1
  Zn  Zn119  1  0.81276706  0.31538974  0.31068659  1
  Zn  Zn120  1  0.81148996  0.31276751  0.81058230  1
  Zn  Zn121  1  0.82505314  0.80791979  0.30413786  1
  Zn  Zn122  1  0.80625045  0.80932539  0.81510331  1
  Zn  Zn123  1  0.19029699  0.43170881  0.43837617  1
  Zn  Zn124  1  0.18919818  0.43032039  0.93553000  1
  Zn  Zn125  1  0.18749164  0.93240724  0.43476906  1
  Zn  Zn126  1  0.18718372  0.94071079  0.93737877  1
  Zn  Zn127  1  0.68823297  0.44900696  0.43444842  1
  Zn  Zn128  1  0.68238933  0.43678473  0.93783585  1
  Zn  Zn129  1  0.68406233  0.93756662  0.43375680  1
  Zn  Zn130  1  0.68421644  0.93781787  0.93702386  1
  Zn  Zn131  1  0.31849929  0.06667709  0.06439078  1
  Zn  Zn132  1  0.31193515  0.06127297  0.56913525  1
  Zn  Zn133  1  0.26786775  0.59448549  0.10299555  1
  Zn  Zn134  1  0.31609596  0.57019318  0.55317471  1
  Zn  Zn135  1  0.81457118  0.06520202  0.06200665  1
  Zn  Zn136  1  0.81383309  0.05913306  0.56123003  1
  Zn  Zn137  1  0.81530704  0.56546843  0.06520585  1
  Zn  Zn138  1  0.81466411  0.56319083  0.56089702  1
  Zn  Zn139  1  0.43808679  0.43131092  0.19631930  1
  Zn  Zn140  1  0.43817968  0.44282601  0.68140383  1
  Zn  Zn141  1  0.43358452  0.93872216  0.19157117  1
  Zn  Zn142  1  0.43688252  0.93823084  0.69203996  1
  Zn  Zn143  1  0.93813588  0.43833315  0.18763241  1
  Zn  Zn144  1  0.94114096  0.44111356  0.69128598  1
  Zn  Zn145  1  0.93387951  0.93952688  0.18353729  1
  Zn  Zn146  1  0.93763853  0.93733506  0.68544078  1
  Zn  Zn147  1  0.05852561  0.06054251  0.30682234  1
  Zn  Zn148  1  0.05977916  0.06192913  0.81012737  1
  Zn  Zn149  1  0.07354797  0.54771201  0.31936069  1
  Zn  Zn150  1  0.06369221  0.56053870  0.81288677  1
  Zn  Zn151  1  0.56218991  0.05714614  0.30723111  1
  Zn  Zn152  1  0.56074758  0.05945259  0.81740185  1
  Zn  Zn153  1  0.56658801  0.56257038  0.31450231  1
  Zn  Zn154  1  0.55784720  0.55935524  0.81104482  1
  Zn  Zn155  1  0.43951982  0.18238205  0.43786626  1
  Zn  Zn156  1  0.44321430  0.18673277  0.93661089  1
  Zn  Zn157  1  0.43156952  0.69313773  0.44727077  1
  Zn  Zn158  1  0.43233430  0.68500865  0.94376412  1
  Zn  Zn159  1  0.93574776  0.18596049  0.43126923  1
  Zn  Zn160  1  0.93270871  0.18835708  0.93261821  1
  Zn  Zn161  1  0.93934493  0.68659385  0.43848576  1
  Zn  Zn162  1  0.93366743  0.68678819  0.94164834  1
  Zn  Zn163  1  0.06363095  0.31490398  0.05812022  1
  Zn  Zn164  1  0.06706200  0.31169013  0.56162928  1
  Zn  Zn165  1  0.06738314  0.83299895  0.05646298  1
  Zn  Zn166  1  0.06331684  0.81279966  0.56078290  1
  Zn  Zn167  1  0.56853357  0.31232358  0.06314120  1
  Zn  Zn168  1  0.56047552  0.31670904  0.54603202  1
  Zn  Zn169  1  0.56043053  0.80768961  0.06600967  1
  Zn  Zn170  1  0.56537537  0.81369959  0.55909320  1
  O  O171  1  0.12023919  0.11427543  0.12753528  1
  O  O172  1  0.11598058  0.11742357  0.62092122  1
  O  O173  1  0.15006980  0.61404952  0.11435006  1
  O  O174  1  0.11860616  0.62154875  0.62542886  1
  O  O175  1  0.61791076  0.12593698  0.11238663  1
  O  O176  1  0.61887642  0.11425744  0.62313064  1
  O  O177  1  0.61455186  0.61576056  0.12012441  1
  O  O178  1  0.61940483  0.62011896  0.62253476  1
  O  O179  1  0.37138193  0.37001425  0.38698118  1
  O  O180  1  0.38619887  0.38447986  0.86537576  1
  O  O181  1  0.38710835  0.89273776  0.38665786  1
  O  O182  1  0.38197010  0.88479192  0.87623623  1
  O  O183  1  0.88180961  0.38589935  0.38033757  1
  O  O184  1  0.88417823  0.38448415  0.86418371  1
  O  O185  1  0.88449733  0.88137709  0.37862002  1
  O  O186  1  0.87935626  0.87911466  0.87650606  1
  O  O187  1  0.25651864  -0.00402177  0.36686269  1
  O  O188  1  0.25960019  -0.00523707  0.86719827  1
  O  O189  1  0.24725496  0.49265322  0.36294662  1
  O  O190  1  0.25352531  0.50453674  0.86661992  1
  O  O191  1  0.76450230  -0.00867637  0.37281751  1
  O  O192  1  0.75539955  0.00020588  0.86526651  1
  O  O193  1  0.75895941  0.50677345  0.36619212  1
  O  O194  1  0.75612954  0.50236125  0.86999522  1
  O  O195  1  0.25024643  0.48163334  0.13220300  1
  O  O196  1  0.24579968  0.49895492  0.63086679  1
  O  O197  1  0.24491175  0.99974885  0.12752267  1
  O  O198  1  0.24049377  0.99136838  0.63147853  1
  O  O199  1  0.74454128  0.49719399  0.12986023  1
  O  O200  1  0.74435547  0.49810516  0.63128199  1
  O  O201  1  0.75583060  0.98514002  0.12361973  1
  O  O202  1  0.74577402  0.99149260  0.63093412  1
  O  O203  1  0.00857251  0.36807672  0.25296539  1
  O  O204  1  0.00281107  0.36809180  0.75739625  1
  O  O205  1  -0.00266914  0.87747528  0.25948591  1
  O  O206  1  0.00661918  0.88074950  0.75934763  1
  O  O207  1  0.49996261  0.35515886  0.25133573  1
  O  O208  1  0.50764243  0.37756410  0.75160315  1
  O  O209  1  0.49372862  0.87726010  0.26935757  1
  O  O210  1  0.50938761  0.88010785  0.75975186  1
  O  O211  1  0.49694163  0.13224841  0.24447326  1
  O  O212  1  0.50159064  0.12453018  0.73720982  1
  O  O213  1  0.50007096  0.62243315  0.24036142  1
  O  O214  1  0.49226600  0.62142680  0.74007050  1
  O  O215  1  0.99102313  0.13470938  0.24582156  1
  O  O216  1  0.99193018  0.13025219  0.74135163  1
  O  O217  1  1.03150515  0.61671883  0.24413245  1
  O  O218  1  0.99085558  0.62172230  0.74420169  1
  O  O219  1  0.36195585  0.24903262  -0.01148564  1
  O  O220  1  0.37031166  0.25451569  0.50556157  1
  O  O221  1  0.37194275  0.75517762  0.01093089  1
  O  O222  1  0.35864043  0.75461443  0.51406354  1
  O  O223  1  0.85904407  0.24570480  -0.00106727  1
  O  O224  1  0.88528755  0.26164162  0.50367370  1
  O  O225  1  0.86448488  0.76358223  -0.00739680  1
  O  O226  1  0.86774256  0.75406071  0.50677607  1
  O  O227  1  0.13299927  0.24660221  0.49017875  1
  O  O228  1  0.12762128  0.24985659  0.98670375  1
  O  O229  1  0.13165089  0.74214975  0.50040398  1
  O  O230  1  0.12882311  0.75402947  0.98550255  1
  O  O231  1  0.62603791  0.22383388  0.51534854  1
  O  O232  1  0.63617843  0.24228897  0.99748126  1
  O  O233  1  0.64153312  0.74282247  0.50611059  1
  O  O234  1  0.62823886  0.73527697  1.00030645  1
  O  O235  1  0.50419404  0.24099418  0.12687465  1
  O  O236  1  0.49297390  0.24326033  0.62327735  1
  O  O237  1  0.48723328  0.74079976  0.12634117  1
  O  O238  1  0.50588309  0.73961618  0.62338115  1
  O  O239  1  0.99875920  0.25250427  0.13319525  1
  O  O240  1  0.99705672  0.24473866  0.62820821  1
  O  O241  1  1.00824616  0.75172247  0.10288770  1
  O  O242  1  0.99494767  0.73992324  0.62316893  1
  O  O243  1  0.00580545  0.25450591  0.36231771  1
  O  O244  1  0.00581731  0.25507187  0.87066145  1
  O  O245  1  -0.00371897  0.76645388  0.38085147  1
  O  O246  1  0.00468601  0.76031008  0.87910822  1
  O  O247  1  0.50441675  0.24826586  0.37221275  1
  O  O248  1  0.50373514  0.25925248  0.86887184  1
  O  O249  1  0.48592405  0.76408924  0.37866790  1
  O  O250  1  0.49810121  0.76398426  0.88308572  1
  O  O251  1  0.24964357  0.13682352  0.50640201  1
  O  O252  1  0.25191106  0.14047505  1.00576403  1
  O  O253  1  0.23531866  0.64267172  0.51621386  1
  O  O254  1  0.25570315  0.62589385  0.98529849  1
  O  O255  1  0.73661987  0.11650786  0.50070846  1
  O  O256  1  0.74275696  0.13065620  0.99839980  1
  O  O257  1  0.74955910  0.63400180  0.49218027  1
  O  O258  1  0.74126518  0.63015721  0.99516251  1
  O  O259  1  0.24870236  0.36717780  0.01046796  1
  O  O260  1  0.25601609  0.35999944  0.50657639  1
  O  O261  1  0.25262867  0.87932965  0.01154225  1
  O  O262  1  0.24573087  0.86457277  0.50991285  1
  O  O263  1  0.74448676  0.36798879  0.00661024  1
  O  O264  1  0.77017666  0.38217378  0.50517316  1
  O  O265  1  0.75460777  0.86950687  0.00367662  1
  O  O266  1  0.75432420  0.86872194  0.50353830  1
  O  O267  1  0.13775080  0.47903199  0.25044781  1
  O  O268  1  0.13705340  0.50077255  0.74021774  1
  O  O269  1  0.13271699  0.99892235  0.24204400  1
  O  O270  1  0.12943144  0.99060067  0.74778258  1
  O  O271  1  0.63642096  0.50319033  0.24281658  1
  O  O272  1  0.62709032  0.49311035  0.73752426  1
  O  O273  1  0.62982871  0.98593423  0.25680623  1
  O  O274  1  0.63025269  0.99114159  0.74690881  1
  O  O275  1  0.36961297  0.00898322  0.26003122  1
  O  O276  1  0.36545995  0.00225546  0.75834199  1
  O  O277  1  0.36321348  0.49346450  0.25316183  1
  O  O278  1  0.36549838  0.50622808  0.75184165  1
  O  O279  1  0.87196379  0.00983317  0.25407713  1
  O  O280  1  0.86743469  0.00498545  0.75079591  1
  O  O281  1  0.87288432  0.50835166  0.25705913  1
  O  O282  1  0.87038197  0.51091923  0.75678729  1
  O  O283  1  0.12087779  0.36194241  0.36842202  1
  O  O284  1  0.11572632  0.36516345  0.87060491  1
  O  O285  1  0.10554142  0.88291886  0.37158483  1
  O  O286  1  0.11595231  0.87031339  0.86885802  1
  O  O287  1  0.63735036  0.35025502  0.44635654  1
  O  O288  1  0.61593297  0.37775262  0.86146950  1
  O  O289  1  0.60313253  0.87462271  0.38385872  1
  O  O290  1  0.61701520  0.87238575  0.86709195  1
  O  O291  1  0.38906746  0.12013246  0.13847427  1
  O  O292  1  0.38305716  0.13488313  0.62647390  1
  O  O293  1  0.37636406  0.63830840  0.12057411  1
  O  O294  1  0.38766303  0.62214521  0.63363320  1
  O  O295  1  0.88020585  0.12969195  0.13183938  1
  O  O296  1  0.87977675  0.13151765  0.62508156  1
  O  O297  1  0.88319159  0.63416431  0.11549731  1
  O  O298  1  0.88363890  0.62782177  0.63265110  1
  O  O299  1  0.24834677  0.26054859  0.10951674  1
  O  O300  1  0.25618533  0.25290515  0.61951002  1
  O  O301  1  0.26282508  0.76231819  0.12032489  1
  O  O302  1  0.23901035  0.76492372  0.62347725  1
  O  O303  1  0.74935487  0.26180542  0.11651989  1
  O  O304  1  0.75335082  0.26345804  0.60416101  1
  O  O305  1  0.74888714  0.75701275  0.11065423  1
  O  O306  1  0.75817868  0.75467440  0.61789440  1
  O  O307  1  0.24153582  0.25107629  0.38224169  1
  O  O308  1  0.23758212  0.25530294  0.88530784  1
  O  O309  1  0.26382120  0.75033170  0.39476587  1
  O  O310  1  0.24156208  0.74298613  0.87542001  1
  O  O311  1  0.75823526  0.25413290  0.39182605  1
  O  O312  1  0.74520081  0.25022514  0.87976223  1
  O  O313  1  0.75917633  0.74460773  0.38243167  1
  O  O314  1  0.74269481  0.74296597  0.88687080  1
  O  O315  1  -0.00962723  0.11194809  -0.00276431  1
  O  O316  1  -0.00051703  0.11229981  0.50105462  1
  O  O317  1  0.00315283  0.60542742  -0.01566432  1
  O  O318  1  0.01301621  0.62594635  0.50976477  1
  O  O319  1  0.50659456  0.11970077  0.00853706  1
  O  O320  1  0.50682952  0.11656373  0.51154361  1
  O  O321  1  0.50358149  0.61878832  0.01178703  1
  O  O322  1  0.51668598  0.62719574  0.50898507  1
  O  O323  1  0.48120194  0.38495346  0.50097401  1
  O  O324  1  0.50887465  0.37717443  0.98610728  1
  O  O325  1  0.49687360  0.88276542  0.49814244  1
  O  O326  1  0.50306001  0.88288952  0.99519379  1
  O  O327  1  0.99618802  0.37845688  0.49587172  1
  O  O328  1  0.99794013  0.38232157  0.98549150  1
  O  O329  1  0.99548496  0.88477153  0.49410329  1
  O  O330  1  0.98956300  0.88745922  0.98621905  1
  O  O331  1  0.51305028  0.50286282  0.39677994  1
  O  O332  1  0.49013450  0.49265864  0.87646917  1
  O  O333  1  0.49472332  0.99609501  0.38917820  1
  O  O334  1  0.49344297  0.98953688  0.88388198  1
  O  O335  1  0.99465490  0.49137415  0.38075824  1
  O  O336  1  0.99415826  0.49047248  0.87699521  1
  O  O337  1  0.99003195  0.99452019  0.37939993  1
  O  O338  1  0.99222103  0.99340826  0.87706172  1
  O  O339  1  0.00714548  -0.00116001  0.11333300  1
  O  O340  1  0.00386228  0.00364852  0.61451560  1
  O  O341  1  0.00098873  0.49114399  0.10533390  1
  O  O342  1  0.01025212  0.51118075  0.62607000  1
  O  O343  1  0.49666082  0.00426346  0.11533365  1
  O  O344  1  0.50282483  0.00497498  0.61765246  1
  O  O345  1  0.50442242  0.50247684  0.12771362  1
  O  O346  1  0.50531003  0.50971373  0.60801742  1
  O  O347  1  0.24701434  0.36773238  0.23422760  1
  O  O348  1  0.24984340  0.38423753  0.74292289  1
  O  O349  1  0.25782926  0.89361333  0.23470523  1
  O  O350  1  0.24083089  0.88343148  0.74565548  1
  O  O351  1  0.75492808  0.39002129  0.24384697  1
  O  O352  1  0.74253274  0.38157936  0.74189002  1
  O  O353  1  0.75488138  0.87212968  0.23260407  1
  O  O354  1  0.74346538  0.88009661  0.74463920  1
  O  O355  1  0.25987914  0.11495431  0.24289886  1
  O  O356  1  0.24849410  0.10984944  0.74350492  1
  O  O357  1  0.24780438  0.60421290  0.24325928  1
  O  O358  1  0.25810024  0.61857791  0.75683173  1
  O  O359  1  0.76158960  0.12788867  0.24204653  1
  O  O360  1  0.75358789  0.12015621  0.74507625  1
  O  O361  1  0.74397329  0.61835414  0.25951322  1
  O  O362  1  0.75427636  0.61872287  0.75660527  1
  O  O363  1  0.38185451  0.11048319  0.36890435  1
  O  O364  1  0.38466911  0.11025980  0.87214052  1
  O  O365  1  0.38655669  0.59109552  0.45124042  1
  O  O366  1  0.36997757  0.61753366  0.86652046  1
  O  O367  1  0.87889913  0.11507182  0.36242802  1
  O  O368  1  0.87026692  0.11791932  0.86305147  1
  O  O369  1  0.86954134  0.61351147  0.38194757  1
  O  O370  1  0.86773829  0.61845402  0.86912976  1
  O  O371  1  0.12842827  0.37536993  0.13138351  1
  O  O372  1  0.13284132  0.38488908  0.62548461  1
  O  O373  1  0.13616499  0.89133978  0.12636830  1
  O  O374  1  0.12582777  0.88059638  0.63410543  1
  O  O375  1  0.63442516  0.38967126  0.12080990  1
  O  O376  1  0.62763008  0.38506003  0.62533556  1
  O  O377  1  0.64106768  0.87371524  0.11822706  1
  O  O378  1  0.62930668  0.88018699  0.63214016  1
  O  O379  1  0.12154805  0.25344104  0.25281384  1
  O  O380  1  0.11896742  0.25121872  0.75810731  1
  O  O381  1  0.16173875  0.76529706  0.25581971  1
  O  O382  1  0.12746712  0.76377598  0.76022306  1
  O  O383  1  0.61465103  0.24571775  0.25532390  1
  O  O384  1  0.62538142  0.26448019  0.74349225  1
  O  O385  1  0.61346530  0.75900993  0.24507771  1
  O  O386  1  0.63132815  0.76227907  0.75208419  1
  O  O387  1  0.38477136  0.23514071  0.25943490  1
  O  O388  1  0.37483979  0.24457477  0.74326518  1
  O  O389  1  0.37459322  0.75293635  0.23508068  1
  O  O390  1  0.36924244  0.73895647  0.75359750  1
  O  O391  1  0.88306676  0.24579083  0.24859134  1
  O  O392  1  0.87916256  0.24620780  0.73847573  1
  O  O393  1  0.87606112  0.73150738  0.24437062  1
  O  O394  1  0.86691096  0.73594317  0.74665996  1
  O  O395  1  0.36595238  0.46967766  0.51910931  1
  O  O396  1  0.37186611  0.50168575  0.98367884  1
  O  O397  1  0.38115155  1.00222991  0.49797545  1
  O  O398  1  0.38491971  0.99874667  0.99445575  1
  O  O399  1  0.88093134  0.49439767  0.49326465  1
  O  O400  1  0.88207929  0.50119701  0.98574144  1
  O  O401  1  0.88212712  0.99421024  0.49197769  1
  O  O402  1  0.87680424  0.99026603  0.99127533  1
  O  O403  1  0.11371209  -0.00247171  0.00507909  1
  O  O404  1  0.11734212  -0.00007950  0.50303210  1
  O  O405  1  0.11049315  0.49233399  -0.00470999  1
  O  O406  1  0.13007074  0.50946320  0.51294358  1
  O  O407  1  0.61542139  0.00906568  -0.00512235  1
  O  O408  1  0.61777473  0.00462364  0.50742940  1
  O  O409  1  0.62355443  0.51034395  0.00827568  1
  O  O410  1  0.63897623  0.51666636  0.51385666  1
  O  O411  1  0.36783950  0.37396858  0.12064104  1
  O  O412  1  0.37159542  0.35982313  0.62712388  1
  O  O413  1  0.37221841  0.86852326  0.12277447  1
  O  O414  1  0.35993703  0.88359752  0.62714209  1
  O  O415  1  0.86134998  0.37607924  0.12671683  1
  O  O416  1  0.87538148  0.37377348  0.61787018  1
  O  O417  1  0.86766525  0.87076542  0.11313650  1
  O  O418  1  0.87127399  0.86935674  0.61804410  1
  O  O419  1  0.11777470  0.13656880  0.37345414  1
  O  O420  1  0.11975671  0.13968444  0.87061418  1
  O  O421  1  0.12711872  0.61901012  0.39555929  1
  O  O422  1  0.13420155  0.63513495  0.86474362  1
  O  O423  1  0.62173457  0.11655691  0.39058471  1
  O  O424  1  0.62432827  0.12753394  0.88618070  1
  O  O425  1  0.63927344  0.62297486  0.38670816  1
  O  O426  1  0.62652830  0.62197494  0.88227454  1
