# generated using pymatgen
data_V85Zn86O256
_symmetry_space_group_name_H-M   'P 1'
_cell_length_a   16.94127196
_cell_length_b   16.95209397
_cell_length_c   16.93541525
_cell_angle_alpha   89.92700801
_cell_angle_beta   90.02673091
_cell_angle_gamma   89.97111300
_symmetry_Int_Tables_number   1
_chemical_formula_structural   V85Zn86O256
_chemical_formula_sum   'V85 Zn86 O256'
_cell_volume   4863.67738705
_cell_formula_units_Z   1
loop_
 _symmetry_equiv_pos_site_id
 _symmetry_equiv_pos_as_xyz
  1  'x, y, z'
loop_
 _atom_site_type_symbol
 _atom_site_label
 _atom_site_symmetry_multiplicity
 _atom_site_fract_x
 _atom_site_fract_y
 _atom_site_fract_z
 _atom_site_occupancy
  V  V0  1  0.50149520  0.87246161  0.36851077  1
  V  V1  1  0.24952164  -0.00884281  0.24803250  1
  V  V2  1  0.29495343  0.43069301  0.18112103  1
  V  V3  1  0.62341207  0.13047096  -0.00372162  1
  V  V4  1  0.12028572  0.12839958  0.00401785  1
  V  V5  1  0.74663456  0.37695206  0.62562050  1
  V  V6  1  0.87483612  0.62807630  0.25234920  1
  V  V7  1  0.87522205  0.11348725  0.75504132  1
  V  V8  1  0.12747660  0.37458660  0.75300962  1
  V  V9  1  0.49743298  -0.00178068  0.00173180  1
  V  V10  1  0.74554493  0.74859557  -0.02176449  1
  V  V11  1  0.74865341  0.50051755  0.25249454  1
  V  V12  1  0.87334600  0.37654883  -0.00187638  1
  V  V13  1  0.74801507  0.37638816  0.12456423  1
  V  V14  1  0.36775108  0.24858249  0.12557256  1
  V  V15  1  0.26045390  0.60729782  0.36818727  1
  V  V16  1  0.24844232  0.75051198  0.48728015  1
  V  V17  1  0.74850613  0.50413574  0.75316981  1
  V  V18  1  0.00119354  0.37150687  0.87535183  1
  V  V19  1  0.62607134  0.74199718  0.37762523  1
  V  V20  1  0.50694836  -0.00305894  0.50105103  1
  V  V21  1  0.37783531  0.63329891  0.74977860  1
  V  V22  1  0.24653045  0.12404821  0.37559258  1
  V  V23  1  0.74994557  0.87248969  0.12661925  1
  V  V24  1  0.00845066  0.37783690  0.37246066  1
  V  V25  1  0.37847556  0.50096146  0.87013332  1
  V  V26  1  0.24689536  0.87661853  0.62329425  1
  V  V27  1  0.12011021  0.63237027  0.49899910  1
  V  V28  1  0.00671060  0.25306335  0.24843257  1
  V  V29  1  0.54278461  0.56253550  0.56525477  1
  V  V30  1  0.00215123  0.74240820  0.73716668  1
  V  V31  1  0.37303200  0.37608997  -0.00274229  1
  V  V32  1  0.01312240  0.87692930  0.36824436  1
  V  V33  1  0.37822288  0.73615159  0.12212827  1
  V  V34  1  0.24721301  0.00126243  0.74947837  1
  V  V35  1  0.74836055  0.74335519  0.50856405  1
  V  V36  1  0.62622399  0.62856929  -0.02714467  1
  V  V37  1  0.24317054  0.13004122  0.87480513  1
  V  V38  1  0.51555588  0.75998748  0.75471821  1
  V  V39  1  0.74518639  0.25281445  -0.00357842  1
  V  V40  1  0.12167587  0.49144837  0.14094067  1
  V  V41  1  0.87385010  0.37582376  0.50011047  1
  V  V42  1  0.25348632  0.37388103  0.61865140  1
  V  V43  1  0.24476507  0.25623821  -0.00269698  1
  V  V44  1  0.75440526  0.12469751  0.37582093  1
  V  V45  1  0.12594839  0.62042235  -0.00157423  1
  V  V46  1  0.50502960  0.12225692  0.62632056  1
  V  V47  1  0.37436915  -0.00552519  0.87504811  1
  V  V48  1  0.00443797  0.24845829  0.75205814  1
  V  V49  1  0.25199126  0.50457278  0.74646721  1
  V  V50  1  -0.00187356  0.00107347  -0.00337869  1
  V  V51  1  0.37735620  0.75206438  0.62790020  1
  V  V52  1  0.50519267  0.24604962  0.75816194  1
  V  V53  1  0.12276078  0.00299098  0.62006078  1
  V  V54  1  -0.00175506  0.12062147  0.62238649  1
  V  V55  1  0.48576999  0.37968289  0.39212991  1
  V  V56  1  0.50741096  0.37158978  0.87526637  1
  V  V57  1  0.63555726  -0.01701371  0.63997124  1
  V  V58  1  0.75447952  0.12371759  0.87560648  1
  V  V59  1  0.87316107  0.50001288  0.37627954  1
  V  V60  1  0.87987606  0.62412737  0.73786364  1
  V  V61  1  0.12183028  0.75029407  0.87734696  1
  V  V62  1  0.86877359  0.88125803  0.49339248  1
  V  V63  1  0.87514895  0.24889951  0.62600086  1
  V  V64  1  0.00269017  0.62748671  0.12607108  1
  V  V65  1  0.50113790  0.50581990  -0.00237857  1
  V  V66  1  0.87876976  0.24735265  0.12497817  1
  V  V67  1  -0.00080756  0.50408828  0.50886035  1
  V  V68  1  0.62677774  0.37431147  0.25216166  1
  V  V69  1  0.62519204  0.25149092  0.37970203  1
  V  V70  1  0.11954177  -0.00238731  0.12896590  1
  V  V71  1  0.37669051  0.00118840  0.37310924  1
  V  V72  1  0.88102488  0.12329246  0.24848293  1
  V  V73  1  0.87407612  0.50985750  0.87629127  1
  V  V74  1  0.87937296  0.87674814  -0.00048706  1
  V  V75  1  0.37512563  0.87510675  0.49943984  1
  V  V76  1  0.62696900  0.36740498  0.75064054  1
  V  V77  1  0.86705884  0.74595473  0.12367842  1
  V  V78  1  0.62326655  0.00092772  0.12912002  1
  V  V79  1  0.49744190  0.72939877  0.24556594  1
  V  V80  1  0.75475221  -0.00045032  0.25439084  1
  V  V81  1  0.11598273  0.87535969  0.74897760  1
  V  V82  1  0.37597435  0.12476959  0.75076952  1
  V  V83  1  0.49853241  0.24880821  0.25092933  1
  V  V84  1  0.62471941  0.51377888  0.12406527  1
  Zn  Zn85  1  0.49880710  0.12706133  0.12513233  1
  Zn  Zn86  1  0.24969914  0.62752636  0.87402777  1
  Zn  Zn87  1  0.25324965  0.25287104  0.49638928  1
  Zn  Zn88  1  0.37588727  0.87118037  0.00146355  1
  Zn  Zn89  1  0.63094502  0.12136192  0.50403009  1
  Zn  Zn90  1  0.80865946  -0.04996808  0.82715148  1
  Zn  Zn91  1  0.52367709  0.87532750  0.87519384  1
  Zn  Zn92  1  0.38312231  0.25630486  0.62069925  1
  Zn  Zn93  1  -0.00817592  0.00333461  0.48860320  1
  Zn  Zn94  1  0.12341314  0.50549244  0.62626127  1
  Zn  Zn95  1  0.87784615  0.74533715  0.61830026  1
  Zn  Zn96  1  0.62534482  0.87158015  0.24907479  1
  Zn  Zn97  1  0.12149421  0.13084779  0.49726744  1
  Zn  Zn98  1  0.12639218  0.25227015  0.37501948  1
  Zn  Zn99  1  0.25371936  0.87218784  0.12355010  1
  Zn  Zn100  1  0.02684718  0.75162051  0.26236887  1
  Zn  Zn101  1  0.74979647  0.24923584  0.50206470  1
  Zn  Zn102  1  -0.00419025  0.87473721  0.87425490  1
  Zn  Zn103  1  0.25086414  0.75129638  0.00007528  1
  Zn  Zn104  1  0.00080841  0.49815604  0.00069755  1
  Zn  Zn105  1  0.74522064  0.62200201  0.37972551  1
  Zn  Zn106  1  0.37446181  0.12298641  0.24859574  1
  Zn  Zn107  1  0.18918883  0.18283159  0.18729069  1
  Zn  Zn108  1  0.18518736  0.19003256  0.68685253  1
  Zn  Zn109  1  0.19131423  0.68482585  0.18841551  1
  Zn  Zn110  1  0.18796877  0.68905247  0.68189350  1
  Zn  Zn111  1  0.68878766  0.18698154  0.18629893  1
  Zn  Zn112  1  0.68842658  0.18459340  0.69001887  1
  Zn  Zn113  1  0.68634623  0.68745158  0.19104350  1
  Zn  Zn114  1  0.68516013  0.67587802  0.67970512  1
  Zn  Zn115  1  0.31316479  0.31018145  0.31677611  1
  Zn  Zn116  1  0.31690430  0.31238202  0.80890634  1
  Zn  Zn117  1  0.31731246  0.81006824  0.30716264  1
  Zn  Zn118  1  0.30588901  0.81600427  0.81389956  1
  Zn  Zn119  1  0.81516519  0.31198837  0.31368732  1
  Zn  Zn120  1  0.81575031  0.30914149  0.81336236  1
  Zn  Zn121  1  0.81458761  0.81217240  0.31702119  1
  Zn  Zn122  1  0.69862345  0.82588627  0.79262714  1
  Zn  Zn123  1  0.18502634  0.44366293  0.43753476  1
  Zn  Zn124  1  0.18739702  0.43991901  0.93391996  1
  Zn  Zn125  1  0.18546651  0.93957689  0.43643947  1
  Zn  Zn126  1  0.18643290  0.93474646  0.94130577  1
  Zn  Zn127  1  0.67600878  0.44282112  0.44597929  1
  Zn  Zn128  1  0.68611427  0.44064504  0.93283928  1
  Zn  Zn129  1  0.68763322  0.93191222  0.43740782  1
  Zn  Zn130  1  0.68614553  0.93891546  0.94944244  1
  Zn  Zn131  1  0.31006253  0.06511117  0.06266623  1
  Zn  Zn132  1  0.31748300  0.06733102  0.55987941  1
  Zn  Zn133  1  0.31259088  0.56789015  0.05900335  1
  Zn  Zn134  1  0.32465545  0.56909810  0.55256995  1
  Zn  Zn135  1  0.81197277  0.06329434  0.06513805  1
  Zn  Zn136  1  0.81191073  0.05974322  0.56409843  1
  Zn  Zn137  1  0.80693744  0.56554241  0.05859677  1
  Zn  Zn138  1  0.80496900  0.56027902  0.56338830  1
  Zn  Zn139  1  0.45773354  0.44045238  0.19108953  1
  Zn  Zn140  1  0.42461298  0.46137195  0.64730327  1
  Zn  Zn141  1  0.43362959  0.93278895  0.18505929  1
  Zn  Zn142  1  0.44072657  0.93631188  0.68762503  1
  Zn  Zn143  1  0.93718378  0.43788815  0.18795323  1
  Zn  Zn144  1  0.93497632  0.43655297  0.68850205  1
  Zn  Zn145  1  0.93974233  0.93610240  0.18739486  1
  Zn  Zn146  1  0.89211336  0.89960208  0.70372477  1
  Zn  Zn147  1  0.06099246  0.05983674  0.31209682  1
  Zn  Zn148  1  0.06164858  0.06160583  0.81500652  1
  Zn  Zn149  1  0.06425033  0.56732398  0.31916658  1
  Zn  Zn150  1  0.06143834  0.56035494  0.81288109  1
  Zn  Zn151  1  0.56494996  0.06502718  0.31417005  1
  Zn  Zn152  1  0.56791014  0.05757578  0.81624110  1
  Zn  Zn153  1  0.56013850  0.55722027  0.32066096  1
  Zn  Zn154  1  0.55331069  0.55173788  0.76524944  1
  Zn  Zn155  1  0.43484404  0.18837778  0.44071962  1
  Zn  Zn156  1  0.43321368  0.18470798  0.93784562  1
  Zn  Zn157  1  0.43692616  0.68310726  0.43908317  1
  Zn  Zn158  1  0.44238935  0.68791450  0.93259750  1
  Zn  Zn159  1  0.93624495  0.19006654  0.43553439  1
  Zn  Zn160  1  0.93839498  0.18860355  0.93840032  1
  Zn  Zn161  1  0.93849798  0.69302040  0.43277308  1
  Zn  Zn162  1  0.93912749  0.68909031  0.93737490  1
  Zn  Zn163  1  0.06181679  0.31213962  0.06202187  1
  Zn  Zn164  1  0.06711464  0.31343565  0.56168321  1
  Zn  Zn165  1  0.06998636  0.80401095  0.08283330  1
  Zn  Zn166  1  0.05813484  0.81674311  0.55571913  1
  Zn  Zn167  1  0.56099800  0.31548286  0.06504677  1
  Zn  Zn168  1  0.56456456  0.31002221  0.56586836  1
  Zn  Zn169  1  0.56281983  0.80946397  0.06144133  1
  Zn  Zn170  1  0.56218578  0.80336336  0.56340990  1
  O  O171  1  0.13108690  0.11518870  0.11107219  1
  O  O172  1  0.11753968  0.11958444  0.62419214  1
  O  O173  1  0.11747642  0.61122257  0.11710671  1
  O  O174  1  0.13395344  0.62120013  0.60533865  1
  O  O175  1  0.62323257  0.11889833  0.11637269  1
  O  O176  1  0.61573927  0.11767966  0.62642076  1
  O  O177  1  0.62831693  0.61453481  0.12164136  1
  O  O178  1  0.61129999  0.61452938  0.62480956  1
  O  O179  1  0.38717889  0.36725602  0.37920686  1
  O  O180  1  0.38650333  0.38072928  0.87669629  1
  O  O181  1  0.38290652  0.88031343  0.37953470  1
  O  O182  1  0.37211357  0.88906436  0.87659906  1
  O  O183  1  0.88033459  0.38165688  0.38245361  1
  O  O184  1  0.88216715  0.38049347  0.88019672  1
  O  O185  1  0.88179488  0.87070866  0.38817103  1
  O  O186  1  0.87749581  0.87941660  0.89638821  1
  O  O187  1  0.25502003  0.00292893  0.36689525  1
  O  O188  1  0.25440625  0.00732402  0.86957662  1
  O  O189  1  0.25635710  0.50698253  0.37801371  1
  O  O190  1  0.25879857  0.49993753  0.86100217  1
  O  O191  1  0.74083886  0.00786270  0.36130637  1
  O  O192  1  0.75603325  0.01905205  0.89721340  1
  O  O193  1  0.75252105  0.49996843  0.37178009  1
  O  O194  1  0.76442045  0.49135519  0.86621396  1
  O  O195  1  0.23792343  0.49936137  0.12321705  1
  O  O196  1  0.25305164  0.49260246  0.63463333  1
  O  O197  1  0.24340330  1.00248507  0.13273104  1
  O  O198  1  0.24258887  0.99856005  0.62952703  1
  O  O199  1  0.74270531  0.49516297  0.12939116  1
  O  O200  1  0.75527123  0.48506497  0.63701027  1
  O  O201  1  0.74110160  0.99605507  0.13311603  1
  O  O202  1  0.73298090  1.00204810  0.62091756  1
  O  O203  1  -0.00988348  0.36593797  0.26076662  1
  O  O204  1  0.00596309  0.36875026  0.75386559  1
  O  O205  1  -0.00866877  0.87030877  0.26340170  1
  O  O206  1  -0.00184568  0.86221549  0.75238653  1
  O  O207  1  0.50854613  0.36199704  0.25726872  1
  O  O208  1  0.51118031  0.36271079  0.75848294  1
  O  O209  1  0.50198304  0.87641851  0.26188976  1
  O  O210  1  0.49778285  0.86328733  0.75554199  1
  O  O211  1  0.50041503  0.13796368  0.24914536  1
  O  O212  1  0.49927777  0.12843753  0.74848893  1
  O  O213  1  0.50052479  0.63138116  0.25147611  1
  O  O214  1  0.48517810  0.64408664  0.75404951  1
  O  O215  1  0.98592382  0.13337310  0.25614709  1
  O  O216  1  0.99612528  0.13221921  0.74693031  1
  O  O217  1  0.99382393  0.62991474  0.24394017  1
  O  O218  1  0.99348287  0.62918651  0.75119927  1
  O  O219  1  0.36977268  0.25686504  0.00726712  1
  O  O220  1  0.36536018  0.23765606  0.51123881  1
  O  O221  1  0.38170288  0.74846026  0.01072359  1
  O  O222  1  0.36836342  0.75754564  0.50890366  1
  O  O223  1  0.86854765  0.25552206  0.00810074  1
  O  O224  1  0.87309399  0.25838145  0.50751577  1
  O  O225  1  0.86375580  0.75289359  0.00387655  1
  O  O226  1  0.86112923  0.75115266  0.49657469  1
  O  O227  1  0.13309739  0.24837147  0.49637147  1
  O  O228  1  0.13363877  0.24353932  1.00465687  1
  O  O229  1  0.13308246  0.74037440  0.50370247  1
  O  O230  1  0.12215290  0.73791195  0.99435332  1
  O  O231  1  0.62849622  0.24418397  0.49221560  1
  O  O232  1  0.63264697  0.24272871  1.00858010  1
  O  O233  1  0.64047403  0.75915659  0.49153659  1
  O  O234  1  0.62877625  0.73583144  0.99827629  1
  O  O235  1  0.48794430  0.25306782  0.13238810  1
  O  O236  1  0.50334642  0.23949282  0.63833640  1
  O  O237  1  0.49596179  0.75165027  0.13864929  1
  O  O238  1  0.48765626  0.76076499  0.64082520  1
  O  O239  1  0.98650967  0.25814296  0.13177054  1
  O  O240  1  0.99669411  0.24088407  0.63142219  1
  O  O241  1  0.97675689  0.73419830  0.11189416  1
  O  O242  1  1.00731514  0.74751397  0.63436464  1
  O  O243  1  -0.00018162  0.25999375  0.36645843  1
  O  O244  1  -0.00475240  0.26283585  0.86713758  1
  O  O245  1  0.00296075  0.76374414  0.37207238  1
  O  O246  1  0.01042478  0.75014288  0.86786038  1
  O  O247  1  0.50742810  0.25313397  0.36922580  1
  O  O248  1  0.49335310  0.25406396  0.86595613  1
  O  O249  1  0.50245073  0.75496992  0.36335799  1
  O  O250  1  0.49882178  0.75716889  0.85902914  1
  O  O251  1  0.24670707  0.11660141  0.48484736  1
  O  O252  1  0.24427021  0.13510217  0.99236063  1
  O  O253  1  0.24604092  0.63272361  0.49225540  1
  O  O254  1  0.24025445  0.62919247  0.99501669  1
  O  O255  1  0.75088312  0.12597737  0.48959695  1
  O  O256  1  0.74381185  0.13526255  0.99980753  1
  O  O257  1  0.75075319  0.63767378  0.49740485  1
  O  O258  1  0.73567705  0.63274739  0.99585840  1
  O  O259  1  0.25542900  0.36410856  -0.01012334  1
  O  O260  1  0.24463861  0.38037562  0.51673178  1
  O  O261  1  0.25567341  0.86920090  0.00218991  1
  O  O262  1  0.25428563  0.87116997  0.50354520  1
  O  O263  1  0.75135775  0.36939235  0.00314122  1
  O  O264  1  0.75267134  0.37650014  0.50985997  1
  O  O265  1  0.75695775  0.86627670  0.01024752  1
  O  O266  1  0.76176336  0.86342045  0.49284305  1
  O  O267  1  0.11832727  0.50044728  0.23980105  1
  O  O268  1  0.13363919  0.49501603  0.74734140  1
  O  O269  1  0.13181676  1.00816109  0.23476825  1
  O  O270  1  0.12580374  0.99672968  0.74013032  1
  O  O271  1  0.62780068  0.49571920  0.24223602  1
  O  O272  1  0.64184252  0.47986886  0.76826771  1
  O  O273  1  0.63041846  1.00180176  0.23968389  1
  O  O274  1  0.62412468  0.99722756  0.73963025  1
  O  O275  1  0.36856451  0.00150583  0.25506242  1
  O  O276  1  0.37007349  0.00470118  0.75703912  1
  O  O277  1  0.36125188  0.48463928  0.23215507  1
  O  O278  1  0.37016818  0.51397421  0.74902299  1
  O  O279  1  0.86493873  0.01042901  0.23864587  1
  O  O280  1  0.88484585  0.01179268  0.75338074  1
  O  O281  1  0.86988359  0.50913868  0.25473519  1
  O  O282  1  0.87018085  0.50377873  0.75707014  1
  O  O283  1  0.11164952  0.37629024  0.37762223  1
  O  O284  1  0.11667916  0.38025791  0.86175083  1
  O  O285  1  0.11365866  0.87721604  0.37351007  1
  O  O286  1  0.12058849  0.86783055  0.86761063  1
  O  O287  1  0.62423505  0.36323128  0.37190182  1
  O  O288  1  0.61296236  0.37107297  0.87535387  1
  O  O289  1  0.61717116  0.86368129  0.37149420  1
  O  O290  1  0.63671612  0.88096111  0.87038609  1
  O  O291  1  0.37840380  0.13537410  0.12617721  1
  O  O292  1  0.39075790  0.11744595  0.63510548  1
  O  O293  1  0.38052129  0.63589508  0.12189526  1
  O  O294  1  0.36208300  0.64661455  0.63602664  1
  O  O295  1  0.86873172  0.13848460  0.13366143  1
  O  O296  1  0.88035098  0.12862676  0.63308981  1
  O  O297  1  0.87879617  0.62534716  0.13141679  1
  O  O298  1  0.87446523  0.62185538  0.63396810  1
  O  O299  1  0.25994034  0.24577563  0.11585722  1
  O  O300  1  0.24864600  0.26642135  0.62989059  1
  O  O301  1  0.26901815  0.74696850  0.12463923  1
  O  O302  1  0.25465930  0.76192306  0.61686510  1
  O  O303  1  0.75734318  0.25681018  0.11749962  1
  O  O304  1  0.75787335  0.25669863  0.62634667  1
  O  O305  1  0.75561896  0.75064392  0.12041831  1
  O  O306  1  0.75023359  0.74557804  0.61146176  1
  O  O307  1  0.24597486  0.23826713  0.37326653  1
  O  O308  1  0.25804201  0.24049207  0.88268253  1
  O  O309  1  0.25451161  0.75432627  0.38595872  1
  O  O310  1  0.23397276  0.74897720  0.87490384  1
  O  O311  1  0.74259059  0.24345112  0.37493171  1
  O  O312  1  0.75485450  0.24302209  0.89020217  1
  O  O313  1  0.74023791  0.74640784  0.37969399  1
  O  O314  1  0.75051960  0.75265269  0.88041120  1
  O  O315  1  0.00985198  0.11941075  -0.00415749  1
  O  O316  1  -0.00233273  0.12284590  0.50737792  1
  O  O317  1  0.00566068  0.62020255  0.00778514  1
  O  O318  1  0.01170878  0.62056840  0.49284445  1
  O  O319  1  0.50670978  0.11677483  0.00025482  1
  O  O320  1  0.50377311  0.11423884  0.50952845  1
  O  O321  1  0.51361221  0.61643981  -0.00769293  1
  O  O322  1  0.51319170  0.64794357  0.51159317  1
  O  O323  1  0.50119931  0.36646114  0.49114812  1
  O  O324  1  0.49425103  0.38052527  0.99294312  1
  O  O325  1  0.49624797  0.87793429  0.48966017  1
  O  O326  1  0.50175491  0.88773958  0.99657912  1
  O  O327  1  0.99443650  0.38354496  0.49408539  1
  O  O328  1  0.99418049  0.37600951  0.99060765  1
  O  O329  1  0.99344483  0.87847839  0.48497651  1
  O  O330  1  0.99422151  0.88036228  1.00662367  1
  O  O331  1  0.50073360  0.47781626  0.37129167  1
  O  O332  1  0.49671839  0.49085103  0.87985131  1
  O  O333  1  0.49891919  0.99361825  0.38117827  1
  O  O334  1  0.49186317  0.99928287  0.88360440  1
  O  O335  1  0.99281016  0.49491303  0.38250171  1
  O  O336  1  0.99158961  0.48711108  0.87417360  1
  O  O337  1  0.99941479  0.98666125  0.37283643  1
  O  O338  1  1.00541344  0.99600602  0.89170463  1
  O  O339  1  0.01408980  -0.00071424  0.11995997  1
  O  O340  1  0.00636772  0.01521234  0.62461077  1
  O  O341  1  0.00566314  0.50962612  0.12492485  1
  O  O342  1  -0.00152625  0.49566549  0.61188159  1
  O  O343  1  0.50584145  0.00231458  0.11977413  1
  O  O344  1  0.50860302  0.00313620  0.61836777  1
  O  O345  1  0.51192850  0.49313863  0.10726163  1
  O  O346  1  0.52559655  0.50334977  0.66215339  1
  O  O347  1  0.24616255  0.37060785  0.24348534  1
  O  O348  1  0.24303222  0.38205309  0.74735468  1
  O  O349  1  0.25339844  0.88721761  0.24797449  1
  O  O350  1  0.23813862  0.88356767  0.74358686  1
  O  O351  1  0.74587050  0.38076552  0.24570361  1
  O  O352  1  0.74689709  0.37565843  0.74593153  1
  O  O353  1  0.74994899  0.88311871  0.24592739  1
  O  O354  1  0.78663923  0.87825891  0.74704285  1
  O  O355  1  0.25213876  0.11487234  0.25990648  1
  O  O356  1  0.25280217  0.12179146  0.75631486  1
  O  O357  1  0.24246706  0.62759381  0.27011442  1
  O  O358  1  0.25587969  0.61971120  0.75087078  1
  O  O359  1  0.75764476  0.11946335  0.25438774  1
  O  O360  1  0.76036708  0.13048881  0.76384784  1
  O  O361  1  0.75709368  0.61684475  0.25234801  1
  O  O362  1  0.75848401  0.61031712  0.74492603  1
  O  O363  1  0.36937763  0.11542594  0.37246298  1
  O  O364  1  0.36517443  0.11461431  0.87073748  1
  O  O365  1  0.36007308  0.62694232  0.38023019  1
  O  O366  1  0.37214749  0.61981955  0.86713750  1
  O  O367  1  0.86187902  0.13143727  0.36507439  1
  O  O368  1  0.86845390  0.13170044  0.86694781  1
  O  O369  1  0.87444693  0.61841579  0.36635824  1
  O  O370  1  0.88216072  0.61267328  0.86821581  1
  O  O371  1  0.11728605  0.39344057  0.12058406  1
  O  O372  1  0.13299538  0.38025528  0.63739535  1
  O  O373  1  0.13375797  0.89698532  0.11466346  1
  O  O374  1  0.12565543  0.88434901  0.62907260  1
  O  O375  1  0.63064281  0.38331907  0.13150691  1
  O  O376  1  0.63644226  0.36630631  0.63717858  1
  O  O377  1  0.63083467  0.88328290  0.12614477  1
  O  O378  1  0.62101828  0.88476517  0.62309800  1
  O  O379  1  0.10912679  0.24329776  0.24586792  1
  O  O380  1  0.11232446  0.25779832  0.74843924  1
  O  O381  1  0.10673157  0.75616621  0.18656630  1
  O  O382  1  0.11964286  0.75293291  0.75559047  1
  O  O383  1  0.61931629  0.25398674  0.25488616  1
  O  O384  1  0.62087767  0.25703936  0.75407202  1
  O  O385  1  0.61227163  0.75090657  0.25428637  1
  O  O386  1  0.61867030  0.75006473  0.74400171  1
  O  O387  1  0.38186275  0.24896456  0.24213248  1
  O  O388  1  0.38562287  0.24052787  0.74633881  1
  O  O389  1  0.39045759  0.75014506  0.23985760  1
  O  O390  1  0.37285192  0.74924338  0.74569529  1
  O  O391  1  0.87965238  0.24428489  0.24222399  1
  O  O392  1  0.88719269  0.24431930  0.74418236  1
  O  O393  1  0.86833035  0.73663906  0.24170239  1
  O  O394  1  0.88794135  0.73463210  0.74345707  1
  O  O395  1  0.42774732  0.52432020  0.55068209  1
  O  O396  1  0.38297499  0.49671317  0.99407817  1
  O  O397  1  0.38807163  0.99406106  0.49547287  1
  O  O398  1  0.38316785  1.00294746  0.99389359  1
  O  O399  1  0.87950159  0.49725790  0.49515674  1
  O  O400  1  0.87467225  0.49520805  0.99289873  1
  O  O401  1  0.87267293  0.98583729  0.50069855  1
  O  O402  1  0.88771366  0.99121087  1.01769553  1
  O  O403  1  0.11926931  0.00946190  0.00687821  1
  O  O404  1  0.12103281  0.00158422  0.51285856  1
  O  O405  1  0.12327262  0.50998114  0.00034731  1
  O  O406  1  0.11460428  0.50899635  0.50332819  1
  O  O407  1  0.61820990  0.00916225  0.01305078  1
  O  O408  1  0.61525245  -0.00113335  0.50111163  1
  O  O409  1  0.62165889  0.51105025  0.00179411  1
  O  O410  1  0.60371232  0.50673065  0.50518062  1
  O  O411  1  0.36623014  0.37273304  0.12066867  1
  O  O412  1  0.35770301  0.37187438  0.63639424  1
  O  O413  1  0.37484089  0.86127363  0.12099412  1
  O  O414  1  0.36786857  0.87211913  0.62000081  1
  O  O415  1  0.86753870  0.37112321  0.11792695  1
  O  O416  1  0.86892117  0.36822797  0.62041075  1
  O  O417  1  0.87009092  0.86275833  0.12136622  1
  O  O418  1  0.88948446  0.86165561  0.59769709  1
  O  O419  1  0.13219331  0.12530972  0.37558694  1
  O  O420  1  0.13690112  0.12094676  0.88378897  1
  O  O421  1  0.13736577  0.62018434  0.39165733  1
  O  O422  1  0.12407845  0.63015272  0.88221544  1
  O  O423  1  0.63558189  0.13584752  0.37419795  1
  O  O424  1  0.63318503  0.12173400  0.88992772  1
  O  O425  1  0.62382315  0.63781632  0.37060962  1
  O  O426  1  0.62252149  0.61903314  0.87680881  1
