# generated using pymatgen
data_V85Zn86O256
_symmetry_space_group_name_H-M   'P 1'
_cell_length_a   16.96050568
_cell_length_b   16.97240466
_cell_length_c   16.97176528
_cell_angle_alpha   89.87654739
_cell_angle_beta   89.93818377
_cell_angle_gamma   89.98472884
_symmetry_Int_Tables_number   1
_chemical_formula_structural   V85Zn86O256
_chemical_formula_sum   'V85 Zn86 O256'
_cell_volume   4885.48760069
_cell_formula_units_Z   1
loop_
 _symmetry_equiv_pos_site_id
 _symmetry_equiv_pos_as_xyz
  1  'x, y, z'
loop_
 _atom_site_type_symbol
 _atom_site_label
 _atom_site_symmetry_multiplicity
 _atom_site_fract_x
 _atom_site_fract_y
 _atom_site_fract_z
 _atom_site_occupancy
  V  V0  1  0.89483927  0.74228423  0.63775833  1
  V  V1  1  0.50187823  0.12518295  0.62596389  1
  V  V2  1  0.23932379  0.12491494  0.87790561  1
  V  V3  1  0.37713866  0.74815624  0.12486458  1
  V  V4  1  0.75241563  0.49741498  0.75429743  1
  V  V5  1  0.37031239  0.49824313  0.87702095  1
  V  V6  1  0.62491001  0.12893180  0.48823697  1
  V  V7  1  0.25035072  0.36358840  0.13009019  1
  V  V8  1  0.37606397  0.38126535  0.49927704  1
  V  V9  1  0.24882820  0.87310010  0.12868946  1
  V  V10  1  0.86959127  0.24949403  0.62697499  1
  V  V11  1  0.87862589  0.87908701  -0.00145075  1
  V  V12  1  0.38167555  0.62519756  0.24691673  1
  V  V13  1  0.12544101  0.75207212  0.86013684  1
  V  V14  1  0.50510542  0.49787451  0.00158958  1
  V  V15  1  0.12458083  0.50044012  0.12534704  1
  V  V16  1  0.62857769  0.88108801  0.75020743  1
  V  V17  1  0.49840166  0.37464039  0.87521351  1
  V  V18  1  0.75080010  0.25377719  0.49526227  1
  V  V19  1  0.62571558  0.24762425  0.87523136  1
  V  V20  1  -0.00472029  0.24254724  0.75335584  1
  V  V21  1  0.38904174  0.50193568  0.37623077  1
  V  V22  1  0.37221732  0.36908166  0.00602387  1
  V  V23  1  0.75452157  0.62445133  0.87015914  1
  V  V24  1  0.37422999  0.62684484  0.75318155  1
  V  V25  1  0.24923725  0.74834914  0.00079162  1
  V  V26  1  0.49891032  0.25150436  0.75115402  1
  V  V27  1  0.24529769  0.61785031  0.87665461  1
  V  V28  1  0.37411042  0.00089868  0.87489537  1
  V  V29  1  0.62365460  0.38679946  0.24158031  1
  V  V30  1  0.63066346  0.61946176  0.00006280  1
  V  V31  1  0.12312392  0.12633543  0.50252383  1
  V  V32  1  0.24819479  0.25334108  0.50565213  1
  V  V33  1  0.75375041  0.24998685  0.00410279  1
  V  V34  1  0.11514623  0.87218660  0.24789149  1
  V  V35  1  0.12543139  0.38512716  0.74920365  1
  V  V36  1  0.93293037  0.55677224  0.81729249  1
  V  V37  1  0.87961716  0.48557423  0.38155139  1
  V  V38  1  0.25000725  0.75118112  0.49744133  1
  V  V39  1  0.63315558  0.00162088  0.62702829  1
  V  V40  1  0.24827740  -0.00041559  0.74975415  1
  V  V41  1  0.50691779  0.62080266  0.12406145  1
  V  V42  1  0.00560805  0.87512592  0.86363125  1
  V  V43  1  0.12504936  -0.00425478  0.62677703  1
  V  V44  1  0.24871947  0.12986761  0.37546684  1
  V  V45  1  0.63163479  0.76085930  0.37684924  1
  V  V46  1  0.38071187  0.75144113  0.62590214  1
  V  V47  1  0.87728552  0.63072637  0.26040126  1
  V  V48  1  -0.00995394  0.50306964  0.00251984  1
  V  V49  1  0.00299138  0.00495875  -0.00249319  1
  V  V50  1  0.11730908  0.74787143  0.37197628  1
  V  V51  1  0.12717364  0.00848105  0.12127852  1
  V  V52  1  0.62603739  0.37470266  0.74452633  1
  V  V53  1  0.50014305  0.00248292  0.49966455  1
  V  V54  1  0.00636144  0.49306770  0.50604552  1
  V  V55  1  0.87686363  0.75350308  0.13060541  1
  V  V56  1  0.50112248  0.87398382  0.87540456  1
  V  V57  1  0.24859845  0.87564279  0.62879105  1
  V  V58  1  0.50403876  0.24541423  0.23461051  1
  V  V59  1  0.63190387  0.74718929  0.87480340  1
  V  V60  1  0.37354470  0.12682639  0.75167379  1
  V  V61  1  -0.00504511  0.12135498  0.62773395  1
  V  V62  1  0.74052576  0.87583811  0.12740810  1
  V  V63  1  0.24079678  0.24714581  0.00245222  1
  V  V64  1  0.25339967  0.49856040  0.24882620  1
  V  V65  1  0.37658555  0.87847767  0.49783576  1
  V  V66  1  0.37488685  0.25146726  0.62496935  1
  V  V67  1  0.50966266  0.75687355  0.24896623  1
  V  V68  1  0.87406424  0.87048600  0.49633696  1
  V  V69  1  0.24948051  0.62483935  0.37421442  1
  V  V70  1  0.37135035  0.13540952  0.23714463  1
  V  V71  1  0.37472635  0.87447616  -0.00000342  1
  V  V72  1  0.62128573  0.12562986  0.01063881  1
  V  V73  1  0.11041125  0.37796500  0.25693998  1
  V  V74  1  0.76997047  0.11904833  0.37213163  1
  V  V75  1  -0.00493079  -0.00234567  0.49177824  1
  V  V76  1  0.00020267  0.63111229  0.13495155  1
  V  V77  1  0.74151670  0.62560128  0.37926591  1
  V  V78  1  -0.00964804  0.37274297  0.87565952  1
  V  V79  1  0.75299619  0.11164397  0.87028523  1
  V  V80  1  0.50829538  0.36264641  0.37832238  1
  V  V81  1  0.49779354  0.00530363  0.00871709  1
  V  V82  1  0.37442419  0.00295738  0.37271436  1
  V  V83  1  0.12312530  0.62693404  0.00221156  1
  V  V84  1  0.74676052  0.74357285  0.50903414  1
  Zn  Zn85  1  0.11751508  0.26678990  0.38371909  1
  Zn  Zn86  1  0.75664863  0.87670352  0.62769484  1
  Zn  Zn87  1  0.87068428  0.38018152  0.00120389  1
  Zn  Zn88  1  0.50677584  0.88274724  0.36640639  1
  Zn  Zn89  1  0.11868535  0.24753176  0.87783397  1
  Zn  Zn90  1  0.86441378  0.08510192  0.74971051  1
  Zn  Zn91  1  -0.00116272  0.87407938  0.37186999  1
  Zn  Zn92  1  0.23129206  0.39688808  0.62288381  1
  Zn  Zn93  1  0.75583103  0.74981989  -0.00350920  1
  Zn  Zn94  1  0.62612755  0.50888056  0.60507972  1
  Zn  Zn95  1  0.74751712  0.00299664  0.25422292  1
  Zn  Zn96  1  0.11642712  0.62624002  0.51499265  1
  Zn  Zn97  1  -0.01433631  0.23607207  0.26247605  1
  Zn  Zn98  1  0.74696102  0.38672794  0.12070409  1
  Zn  Zn99  1  0.50130980  0.61753586  0.59894398  1
  Zn  Zn100  1  0.61815530  -0.00207286  0.13406407  1
  Zn  Zn101  1  -0.00924778  0.12811802  0.12755310  1
  Zn  Zn102  1  0.25009051  0.00269308  0.24980309  1
  Zn  Zn103  1  0.87714268  0.24923446  0.13417210  1
  Zn  Zn104  1  0.74702243  0.50615501  0.24817690  1
  Zn  Zn105  1  0.50271943  0.75030221  0.74609901  1
  Zn  Zn106  1  0.75309028  0.38105109  0.61944736  1
  Zn  Zn107  1  0.15481681  0.17806122  0.20268137  1
  Zn  Zn108  1  0.18304862  0.19017616  0.68901039  1
  Zn  Zn109  1  0.18781802  0.68778256  0.19043882  1
  Zn  Zn110  1  0.19608127  0.68845502  0.68847648  1
  Zn  Zn111  1  0.68888934  0.18765698  0.19318091  1
  Zn  Zn112  1  0.68835097  0.18459201  0.68745855  1
  Zn  Zn113  1  0.69186757  0.68948567  0.18751530  1
  Zn  Zn114  1  0.68818472  0.68662151  0.69087529  1
  Zn  Zn115  1  0.31248393  0.31120537  0.31435713  1
  Zn  Zn116  1  0.30753094  0.31290062  0.81453612  1
  Zn  Zn117  1  0.31335082  0.81284192  0.31118447  1
  Zn  Zn118  1  0.31034316  0.81250509  0.81173669  1
  Zn  Zn119  1  0.80760141  0.30849769  0.31157640  1
  Zn  Zn120  1  0.81190559  0.30808162  0.81410378  1
  Zn  Zn121  1  0.83629919  0.85131660  0.28991335  1
  Zn  Zn122  1  0.83739183  0.86900467  0.78870223  1
  Zn  Zn123  1  0.19039806  0.44349468  0.43762774  1
  Zn  Zn124  1  0.17876369  0.43510922  0.93711203  1
  Zn  Zn125  1  0.18631897  0.93769490  0.43764004  1
  Zn  Zn126  1  0.18597688  0.93542428  0.93866424  1
  Zn  Zn127  1  0.69425966  0.43283262  0.42852483  1
  Zn  Zn128  1  0.68880903  0.43814718  0.93082464  1
  Zn  Zn129  1  0.69048654  0.93810645  0.44060833  1
  Zn  Zn130  1  0.68504302  0.93573651  0.94603757  1
  Zn  Zn131  1  0.30736662  0.06238905  0.06083707  1
  Zn  Zn132  1  0.31263383  0.06511871  0.56222053  1
  Zn  Zn133  1  0.31307383  0.55803008  0.06250578  1
  Zn  Zn134  1  0.30285861  0.56773981  0.56563255  1
  Zn  Zn135  1  0.81332196  0.06124993  0.06244564  1
  Zn  Zn136  1  0.81437341  0.06356909  0.55807060  1
  Zn  Zn137  1  0.81050277  0.56462955  0.06936193  1
  Zn  Zn138  1  0.81925871  0.56448520  0.56610290  1
  Zn  Zn139  1  0.44035275  0.43479260  0.18703132  1
  Zn  Zn140  1  0.40499783  0.46017683  0.66790455  1
  Zn  Zn141  1  0.43258795  0.93969802  0.18921922  1
  Zn  Zn142  1  0.44044229  0.93845739  0.68844409  1
  Zn  Zn143  1  0.92522451  0.43895084  0.18606939  1
  Zn  Zn144  1  0.93888925  0.42693544  0.68070347  1
  Zn  Zn145  1  0.93285004  0.95116710  0.18337024  1
  Zn  Zn146  1  0.94462511  0.92827150  0.67720321  1
  Zn  Zn147  1  0.06523163  0.06127317  0.31321096  1
  Zn  Zn148  1  0.06037008  0.05769668  0.80964321  1
  Zn  Zn149  1  0.05975069  0.55851495  0.31758055  1
  Zn  Zn150  1  0.06685726  0.56287446  0.67737266  1
  Zn  Zn151  1  0.56371417  0.06529529  0.30477550  1
  Zn  Zn152  1  0.56340355  0.06263903  0.81631083  1
  Zn  Zn153  1  0.56603068  0.56055174  0.43271369  1
  Zn  Zn154  1  0.55439922  0.55834432  0.74473262  1
  Zn  Zn155  1  0.43603232  0.18866318  0.43565620  1
  Zn  Zn156  1  0.43246101  0.18773013  0.94098464  1
  Zn  Zn157  1  0.43696177  0.69646200  0.43114601  1
  Zn  Zn158  1  0.44036087  0.68535243  0.93564736  1
  Zn  Zn159  1  0.93762650  0.19237995  0.43937982  1
  Zn  Zn160  1  0.93039269  0.18152280  0.93672604  1
  Zn  Zn161  1  0.93577825  0.68352024  0.44823893  1
  Zn  Zn162  1  0.94221815  0.69667287  0.94082814  1
  Zn  Zn163  1  0.05843090  0.31372692  0.06677942  1
  Zn  Zn164  1  0.05558449  0.31411047  0.56425074  1
  Zn  Zn165  1  0.06184965  0.81375558  0.06097533  1
  Zn  Zn166  1  0.06358559  0.80989174  0.56192022  1
  Zn  Zn167  1  0.56400230  0.31185258  0.06363899  1
  Zn  Zn168  1  0.56510646  0.31434189  0.56208003  1
  Zn  Zn169  1  0.56126002  0.80782766  0.05716624  1
  Zn  Zn170  1  0.56422806  0.81460105  0.55847160  1
  O  O171  1  0.14307298  0.10725932  0.11303531  1
  O  O172  1  0.11870249  0.11772086  0.61992941  1
  O  O173  1  0.11834158  0.62098402  0.12438376  1
  O  O174  1  0.14928066  0.61403088  0.62351959  1
  O  O175  1  0.62901646  0.12448633  0.11255908  1
  O  O176  1  0.61881775  0.11770802  0.62010991  1
  O  O177  1  0.62221577  0.63335072  0.10831418  1
  O  O178  1  0.60863839  0.61699818  0.65199265  1
  O  O179  1  0.38243987  0.38099404  0.38070173  1
  O  O180  1  0.37522672  0.38137168  0.88183099  1
  O  O181  1  0.37407262  0.88663367  0.37909767  1
  O  O182  1  0.38077216  0.87991848  0.87948899  1
  O  O183  1  0.86603288  0.38884530  0.37472728  1
  O  O184  1  0.88609991  0.37043088  0.87941675  1
  O  O185  1  0.88375026  0.85604220  0.39285741  1
  O  O186  1  0.89834649  0.86230209  0.88528594  1
  O  O187  1  0.26026349  0.00849942  0.37664049  1
  O  O188  1  0.25310843  0.00470029  0.87138220  1
  O  O189  1  0.26175027  0.50846547  0.36844194  1
  O  O190  1  0.25360873  0.50923091  0.88518963  1
  O  O191  1  0.74572737  0.01765698  0.38123074  1
  O  O192  1  0.73835273  0.01393332  0.88030581  1
  O  O193  1  0.76205657  0.51062094  0.37160531  1
  O  O194  1  0.75588018  0.50656922  0.86495920  1
  O  O195  1  0.24353094  0.49423052  0.13075016  1
  O  O196  1  0.29590296  0.48545547  0.63680630  1
  O  O197  1  0.24556979  0.98696421  0.12368159  1
  O  O198  1  0.24552419  0.99431234  0.62718059  1
  O  O199  1  0.75104477  0.50005768  0.13531048  1
  O  O200  1  0.75099675  0.49979262  0.64027043  1
  O  O201  1  0.74806259  0.98354514  0.12039959  1
  O  O202  1  0.73579041  0.99846787  0.61783566  1
  O  O203  1  0.01115821  0.38314765  0.24662448  1
  O  O204  1  0.00396903  0.36455878  0.75723212  1
  O  O205  1  0.01296614  0.87842712  0.24969817  1
  O  O206  1  0.00915703  0.87614186  0.76524980  1
  O  O207  1  0.50388695  0.36514177  0.25621710  1
  O  O208  1  0.51002415  0.36589536  0.76009652  1
  O  O209  1  0.49246588  0.86115366  0.24789761  1
  O  O210  1  0.50643134  0.87327944  0.75998464  1
  O  O211  1  0.48791327  0.13974419  0.25398457  1
  O  O212  1  0.49306502  0.13116547  0.74774209  1
  O  O213  1  0.48859037  0.63640916  0.24248651  1
  O  O214  1  0.47916551  0.63756902  0.77517626  1
  O  O215  1  1.04402693  0.13603950  0.23472313  1
  O  O216  1  0.99264811  0.12577532  0.74603909  1
  O  O217  1  0.99381713  0.62280583  0.24375359  1
  O  O218  1  0.99649265  0.60706683  0.76176015  1
  O  O219  1  0.36330959  0.26334118  -0.00458465  1
  O  O220  1  0.36604279  0.25662254  0.50320571  1
  O  O221  1  0.37064065  0.75403137  0.00552639  1
  O  O222  1  0.36941465  0.75914437  0.50509932  1
  O  O223  1  0.85805867  0.25114805  -0.00532811  1
  O  O224  1  0.85918704  0.23774908  0.51217405  1
  O  O225  1  0.87824798  0.75895865  0.01204030  1
  O  O226  1  0.86658322  0.75267381  0.51242617  1
  O  O227  1  0.13205476  0.24616541  0.50398698  1
  O  O228  1  0.13755320  0.25893638  0.99659761  1
  O  O229  1  0.13472812  0.74644729  0.49151283  1
  O  O230  1  0.13411172  0.74305656  1.00187901  1
  O  O231  1  0.63902311  0.23970745  0.50948594  1
  O  O232  1  0.62814357  0.24384133  0.99263457  1
  O  O233  1  0.63278137  0.75198882  0.49093076  1
  O  O234  1  0.62620713  0.74207264  0.98751940  1
  O  O235  1  0.49452284  0.25350602  0.13593937  1
  O  O236  1  0.49707418  0.24234043  0.63140228  1
  O  O237  1  0.49615473  0.74305475  0.12907353  1
  O  O238  1  0.48883285  0.75101824  0.62343395  1
  O  O239  1  0.99959502  0.24607758  0.13051558  1
  O  O240  1  0.99029648  0.24011800  0.63144640  1
  O  O241  1  0.99477828  0.73824523  0.12127417  1
  O  O242  1  0.99616455  0.74623377  0.62700788  1
  O  O243  1  0.00845774  0.24438136  0.37476494  1
  O  O244  1  -0.00241071  0.25337691  0.87075017  1
  O  O245  1  0.01593835  0.74732886  0.38132326  1
  O  O246  1  0.01892297  0.75790603  0.87939216  1
  O  O247  1  0.49340538  0.26154322  0.36565417  1
  O  O248  1  0.50533511  0.25357462  0.87209820  1
  O  O249  1  0.50953301  0.75612437  0.36433740  1
  O  O250  1  0.50620970  0.76442179  0.88060797  1
  O  O251  1  0.24604055  0.13483066  0.49682211  1
  O  O252  1  0.25782426  0.13590845  0.98942749  1
  O  O253  1  0.25346728  0.63215003  0.48714206  1
  O  O254  1  0.24485291  0.62890016  0.99626997  1
  O  O255  1  0.74207449  0.12936337  0.49207079  1
  O  O256  1  0.74000398  0.13331143  0.99007268  1
  O  O257  1  0.75669900  0.63373650  0.49232886  1
  O  O258  1  0.74685113  0.62344223  0.98921794  1
  O  O259  1  0.25426635  0.37083050  0.00716446  1
  O  O260  1  0.25599294  0.37000341  0.50430073  1
  O  O261  1  0.25601630  0.86889170  0.00938289  1
  O  O262  1  0.25734949  0.87250183  0.50817570  1
  O  O263  1  0.74589939  0.36140936  -0.00354463  1
  O  O264  1  0.74641713  0.35671327  0.50015615  1
  O  O265  1  0.76234991  0.87164028  0.00213272  1
  O  O266  1  0.75800501  0.86622445  0.50305845  1
  O  O267  1  0.13179020  0.49421547  0.24593395  1
  O  O268  1  0.11817615  0.48334881  0.75140877  1
  O  O269  1  0.13190708  0.98849114  0.24033511  1
  O  O270  1  0.13261703  1.00383272  0.73439885  1
  O  O271  1  0.61924843  0.48396465  0.25273758  1
  O  O272  1  0.63740080  0.48323855  0.76425850  1
  O  O273  1  0.63126660  1.00269527  0.24532532  1
  O  O274  1  0.61458853  0.99379886  0.73956955  1
  O  O275  1  0.37157319  0.01100465  0.25822151  1
  O  O276  1  0.36925611  0.00592740  0.75545267  1
  O  O277  1  0.37517637  0.50777593  0.25545886  1
  O  O278  1  0.37895328  0.51101731  0.77280324  1
  O  O279  1  0.85578756  -0.03762410  0.26023406  1
  O  O280  1  0.87095451  -0.02734865  0.74780076  1
  O  O281  1  0.87656869  0.51280798  0.26496837  1
  O  O282  1  0.87500416  0.49731238  0.75382303  1
  O  O283  1  0.12991165  0.38453306  0.36029196  1
  O  O284  1  0.11029706  0.37202736  0.86619945  1
  O  O285  1  0.12746453  0.86602872  0.36622418  1
  O  O286  1  0.12112116  0.85975725  0.88070291  1
  O  O287  1  0.61035933  0.37232782  0.36618613  1
  O  O288  1  0.62064868  0.36124365  0.87019462  1
  O  O289  1  0.62516851  0.86528919  0.37715830  1
  O  O290  1  0.61846699  0.87107311  0.87171755  1
  O  O291  1  0.36512868  0.12221796  0.13919432  1
  O  O292  1  0.38057236  0.13268553  0.63063481  1
  O  O293  1  0.38142091  0.62829286  0.12932591  1
  O  O294  1  0.37645606  0.63637215  0.63740458  1
  O  O295  1  0.87717925  0.13232692  0.11531899  1
  O  O296  1  0.87726659  0.12720781  0.63360182  1
  O  O297  1  0.88167744  0.63399848  0.13714279  1
  O  O298  1  0.86933120  0.64425201  0.63065406  1
  O  O299  1  0.24253565  0.26155284  0.12001598  1
  O  O300  1  0.25583055  0.25014338  0.61623889  1
  O  O301  1  0.25676042  0.75467292  0.12089308  1
  O  O302  1  0.26219364  0.75981444  0.61991466  1
  O  O303  1  0.74226506  0.25031420  0.10845979  1
  O  O304  1  0.75519317  0.24714918  0.61781993  1
  O  O305  1  0.75928150  0.75655867  0.11690689  1
  O  O306  1  0.74065139  0.75388239  0.61465942  1
  O  O307  1  0.24640838  0.24593657  0.38906513  1
  O  O308  1  0.24601131  0.24075261  0.88280463  1
  O  O309  1  0.24774636  0.74228669  0.37832836  1
  O  O310  1  0.24254401  0.74695722  0.88218773  1
  O  O311  1  0.75316852  0.23709657  0.39038690  1
  O  O312  1  0.74060763  0.24262872  0.88338449  1
  O  O313  1  0.74174241  0.74355847  0.38663627  1
  O  O314  1  0.74263418  0.74077772  0.87692886  1
  O  O315  1  -0.00126587  0.10724118  -0.00915529  1
  O  O316  1  0.00345974  0.11550967  0.50895921  1
  O  O317  1  0.00535486  0.62058432  0.00793764  1
  O  O318  1  0.00419636  0.60830439  0.49512457  1
  O  O319  1  0.50639602  0.11620372  -0.00690688  1
  O  O320  1  0.50470770  0.12333211  0.50602390  1
  O  O321  1  0.50894005  0.61575995  0.00133624  1
  O  O322  1  0.48834412  0.61805070  0.48872124  1
  O  O323  1  0.49344095  0.36568707  0.48542925  1
  O  O324  1  0.49181143  0.37784064  0.99748326  1
  O  O325  1  0.49256387  0.88501259  0.49522488  1
  O  O326  1  0.49296306  0.88173672  0.99396629  1
  O  O327  1  1.00051885  0.39128349  0.50134936  1
  O  O328  1  1.00134609  0.38659332  0.99236171  1
  O  O329  1  0.99602527  0.88212480  0.49912307  1
  O  O330  1  0.99522438  0.88109497  0.99596594  1
  O  O331  1  0.49049593  0.48593166  0.36991199  1
  O  O332  1  0.48885920  0.49022901  0.88989495  1
  O  O333  1  0.48781372  1.00321075  0.37850382  1
  O  O334  1  0.49562925  0.98961167  0.88331546  1
  O  O335  1  0.98596553  0.49983309  0.38290664  1
  O  O336  1  0.99089883  0.49510663  0.88140248  1
  O  O337  1  1.01031078  0.99628054  0.38849542  1
  O  O338  1  1.01471767  0.98191482  0.88260121  1
  O  O339  1  0.00914248  0.00433551  0.11707640  1
  O  O340  1  0.01043564  0.00136612  0.61635880  1
  O  O341  1  0.00313600  0.51089127  0.11980362  1
  O  O342  1  -0.00651228  0.50070625  0.61284961  1
  O  O343  1  0.49723438  -0.00482372  0.11211965  1
  O  O344  1  0.50346646  0.00855734  0.61857037  1
  O  O345  1  0.49413487  0.50571867  0.11085536  1
  O  O346  1  0.50429205  0.50832050  0.64912213  1
  O  O347  1  0.25362297  0.38309746  0.24331139  1
  O  O348  1  0.22825430  0.36606095  0.75219470  1
  O  O349  1  0.24799718  0.87558986  0.23780677  1
  O  O350  1  0.25640463  0.88301853  0.73658763  1
  O  O351  1  0.72906667  0.37372094  0.25549090  1
  O  O352  1  0.74359605  0.37963964  0.75218436  1
  O  O353  1  0.73800065  0.86065991  0.22701727  1
  O  O354  1  0.73096806  0.87277682  0.74624412  1
  O  O355  1  0.25201671  0.12866134  0.26092350  1
  O  O356  1  0.25509555  0.12088693  0.75602963  1
  O  O357  1  0.26271642  0.62046995  0.25310435  1
  O  O358  1  0.26447763  0.63198364  0.76611613  1
  O  O359  1  0.74830147  0.12753166  0.26971459  1
  O  O360  1  0.74700464  0.12460523  0.76570908  1
  O  O361  1  0.75970007  0.62881372  0.26061955  1
  O  O362  1  0.74775428  0.61646088  0.76412888  1
  O  O363  1  0.36373664  0.12122822  0.37168377  1
  O  O364  1  0.36665424  0.11898986  0.86919033  1
  O  O365  1  0.36880090  0.61970694  0.36434354  1
  O  O366  1  0.36227231  0.61909659  0.88033304  1
  O  O367  1  0.86812809  0.11827130  0.38092057  1
  O  O368  1  0.85701911  0.12063798  0.87090129  1
  O  O369  1  0.86837737  0.63248901  0.36641094  1
  O  O370  1  0.87614661  0.62594998  0.87300770  1
  O  O371  1  0.13229484  0.38386013  0.13565592  1
  O  O372  1  0.12096827  0.36929277  0.64192455  1
  O  O373  1  0.13271601  0.87632636  0.13152124  1
  O  O374  1  0.13791129  0.88252913  0.61778311  1
  O  O375  1  0.62357825  0.37530382  0.13719238  1
  O  O376  1  0.62813838  0.37610455  0.63731342  1
  O  O377  1  0.63849448  0.87462488  0.10790992  1
  O  O378  1  0.61883686  0.88580055  0.63354975  1
  O  O379  1  0.13352102  0.27558310  0.25686351  1
  O  O380  1  0.10688083  0.24906207  0.75349752  1
  O  O381  1  0.13285428  0.76012189  0.25930019  1
  O  O382  1  0.13393861  0.75091315  0.76241699  1
  O  O383  1  0.60776830  0.25392885  0.24587560  1
  O  O384  1  0.62106577  0.25393886  0.75709867  1
  O  O385  1  0.61653501  0.74337234  0.25876951  1
  O  O386  1  0.62060127  0.75786580  0.76277217  1
  O  O387  1  0.38251966  0.24342939  0.25333785  1
  O  O388  1  0.37825000  0.24758641  0.74494884  1
  O  O389  1  0.37986147  0.74249497  0.24378678  1
  O  O390  1  0.37599484  0.74827291  0.74098885  1
  O  O391  1  0.87455340  0.25048194  0.24904115  1
  O  O392  1  0.88466573  0.24782448  0.74563483  1
  O  O393  1  0.87486141  0.74900114  0.23755929  1
  O  O394  1  0.87145266  0.76818972  0.73274333  1
  O  O395  1  0.37003170  0.48697363  0.48881834  1
  O  O396  1  0.37897536  0.49025675  0.99368736  1
  O  O397  1  0.37991724  0.99921318  0.49292801  1
  O  O398  1  0.37915312  0.99565523  0.99345315  1
  O  O399  1  0.88115763  0.50461228  0.48747887  1
  O  O400  1  0.88706530  0.50356838  1.00472472  1
  O  O401  1  0.88566353  0.98743781  0.50686171  1
  O  O402  1  0.88527273  0.98564511  1.00174423  1
  O  O403  1  0.11564669  -0.01256231  0.01140007  1
  O  O404  1  0.12210586  0.00561567  0.50989377  1
  O  O405  1  0.11455725  0.50732962  0.00598639  1
  O  O406  1  0.11188158  0.50253401  0.49484746  1
  O  O407  1  0.61340928  0.00899252  0.00256984  1
  O  O408  1  0.61697537  0.00741901  0.50701187  1
  O  O409  1  0.61643878  0.50694403  -0.00802223  1
  O  O410  1  0.62926916  0.49311234  0.49529462  1
  O  O411  1  0.36384336  0.38185887  0.11604710  1
  O  O412  1  0.38970841  0.35962632  0.60991003  1
  O  O413  1  0.36718580  0.86929611  0.12000691  1
  O  O414  1  0.37086586  0.87172582  0.61891428  1
  O  O415  1  0.86640810  0.37046931  0.11814833  1
  O  O416  1  0.86959328  0.35497497  0.62739204  1
  O  O417  1  0.86881626  0.86844372  0.11637313  1
  O  O418  1  0.87614858  0.86140909  0.61061348  1
  O  O419  1  0.14018677  0.12049906  0.38618058  1
  O  O420  1  0.13666027  0.12309450  0.87081131  1
  O  O421  1  0.13987233  0.63032027  0.36705043  1
  O  O422  1  0.13565460  0.63927241  0.88317791  1
  O  O423  1  0.61757429  0.12742761  0.38832103  1
  O  O424  1  0.62832384  0.13468557  0.88106454  1
  O  O425  1  0.63847489  0.63247737  0.37296628  1
  O  O426  1  0.63589359  0.63271165  0.88484411  1
