# generated using pymatgen
data_V85Zn86O256
_symmetry_space_group_name_H-M   'P 1'
_cell_length_a   16.90496072
_cell_length_b   16.90147264
_cell_length_c   16.90569547
_cell_angle_alpha   89.97260340
_cell_angle_beta   89.97657869
_cell_angle_gamma   89.99370796
_symmetry_Int_Tables_number   1
_chemical_formula_structural   V85Zn86O256
_chemical_formula_sum   'V85 Zn86 O256'
_cell_volume   4830.27287291
_cell_formula_units_Z   1
loop_
 _symmetry_equiv_pos_site_id
 _symmetry_equiv_pos_as_xyz
  1  'x, y, z'
loop_
 _atom_site_type_symbol
 _atom_site_label
 _atom_site_symmetry_multiplicity
 _atom_site_fract_x
 _atom_site_fract_y
 _atom_site_fract_z
 _atom_site_occupancy
  V  V0  1  0.50873850  0.00494434  0.00147195  1
  V  V1  1  0.49419554  0.37110490  0.37784754  1
  V  V2  1  0.37722122  0.62477477  0.25030404  1
  V  V3  1  0.87417294  0.49712726  0.87664165  1
  V  V4  1  0.12557954  0.37008326  0.75462786  1
  V  V5  1  0.37996853  0.13875374  0.75149949  1
  V  V6  1  0.24824487  0.49832132  0.74899255  1
  V  V7  1  0.87967171  0.49961150  0.38558858  1
  V  V8  1  0.12160187  0.50139317  0.12739093  1
  V  V9  1  0.00319360  0.24955456  0.25312319  1
  V  V10  1  0.37202071  -0.00164509  0.36961011  1
  V  V11  1  -0.00727152  0.49831442  0.00563273  1
  V  V12  1  -0.00711001  0.88404783  0.37568049  1
  V  V13  1  0.11660326  0.62715196  0.00522138  1
  V  V14  1  0.24650810  0.13129977  0.87460188  1
  V  V15  1  0.24708497  0.12298655  0.39337093  1
  V  V16  1  0.74880059  0.75276893  0.00609048  1
  V  V17  1  0.12872836  0.88545916  0.24986251  1
  V  V18  1  0.88248008  0.62352612  0.24302130  1
  V  V19  1  0.25295383  0.86744617  0.62548430  1
  V  V20  1  0.62530986  0.62758676  0.49907951  1
  V  V21  1  0.00207486  0.24678952  0.74980184  1
  V  V22  1  -0.00141265  0.36910636  0.88013958  1
  V  V23  1  0.25160937  0.37100986  0.61221273  1
  V  V24  1  0.50379361  0.12231100  0.62676899  1
  V  V25  1  0.37379834  0.49488368  0.88293452  1
  V  V26  1  0.74737406  0.37285130  0.62520336  1
  V  V27  1  -0.00270122  0.87872069  0.87392499  1
  V  V28  1  0.49114954  0.49483141  0.50055629  1
  V  V29  1  0.86909542  0.00401220  0.87423164  1
  V  V30  1  0.24926326  0.62537516  0.37571132  1
  V  V31  1  0.87051018  0.87688799  0.00975205  1
  V  V32  1  0.61508772  0.37119186  0.75253663  1
  V  V33  1  -0.00472700  0.74858780  0.74690620  1
  V  V34  1  0.24839014  0.62541586  0.87494760  1
  V  V35  1  0.86576603  0.12459141  0.25977793  1
  V  V36  1  0.86728602  0.12636815  0.75262099  1
  V  V37  1  0.49745045  0.75127856  0.74514155  1
  V  V38  1  0.63038802  0.75298653  0.37291276  1
  V  V39  1  0.25127976  0.25720892  -0.00204550  1
  V  V40  1  -0.00349237  0.12592813  0.12599321  1
  V  V41  1  0.62723242  0.49613089  0.12272633  1
  V  V42  1  0.37329385  0.62646656  0.74488791  1
  V  V43  1  0.36330832  0.12226914  0.24550804  1
  V  V44  1  0.50711377  0.75080023  0.24748164  1
  V  V45  1  0.87137376  0.75124937  0.61372461  1
  V  V46  1  0.74309270  0.87471007  0.61586491  1
  V  V47  1  0.37669988  0.25727655  0.12199235  1
  V  V48  1  0.24953654  -0.00033982  0.74861071  1
  V  V49  1  0.62634419  0.23673404  0.87272290  1
  V  V50  1  0.49532281  0.62767163  0.62307590  1
  V  V51  1  0.12067558  0.13288588  -0.00706910  1
  V  V52  1  0.13016537  0.24581193  0.39152098  1
  V  V53  1  0.37651802  0.25277144  0.60819504  1
  V  V54  1  0.25187426  0.88526576  0.12769773  1
  V  V55  1  0.75194060  -0.00956098  0.25928682  1
  V  V56  1  0.74067292  0.25390961  0.00153310  1
  V  V57  1  0.12227715  0.75131763  0.87472543  1
  V  V58  1  0.00324108  0.37622056  0.38444404  1
  V  V59  1  0.37621954  0.86877830  0.50143639  1
  V  V60  1  0.75104773  0.49405762  0.25021906  1
  V  V61  1  0.25155597  0.49711584  0.24935934  1
  V  V62  1  0.63800817  -0.01139780  0.12473492  1
  V  V63  1  0.74247739  -0.00164320  0.74655955  1
  V  V64  1  0.87614035  0.24412280  0.62579370  1
  V  V65  1  0.87121951  0.26672241  0.11932349  1
  V  V66  1  0.24992563  0.75373933  0.00195302  1
  V  V67  1  0.37755594  0.00340342  0.87716026  1
  V  V68  1  0.50450594  0.87739893  0.36946066  1
  V  V69  1  0.62397301  0.62369874  -0.00203184  1
  V  V70  1  0.75097100  0.24520848  0.49703910  1
  V  V71  1  -0.00070844  0.00278182  -0.00293906  1
  V  V72  1  0.74784625  0.50087267  0.75194956  1
  V  V73  1  0.75157074  0.62551904  0.37848547  1
  V  V74  1  0.12511422  0.75418380  0.37459867  1
  V  V75  1  0.11692293  0.62328460  0.49968004  1
  V  V76  1  0.62223047  0.49859164  0.62411189  1
  V  V77  1  0.11478417  0.49768886  0.62183601  1
  V  V78  1  0.50869940  0.12406097  0.12669654  1
  V  V79  1  0.49813875  0.37021799  0.88439811  1
  V  V80  1  0.62713948  0.37154912  0.24721890  1
  V  V81  1  0.50274855  0.87359267  0.87567381  1
  V  V82  1  -0.00239842  0.01515078  0.50749945  1
  V  V83  1  0.62948772  0.24304297  0.37350824  1
  V  V84  1  0.62758579  0.11792681  0.50088545  1
  Zn  Zn85  1  0.12877922  0.00640833  0.12619640  1
  Zn  Zn86  1  -0.00603792  0.62190603  0.62055549  1
  Zn  Zn87  1  0.75100461  0.62676795  0.87551094  1
  Zn  Zn88  1  0.00506265  0.74906735  0.24150712  1
  Zn  Zn89  1  0.37125341  0.49272294  0.37889247  1
  Zn  Zn90  1  0.25415600  0.37789954  0.11977700  1
  Zn  Zn91  1  0.50465729  -0.00303224  0.50231852  1
  Zn  Zn92  1  0.12846418  0.37161122  0.25138981  1
  Zn  Zn93  1  0.12965737  0.01034508  0.61013220  1
  Zn  Zn94  1  0.12249511  0.87425775  0.74332772  1
  Zn  Zn95  1  0.87233463  0.62604953  0.74831892  1
  Zn  Zn96  1  0.37589146  0.87567172  0.00192051  1
  Zn  Zn97  1  0.62722377  0.74974943  0.87364449  1
  Zn  Zn98  1  0.87204701  0.87938661  0.49463226  1
  Zn  Zn99  1  0.88004105  0.74805265  0.12311241  1
  Zn  Zn100  1  0.49419602  0.49846305  0.00487734  1
  Zn  Zn101  1  0.37629746  0.75253342  0.12584726  1
  Zn  Zn102  1  0.49944781  0.24662789  0.25068329  1
  Zn  Zn103  1  0.62231172  0.87649912  0.74403407  1
  Zn  Zn104  1  0.87775958  0.37705791  0.50511838  1
  Zn  Zn105  1  0.49969291  0.62546775  0.12336808  1
  Zn  Zn106  1  0.25317069  0.74714650  0.50414656  1
  Zn  Zn107  1  0.18613110  0.18886161  0.18553468  1
  Zn  Zn108  1  0.19075099  0.18720585  0.67968200  1
  Zn  Zn109  1  0.18666593  0.69055469  0.18709193  1
  Zn  Zn110  1  0.18326541  0.68801901  0.68694071  1
  Zn  Zn111  1  0.69068355  0.18728570  0.18299406  1
  Zn  Zn112  1  0.68668232  0.18635241  0.68824811  1
  Zn  Zn113  1  0.69091139  0.68380469  0.18583967  1
  Zn  Zn114  1  0.68538686  0.69047350  0.68621785  1
  Zn  Zn115  1  0.31222851  0.30702807  0.31278342  1
  Zn  Zn116  1  0.31204875  0.31384612  0.81093785  1
  Zn  Zn117  1  0.31295372  0.81239470  0.31030563  1
  Zn  Zn118  1  0.31615017  0.81276332  0.81375205  1
  Zn  Zn119  1  0.81559219  0.31149752  0.31378717  1
  Zn  Zn120  1  0.80787494  0.31517453  0.81690972  1
  Zn  Zn121  1  0.81179792  0.81007663  0.30852716  1
  Zn  Zn122  1  0.81034569  0.81323716  0.81302334  1
  Zn  Zn123  1  0.18487705  0.43828662  0.43745156  1
  Zn  Zn124  1  0.18236602  0.43873756  0.93695710  1
  Zn  Zn125  1  0.18639949  0.94104594  0.43953028  1
  Zn  Zn126  1  0.18464452  0.94189882  0.93653326  1
  Zn  Zn127  1  0.68496705  0.43435052  0.43694453  1
  Zn  Zn128  1  0.69020933  0.43000433  0.94044467  1
  Zn  Zn129  1  0.68890939  0.93754791  0.43438977  1
  Zn  Zn130  1  0.68784967  0.93845786  0.93750522  1
  Zn  Zn131  1  0.31506578  0.06744722  0.05918478  1
  Zn  Zn132  1  0.32153637  0.05612525  0.56395576  1
  Zn  Zn133  1  0.30873394  0.56738067  0.06479163  1
  Zn  Zn134  1  0.30634041  0.56016143  0.56291960  1
  Zn  Zn135  1  0.81181807  0.07190495  0.06097389  1
  Zn  Zn136  1  0.81660226  0.05993824  0.56063981  1
  Zn  Zn137  1  0.80699899  0.55809036  0.06207946  1
  Zn  Zn138  1  0.80979801  0.56474854  0.56378793  1
  Zn  Zn139  1  0.44136782  0.43649836  0.19046174  1
  Zn  Zn140  1  0.43482868  0.43484884  0.69026866  1
  Zn  Zn141  1  0.43934292  0.93733875  0.18756658  1
  Zn  Zn142  1  0.43481728  0.94053216  0.68738308  1
  Zn  Zn143  1  0.94260973  0.43957465  0.19593985  1
  Zn  Zn144  1  0.93467483  0.43291731  0.69048013  1
  Zn  Zn145  1  0.93840824  0.94143209  0.19044756  1
  Zn  Zn146  1  0.93329377  0.93700512  0.68419031  1
  Zn  Zn147  1  0.06355339  0.06311464  0.31598398  1
  Zn  Zn148  1  0.07962082  0.07980667  0.77980215  1
  Zn  Zn149  1  0.06307304  0.56058739  0.31530544  1
  Zn  Zn150  1  0.05998404  0.56200139  0.81273582  1
  Zn  Zn151  1  0.56550996  0.06128485  0.30760008  1
  Zn  Zn152  1  0.56127844  0.06241011  0.80912586  1
  Zn  Zn153  1  0.56187804  0.55992319  0.31332709  1
  Zn  Zn154  1  0.55929128  0.56027457  0.81473312  1
  Zn  Zn155  1  0.44054248  0.18306339  0.43489200  1
  Zn  Zn156  1  0.44065921  0.18877668  0.94065835  1
  Zn  Zn157  1  0.43906136  0.68768252  0.43379690  1
  Zn  Zn158  1  0.43710116  0.68520872  0.93584089  1
  Zn  Zn159  1  0.93732256  0.18883952  0.43821468  1
  Zn  Zn160  1  0.92810460  0.18879900  0.93754867  1
  Zn  Zn161  1  0.94026018  0.69175837  0.43241938  1
  Zn  Zn162  1  0.93402340  0.68696603  0.93684721  1
  Zn  Zn163  1  0.06384793  0.31462685  0.06477801  1
  Zn  Zn164  1  0.06240150  0.30961190  0.56620911  1
  Zn  Zn165  1  0.05890656  0.81491648  0.06706444  1
  Zn  Zn166  1  0.06506480  0.81717023  0.56174506  1
  Zn  Zn167  1  0.56335176  0.31181595  0.06201304  1
  Zn  Zn168  1  0.56017648  0.30691787  0.56230003  1
  Zn  Zn169  1  0.56408354  0.81412703  0.06251253  1
  Zn  Zn170  1  0.56154598  0.80992109  0.55927660  1
  O  O171  1  0.11242868  0.12693754  0.11790199  1
  O  O172  1  0.11941031  0.10476611  0.67117027  1
  O  O173  1  0.13071460  0.61376400  0.11751199  1
  O  O174  1  0.12352941  0.61610260  0.61725197  1
  O  O175  1  0.61309664  0.11950614  0.12881052  1
  O  O176  1  0.61434636  0.13432224  0.61577885  1
  O  O177  1  0.62481176  0.61580324  0.11490626  1
  O  O178  1  0.61966211  0.62022986  0.61598516  1
  O  O179  1  0.38947975  0.37227152  0.37030186  1
  O  O180  1  0.38426395  0.38260608  0.86831246  1
  O  O181  1  0.38107564  0.88186466  0.37703071  1
  O  O182  1  0.38593906  0.88488124  0.87687679  1
  O  O183  1  0.88353234  0.38251104  0.37752223  1
  O  O184  1  0.88338715  0.38780740  0.86949616  1
  O  O185  1  0.89010054  0.86700814  0.37331174  1
  O  O186  1  0.88371072  0.88042063  0.88086486  1
  O  O187  1  0.25739253  0.01255546  0.37657311  1
  O  O188  1  0.26163493  0.01073687  0.87599912  1
  O  O189  1  0.25066493  0.50602358  0.36757034  1
  O  O190  1  0.25370489  0.50420549  0.86946483  1
  O  O191  1  0.74758778  0.00054650  0.35884100  1
  O  O192  1  0.76179117  -0.00826385  0.86464026  1
  O  O193  1  0.75561993  0.50505750  0.37030583  1
  O  O194  1  0.75631425  0.49785358  0.86881248  1
  O  O195  1  0.24442319  0.49791418  0.13223003  1
  O  O196  1  0.24205360  0.49065921  0.63193185  1
  O  O197  1  0.24929258  0.98953313  0.11512832  1
  O  O198  1  0.25229862  0.99369364  0.63478448  1
  O  O199  1  0.73792943  0.50013831  0.13554089  1
  O  O200  1  0.74243591  0.49377030  0.63143648  1
  O  O201  1  0.74082511  1.00749913  0.12566598  1
  O  O202  1  0.75729849  0.98491677  0.63234744  1
  O  O203  1  0.00264762  0.36480248  0.26313642  1
  O  O204  1  0.00526250  0.36707184  0.75791626  1
  O  O205  1  0.00716981  0.87677332  0.26023944  1
  O  O206  1  -0.00129823  0.86673351  0.75666341  1
  O  O207  1  0.51027439  0.37118655  0.25911184  1
  O  O208  1  0.51039185  0.37836190  0.75900606  1
  O  O209  1  0.49762692  0.86616707  0.26096768  1
  O  O210  1  0.49885050  0.86891077  0.75457754  1
  O  O211  1  0.49090647  0.12508825  0.24221482  1
  O  O212  1  0.49113496  0.12141711  0.74131535  1
  O  O213  1  0.49310810  0.63039675  0.25024168  1
  O  O214  1  0.49216712  0.62956293  0.74514890  1
  O  O215  1  0.99364190  0.13019707  0.24456117  1
  O  O216  1  0.98432529  0.14193366  0.76074279  1
  O  O217  1  0.98513831  0.62362941  0.25694050  1
  O  O218  1  0.99997131  0.63820810  0.74734626  1
  O  O219  1  0.36463245  0.24169767  0.01003057  1
  O  O220  1  0.37581058  0.24702441  0.50961960  1
  O  O221  1  0.36115351  0.74934134  -0.00062821  1
  O  O222  1  0.37280015  0.76352415  0.49057040  1
  O  O223  1  0.88319848  0.25890602  0.01766699  1
  O  O224  1  0.86804457  0.25077465  0.50800647  1
  O  O225  1  0.86820527  0.75895285  -0.00071126  1
  O  O226  1  0.87822817  0.75118581  0.51029951  1
  O  O227  1  0.12292096  0.24694203  0.49149288  1
  O  O228  1  0.13131953  0.23949692  1.00419540  1
  O  O229  1  0.12886290  0.74413695  0.49205143  1
  O  O230  1  0.13170828  0.74438256  0.99714983  1
  O  O231  1  0.63208311  0.24258951  0.49259719  1
  O  O232  1  0.63317749  0.24927667  0.99319484  1
  O  O233  1  0.61900756  0.73513451  0.48905544  1
  O  O234  1  0.63051664  0.74225928  0.99944637  1
  O  O235  1  0.49451448  0.24129065  0.12395648  1
  O  O236  1  0.48532616  0.24133767  0.62242182  1
  O  O237  1  0.49909236  0.74934775  0.13344010  1
  O  O238  1  0.50080855  0.74159085  0.63208359  1
  O  O239  1  0.99414228  0.24820154  0.13517656  1
  O  O240  1  0.98841918  0.25743030  0.63735554  1
  O  O241  1  0.99491489  0.74828576  0.12801843  1
  O  O242  1  0.99224184  0.75226445  0.63136111  1
  O  O243  1  0.00819163  0.25298922  0.36987424  1
  O  O244  1  -0.00843896  0.26307294  0.87014501  1
  O  O245  1  0.01203340  0.75922981  0.36874378  1
  O  O246  1  0.00103312  0.75691245  0.86814030  1
  O  O247  1  0.50897057  0.25511421  0.37400492  1
  O  O248  1  0.51383092  0.25608591  0.88203067  1
  O  O249  1  0.51035500  0.75498960  0.36757881  1
  O  O250  1  0.49996726  0.75887634  0.86926436  1
  O  O251  1  0.25347559  0.12069645  0.49206799  1
  O  O252  1  0.24138867  0.13302452  0.99325410  1
  O  O253  1  0.24153715  0.62660876  0.49289714  1
  O  O254  1  0.23870284  0.63277541  0.99532321  1
  O  O255  1  0.74402037  0.13631166  0.50772434  1
  O  O256  1  0.77048961  0.15452884  0.99489994  1
  O  O257  1  0.74087430  0.61976445  0.48712685  1
  O  O258  1  0.74185994  0.63005322  0.99731612  1
  O  O259  1  0.24385748  0.36141649  -0.00329787  1
  O  O260  1  0.24923636  0.37921295  0.51264206  1
  O  O261  1  0.24929893  0.86863507  0.00388992  1
  O  O262  1  0.25793010  0.87553868  0.50702998  1
  O  O263  1  0.75722252  0.35603980  -0.00421412  1
  O  O264  1  0.74852672  0.36403350  0.50700929  1
  O  O265  1  0.75884092  0.86707743  -0.00491475  1
  O  O266  1  0.75205276  0.87864465  0.51119410  1
  O  O267  1  0.13290241  0.50066434  0.24381844  1
  O  O268  1  0.12906360  0.49368793  0.74347012  1
  O  O269  1  0.12291991  0.98989784  0.24788390  1
  O  O270  1  0.14767882  0.98566563  0.77422541  1
  O  O271  1  0.63211632  0.49275075  0.24646109  1
  O  O272  1  0.62803392  0.49270578  0.74498711  1
  O  O273  1  0.64129569  1.00552625  0.23761679  1
  O  O274  1  0.63836869  0.99961825  0.75168706  1
  O  O275  1  0.37987610  0.00630759  0.26132304  1
  O  O276  1  0.36838948  0.00751488  0.76144710  1
  O  O277  1  0.36888483  0.50648739  0.25194169  1
  O  O278  1  0.36805108  0.50572170  0.75871509  1
  O  O279  1  0.86441783  0.01470100  0.24267171  1
  O  O280  1  0.86952054  0.00773529  0.75496148  1
  O  O281  1  0.86920612  0.50675794  0.26073089  1
  O  O282  1  0.86461785  0.50087166  0.75558448  1
  O  O283  1  0.12090402  0.36553154  0.37412664  1
  O  O284  1  0.11513163  0.38075506  0.86248369  1
  O  O285  1  0.12113589  0.87062523  0.36847189  1
  O  O286  1  0.11086249  0.86812636  0.87941462  1
  O  O287  1  0.61825900  0.36547048  0.36640836  1
  O  O288  1  0.61604138  0.36995510  0.86930530  1
  O  O289  1  0.61838417  0.86402570  0.37944002  1
  O  O290  1  0.61213766  0.87585692  0.87159026  1
  O  O291  1  0.38381893  0.12883386  0.13082287  1
  O  O292  1  0.37844848  0.13498989  0.63106282  1
  O  O293  1  0.37549417  0.62830239  0.13801685  1
  O  O294  1  0.37564002  0.61853784  0.63793355  1
  O  O295  1  0.88596061  0.13623671  0.13125625  1
  O  O296  1  0.87167168  0.13702360  0.63370842  1
  O  O297  1  0.87009681  0.61636277  0.14167187  1
  O  O298  1  0.87479663  0.63349159  0.62749159  1
  O  O299  1  0.25752263  0.25229197  0.11665436  1
  O  O300  1  0.26370466  0.25673374  0.62816903  1
  O  O301  1  0.25052433  0.76044164  0.11670226  1
  O  O302  1  0.24806530  0.76262199  0.62552414  1
  O  O303  1  0.76117722  0.25206530  0.11695749  1
  O  O304  1  0.75507435  0.25560242  0.62020468  1
  O  O305  1  0.75627645  0.74410586  0.11165994  1
  O  O306  1  0.75720206  0.76277208  0.62988331  1
  O  O307  1  0.24448013  0.23429358  0.37218362  1
  O  O308  1  0.25720328  0.23901172  0.88121162  1
  O  O309  1  0.24000208  0.74466968  0.37436581  1
  O  O310  1  0.24333480  0.74736628  0.88116904  1
  O  O311  1  0.74295012  0.25460994  0.38485879  1
  O  O312  1  0.73369572  0.25462877  0.88241609  1
  O  O313  1  0.73915930  0.74158080  0.36825356  1
  O  O314  1  0.74729393  0.74697048  0.88522424  1
  O  O315  1  0.00332244  0.12517936  0.00446485  1
  O  O316  1  -0.00293606  0.11490204  0.50078295  1
  O  O317  1  0.01094414  0.61723986  -0.00609957  1
  O  O318  1  0.01244401  0.62849390  0.49948062  1
  O  O319  1  0.49648642  0.11149876  0.00862577  1
  O  O320  1  0.50915937  0.12331373  0.50640755  1
  O  O321  1  0.50747690  0.62126935  0.00244491  1
  O  O322  1  0.50449751  0.61767743  0.50313703  1
  O  O323  1  0.50903779  0.38355955  0.49164571  1
  O  O324  1  0.50240462  0.37903685  0.98918179  1
  O  O325  1  0.49497641  0.87540366  0.48902946  1
  O  O326  1  0.49898645  0.88539710  0.99336011  1
  O  O327  1  0.99826281  0.36944905  0.48926581  1
  O  O328  1  1.00873015  0.38591847  0.99115232  1
  O  O329  1  0.99973415  0.87500293  0.48394069  1
  O  O330  1  0.99332734  0.88292434  0.99250575  1
  O  O331  1  0.49937449  0.49047037  0.38342895  1
  O  O332  1  0.48970761  0.49118155  0.87738280  1
  O  O333  1  0.49640271  0.99174438  0.37418624  1
  O  O334  1  0.49702765  0.99600786  0.88136518  1
  O  O335  1  0.99222818  0.48961350  0.37197042  1
  O  O336  1  0.99362252  0.49267813  0.88160496  1
  O  O337  1  1.00121124  0.98869630  0.38081568  1
  O  O338  1  0.98931765  0.99275098  0.87713789  1
  O  O339  1  0.00025715  0.01101208  0.11702705  1
  O  O340  1  0.00142169  -0.00662997  0.61067922  1
  O  O341  1  0.00713921  0.49635948  0.11793162  1
  O  O342  1  0.01062063  0.49913635  0.63134718  1
  O  O343  1  0.51033596  0.00349579  0.11982187  1
  O  O344  1  0.49229769  0.01576453  0.62079580  1
  O  O345  1  0.51276775  0.50114418  0.12552272  1
  O  O346  1  0.50353498  0.50403174  0.61959318  1
  O  O347  1  0.25106928  0.38720470  0.25110589  1
  O  O348  1  0.24065543  0.37835810  0.74497850  1
  O  O349  1  0.24313491  0.87248470  0.23974194  1
  O  O350  1  0.25726121  0.88134668  0.74198876  1
  O  O351  1  0.74377533  0.38625921  0.25876487  1
  O  O352  1  0.73834924  0.38463838  0.74727728  1
  O  O353  1  0.75980114  0.89106840  0.24688870  1
  O  O354  1  0.74712555  0.88149375  0.74090384  1
  O  O355  1  0.26092891  0.12430999  0.24803293  1
  O  O356  1  0.26130641  0.11942252  0.75894066  1
  O  O357  1  0.25572952  0.61706523  0.25450004  1
  O  O358  1  0.25455751  0.62145483  0.75454789  1
  O  O359  1  0.76240716  0.12171309  0.24567834  1
  O  O360  1  0.75933414  0.11642159  0.74535380  1
  O  O361  1  0.75584145  0.61346865  0.26042026  1
  O  O362  1  0.74466478  0.61154116  0.75154246  1
  O  O363  1  0.36543936  0.11968594  0.36887659  1
  O  O364  1  0.37322285  0.12112666  0.86945469  1
  O  O365  1  0.36920094  0.62256848  0.36498625  1
  O  O366  1  0.36854938  0.61756595  0.86503452  1
  O  O367  1  0.87711423  0.13102760  0.35806774  1
  O  O368  1  0.87473452  0.11494462  0.86729708  1
  O  O369  1  0.86882855  0.61954349  0.37061831  1
  O  O370  1  0.87391147  0.61123516  0.87048565  1
  O  O371  1  0.12955040  0.38778601  0.12878562  1
  O  O372  1  0.13110082  0.37986298  0.63182830  1
  O  O373  1  0.13242443  0.88002982  0.13235820  1
  O  O374  1  0.13708737  0.88359263  0.62611638  1
  O  O375  1  0.62158391  0.37852645  0.13873541  1
  O  O376  1  0.62628168  0.37631653  0.63334762  1
  O  O377  1  0.62663050  0.88995032  0.12501106  1
  O  O378  1  0.63780497  0.86970486  0.62369486  1
  O  O379  1  0.11484734  0.24932611  0.25550420  1
  O  O380  1  0.11543629  0.26019050  0.74490866  1
  O  O381  1  0.12546667  0.76022388  0.25742443  1
  O  O382  1  0.11612772  0.75419266  0.75625794  1
  O  O383  1  0.62737901  0.25495996  0.25554951  1
  O  O384  1  0.62971673  0.25706445  0.76320023  1
  O  O385  1  0.61580224  0.74123667  0.25645920  1
  O  O386  1  0.61050045  0.74988901  0.75338913  1
  O  O387  1  0.37668382  0.23997278  0.24052985  1
  O  O388  1  0.37460294  0.24060596  0.74573967  1
  O  O389  1  0.38699711  0.74202680  0.25160592  1
  O  O390  1  0.38641199  0.73991890  0.75585701  1
  O  O391  1  0.88076454  0.24170040  0.24323886  1
  O  O392  1  0.87443157  0.24535576  0.74652475  1
  O  O393  1  0.87277052  0.73224156  0.24854129  1
  O  O394  1  0.88071401  0.74843570  0.74269017  1
  O  O395  1  0.38690712  0.50387684  0.49941425  1
  O  O396  1  0.37114745  0.50715890  0.98709369  1
  O  O397  1  0.38012975  0.99056664  0.48610428  1
  O  O398  1  0.38311648  1.00097983  0.98900193  1
  O  O399  1  0.87029210  0.49866820  0.48965047  1
  O  O400  1  0.88526132  0.50416990  0.99492767  1
  O  O401  1  0.88955730  0.99711162  0.49813656  1
  O  O402  1  0.87679738  0.99645697  0.99243906  1
  O  O403  1  0.11740344  0.01481685  -0.00039257  1
  O  O404  1  0.10683449  -0.00034232  0.49638721  1
  O  O405  1  0.11745826  0.50792487  0.00726656  1
  O  O406  1  0.12820908  0.50886775  0.50982115  1
  O  O407  1  0.62175806  0.00046953  0.01112340  1
  O  O408  1  0.62641776  0.01412809  0.49504567  1
  O  O409  1  0.62697365  0.50332287  0.00811882  1
  O  O410  1  0.61667405  0.50841650  0.50378980  1
  O  O411  1  0.37651866  0.36176048  0.12880900  1
  O  O412  1  0.36918886  0.36103228  0.62932583  1
  O  O413  1  0.36788635  0.87348651  0.12246738  1
  O  O414  1  0.36864199  0.88120059  0.61272813  1
  O  O415  1  0.87731213  0.36406029  0.13757311  1
  O  O416  1  0.86600673  0.36554787  0.62560224  1
  O  O417  1  0.87944527  0.87796537  0.11217152  1
  O  O418  1  0.86426587  0.86664921  0.62175514  1
  O  O419  1  0.14059153  0.12918291  0.37179344  1
  O  O420  1  0.13542655  0.12449563  0.87901478  1
  O  O421  1  0.12887711  0.63213235  0.38007895  1
  O  O422  1  0.12950087  0.63041025  0.88201790  1
  O  O423  1  0.61992715  0.13683647  0.38074045  1
  O  O424  1  0.62200158  0.13782219  0.87177082  1
  O  O425  1  0.63178870  0.62813312  0.37974399  1
  O  O426  1  0.62464342  0.62299324  0.88741492  1
