# generated using pymatgen
data_V85Zn86O256
_symmetry_space_group_name_H-M   'P 1'
_cell_length_a   16.95250114
_cell_length_b   16.96582747
_cell_length_c   16.96947276
_cell_angle_alpha   90.19595472
_cell_angle_beta   90.08191827
_cell_angle_gamma   90.02412350
_symmetry_Int_Tables_number   1
_chemical_formula_structural   V85Zn86O256
_chemical_formula_sum   'V85 Zn86 O256'
_cell_volume   4880.61054967
_cell_formula_units_Z   1
loop_
 _symmetry_equiv_pos_site_id
 _symmetry_equiv_pos_as_xyz
  1  'x, y, z'
loop_
 _atom_site_type_symbol
 _atom_site_label
 _atom_site_symmetry_multiplicity
 _atom_site_fract_x
 _atom_site_fract_y
 _atom_site_fract_z
 _atom_site_occupancy
  V  V0  1  0.11065427  0.25227209  0.37152525  1
  V  V1  1  0.88020488  0.37437942  0.49057031  1
  V  V2  1  0.24958762  0.12695457  0.37776327  1
  V  V3  1  0.12069401  0.12650528  0.00455768  1
  V  V4  1  0.12621067  0.25316746  0.87932805  1
  V  V5  1  0.38312278  0.50034220  0.87802730  1
  V  V6  1  0.12234379  0.63359390  -0.00061256  1
  V  V7  1  0.61830717  0.74661101  0.87227141  1
  V  V8  1  0.37756769  0.12581638  0.75106878  1
  V  V9  1  -0.00324962  -0.01699204  -0.00427786  1
  V  V10  1  0.12551956  0.50281804  0.62335948  1
  V  V11  1  0.50594605  0.12382884  0.12529499  1
  V  V12  1  0.37971239  0.49985185  0.37222151  1
  V  V13  1  0.75178395  0.74494854  -0.00153397  1
  V  V14  1  0.74846723  0.61581057  0.37001304  1
  V  V15  1  0.88062904  0.24735710  0.62576328  1
  V  V16  1  0.62319650  0.74220159  0.37663171  1
  V  V17  1  0.74904357  0.74025850  0.49952171  1
  V  V18  1  0.24774912  0.62935939  0.88115717  1
  V  V19  1  0.23441384  0.88458486  0.62122694  1
  V  V20  1  0.25382020  0.50530491  0.75290114  1
  V  V21  1  0.12562264  0.63250536  0.49572661  1
  V  V22  1  0.01492901  0.87094136  0.37019753  1
  V  V23  1  0.75362716  0.38558189  0.62750517  1
  V  V24  1  0.87462783  -0.00544254  0.37370894  1
  V  V25  1  0.38576155  0.00169759  0.38084062  1
  V  V26  1  0.12103591  0.12137048  0.51371409  1
  V  V27  1  0.37505658  0.00135494  0.87405448  1
  V  V28  1  0.50140635  -0.00444213  0.00396781  1
  V  V29  1  0.00798005  0.74929595  0.24790435  1
  V  V30  1  0.62496845  0.11982187  0.49938299  1
  V  V31  1  0.00238786  0.24769180  0.74824122  1
  V  V32  1  0.24518864  -0.00624668  0.25078762  1
  V  V33  1  0.38623267  0.87777704  0.50380191  1
  V  V34  1  0.87233738  0.62022349  0.24304915  1
  V  V35  1  0.37717505  0.12564453  0.25247909  1
  V  V36  1  0.87453432  0.62808686  0.74451496  1
  V  V37  1  0.74953582  0.12218399  0.37470909  1
  V  V38  1  -0.00288789  0.63171656  0.62300308  1
  V  V39  1  0.62037053  -0.00248781  0.62187730  1
  V  V40  1  0.50325002  0.25284269  0.75272628  1
  V  V41  1  0.23735234  0.00307972  0.74528637  1
  V  V42  1  0.62826369  0.38114320  0.25373223  1
  V  V43  1  0.00791915  0.75841335  0.75531651  1
  V  V44  1  0.49935378  0.61660765  0.11926306  1
  V  V45  1  0.49656297  0.74639808  0.25091244  1
  V  V46  1  0.50083691  0.12344276  0.62212416  1
  V  V47  1  0.88440197  0.12490342  0.25168837  1
  V  V48  1  0.61325992  0.50458957  0.61038588  1
  V  V49  1  0.74666625  0.87397903  0.12148398  1
  V  V50  1  0.74683847  0.00074039  0.24221569  1
  V  V51  1  0.25060752  0.25182627  0.50227734  1
  V  V52  1  0.37145660  0.75170004  0.12311643  1
  V  V53  1  0.88024748  0.24835574  0.13033979  1
  V  V54  1  0.00191887  0.49806666  0.49025338  1
  V  V55  1  0.87561277  0.75293263  0.12506102  1
  V  V56  1  0.74815450  0.61914107  0.86829838  1
  V  V57  1  0.25201452  0.75285149  0.49660615  1
  V  V58  1  0.00068569  0.50755879  0.00699197  1
  V  V59  1  0.24770073  0.25290155  0.00367490  1
  V  V60  1  0.13680849  0.50603530  0.13003538  1
  V  V61  1  0.75193818  0.24770497  0.50240233  1
  V  V62  1  0.37543529  0.25051704  0.12839920  1
  V  V63  1  0.24889780  0.62101515  0.37049677  1
  V  V64  1  0.38311357  0.38180344  0.50255559  1
  V  V65  1  0.74913869  0.00094060  0.74956128  1
  V  V66  1  0.75261345  0.38491255  0.12974250  1
  V  V67  1  0.87621646  0.37504860  -0.00028133  1
  V  V68  1  0.63024276  0.38480225  0.75024004  1
  V  V69  1  0.62739091  0.24965992  0.87557676  1
  V  V70  1  0.75044405  0.86775710  0.62219222  1
  V  V71  1  0.87408534  0.50001572  0.86730709  1
  V  V72  1  0.62820233  0.11368356  0.00137645  1
  V  V73  1  0.61705327  0.86780611  0.74922080  1
  V  V74  1  0.87300845  0.86679903  0.49625196  1
  V  V75  1  0.00188380  0.37676076  0.87784936  1
  V  V76  1  0.36490583  0.87606638  0.00258092  1
  V  V77  1  0.49248005  0.63780498  0.62091842  1
  V  V78  1  0.38307176  0.37827619  0.00236191  1
  V  V79  1  0.88031941  0.12257570  0.74929898  1
  V  V80  1  0.25158611  0.37825800  0.62585294  1
  V  V81  1  0.12565698  0.37767724  0.75146933  1
  V  V82  1  0.75027271  0.24873898  0.00235456  1
  V  V83  1  0.00233288  -0.00185143  0.51063781  1
  V  V84  1  0.62131144  0.87687217  0.24603507  1
  Zn  Zn85  1  0.50294303  0.25156033  0.25496619  1
  Zn  Zn86  1  0.87595905  0.49469088  0.36651013  1
  Zn  Zn87  1  0.37179690  0.76277720  0.64301111  1
  Zn  Zn88  1  0.37603651  0.25272572  0.62752359  1
  Zn  Zn89  1  0.50393900  0.37524439  0.37957584  1
  Zn  Zn90  1  0.75459951  0.12433463  0.87599221  1
  Zn  Zn91  1  0.49138235  0.86624983  0.87118459  1
  Zn  Zn92  1  0.12075821  0.77203698  -0.11669929  1
  Zn  Zn93  1  0.12105953  -0.00479875  0.12942921  1
  Zn  Zn94  1  0.36994841  0.61839843  0.24695216  1
  Zn  Zn95  1  0.25176841  0.12917897  0.87535175  1
  Zn  Zn96  1  0.25552093  0.38423887  0.13852517  1
  Zn  Zn97  1  0.24197107  0.86654163  0.13171299  1
  Zn  Zn98  1  0.50318550  0.87620049  0.37795033  1
  Zn  Zn99  1  0.00285459  0.12072192  0.12862598  1
  Zn  Zn100  1  0.61882014  0.61385877  -0.00640847  1
  Zn  Zn101  1  0.62389773  0.24983281  0.37473138  1
  Zn  Zn102  1  0.62296031  0.49812984  0.12091779  1
  Zn  Zn103  1  0.50821954  0.38248629  0.88222929  1
  Zn  Zn104  1  0.38574093  0.64730569  0.76188452  1
  Zn  Zn105  1  0.88859275  -0.02094634  0.86899884  1
  Zn  Zn106  1  0.12073474  0.37866030  0.26032121  1
  Zn  Zn107  1  0.18872962  0.18613017  0.19054636  1
  Zn  Zn108  1  0.18960646  0.18902326  0.68962042  1
  Zn  Zn109  1  0.18709219  0.68446823  0.18544478  1
  Zn  Zn110  1  0.19140880  0.69187489  0.68602375  1
  Zn  Zn111  1  0.68900347  0.19164507  0.18800416  1
  Zn  Zn112  1  0.69102577  0.18960022  0.68644500  1
  Zn  Zn113  1  0.68500006  0.68523281  0.18872571  1
  Zn  Zn114  1  0.68460815  0.68280967  0.68650679  1
  Zn  Zn115  1  0.30714534  0.31703732  0.31251164  1
  Zn  Zn116  1  0.31452774  0.31581778  0.81574439  1
  Zn  Zn117  1  0.31491747  0.81204831  0.31815924  1
  Zn  Zn118  1  0.28449816  0.82317662  0.81816294  1
  Zn  Zn119  1  0.80878843  0.30822728  0.31192151  1
  Zn  Zn120  1  0.81202310  0.31205472  0.81229351  1
  Zn  Zn121  1  0.81052430  0.80849996  0.31012794  1
  Zn  Zn122  1  0.81374254  0.80483048  0.80527526  1
  Zn  Zn123  1  0.18964063  0.43720139  0.43448218  1
  Zn  Zn124  1  0.19058102  0.44033240  0.94500349  1
  Zn  Zn125  1  0.19037586  0.94184013  0.43950877  1
  Zn  Zn126  1  0.18587728  0.94330337  0.93708099  1
  Zn  Zn127  1  0.69219104  0.43595474  0.43918681  1
  Zn  Zn128  1  0.68823593  0.43986307  0.94113591  1
  Zn  Zn129  1  0.68670208  0.93477837  0.43325608  1
  Zn  Zn130  1  0.72503274  0.91161488  0.91460756  1
  Zn  Zn131  1  0.31249550  0.06502176  0.06436100  1
  Zn  Zn132  1  0.31412296  0.06224063  0.56291088  1
  Zn  Zn133  1  0.31396819  0.56550339  0.05978155  1
  Zn  Zn134  1  0.31705612  0.56548203  0.56164439  1
  Zn  Zn135  1  0.81773458  0.05867418  0.06230802  1
  Zn  Zn136  1  0.81472949  0.05861666  0.56493909  1
  Zn  Zn137  1  0.81374613  0.56462109  0.05761834  1
  Zn  Zn138  1  0.81312018  0.55971928  0.56049054  1
  Zn  Zn139  1  0.43799214  0.43532781  0.19448147  1
  Zn  Zn140  1  0.43928646  0.44039051  0.69119096  1
  Zn  Zn141  1  0.43580779  0.93883072  0.18927046  1
  Zn  Zn142  1  0.43610533  0.93854668  0.68771873  1
  Zn  Zn143  1  0.94575182  0.43750089  0.18948669  1
  Zn  Zn144  1  0.94102326  0.43989736  0.68394181  1
  Zn  Zn145  1  0.93839818  0.93526463  0.18410183  1
  Zn  Zn146  1  0.93276100  0.93171332  0.68470509  1
  Zn  Zn147  1  0.06435313  0.06149774  0.32418935  1
  Zn  Zn148  1  0.06056697  0.06697436  0.81992271  1
  Zn  Zn149  1  0.06050473  0.56972965  0.31085824  1
  Zn  Zn150  1  0.06176709  0.56544536  0.81338343  1
  Zn  Zn151  1  0.56446613  0.06243769  0.31012721  1
  Zn  Zn152  1  0.56442103  0.05998880  0.81496456  1
  Zn  Zn153  1  0.55903634  0.55987519  0.31025082  1
  Zn  Zn154  1  0.56070341  0.56409486  0.80414566  1
  Zn  Zn155  1  0.43875087  0.19275675  0.43972199  1
  Zn  Zn156  1  0.43966765  0.18934365  0.93924409  1
  Zn  Zn157  1  0.43677195  0.68563193  0.44409420  1
  Zn  Zn158  1  0.43276675  0.69002487  0.94036079  1
  Zn  Zn159  1  0.93711575  0.18103722  0.44134543  1
  Zn  Zn160  1  0.93798133  0.18519733  0.93547506  1
  Zn  Zn161  1  0.93586430  0.68714273  0.43072346  1
  Zn  Zn162  1  0.93720684  0.69165265  0.93496013  1
  Zn  Zn163  1  0.04989167  0.33088831  0.09670422  1
  Zn  Zn164  1  0.06382084  0.31301588  0.56036906  1
  Zn  Zn165  1  0.06606338  0.81526118  0.07090024  1
  Zn  Zn166  1  0.05949528  0.80950839  0.56039470  1
  Zn  Zn167  1  0.56513929  0.31099420  0.06661002  1
  Zn  Zn168  1  0.56546144  0.30966119  0.56552962  1
  Zn  Zn169  1  0.56190875  0.80762106  0.06056380  1
  Zn  Zn170  1  0.56410752  0.80695715  0.55990188  1
  O  O171  1  0.12366782  0.12008278  0.11944126  1
  O  O172  1  0.12612878  0.13371272  0.61247150  1
  O  O173  1  0.12776935  0.61631880  0.11375999  1
  O  O174  1  0.12000325  0.62074775  0.61536288  1
  O  O175  1  0.61363988  0.13208574  0.11788005  1
  O  O176  1  0.62165087  0.11716943  0.62025819  1
  O  O177  1  0.60950234  0.62373006  0.12734076  1
  O  O178  1  0.61594436  0.61039331  0.62877199  1
  O  O179  1  0.37382272  0.38497769  0.38389325  1
  O  O180  1  0.37975580  0.38276829  0.88440534  1
  O  O181  1  0.37800915  0.88473196  0.38526489  1
  O  O182  1  0.37403171  0.88574745  0.88493581  1
  O  O183  1  0.86983718  0.37439992  0.38640131  1
  O  O184  1  0.87934200  0.38243684  0.87868860  1
  O  O185  1  0.87390318  0.87842338  0.38095592  1
  O  O186  1  0.83256998  0.88269831  0.88034734  1
  O  O187  1  0.25770693  0.01077459  0.37023168  1
  O  O188  1  0.26398596  0.00943421  0.86716830  1
  O  O189  1  0.26081465  0.51091482  0.38265920  1
  O  O190  1  0.25851785  0.50371500  0.86894210  1
  O  O191  1  0.75468986  0.00238186  0.36413393  1
  O  O192  1  0.73913359  0.00920857  0.85458541  1
  O  O193  1  0.75452801  0.51279795  0.38079433  1
  O  O194  1  0.76190301  0.50670706  0.87714309  1
  O  O195  1  0.24112044  0.50787972  0.12948378  1
  O  O196  1  0.24660854  0.49866410  0.63332196  1
  O  O197  1  0.25473561  1.00527102  0.14580496  1
  O  O198  1  0.24838181  0.99418642  0.62837618  1
  O  O199  1  0.75506236  0.48668790  0.12054427  1
  O  O200  1  0.74159552  0.48938158  0.62090704  1
  O  O201  1  0.75499195  0.99041885  0.13420650  1
  O  O202  1  0.73982607  0.99239613  0.63045790  1
  O  O203  1  0.02160953  0.36034474  0.20870544  1
  O  O204  1  0.00644497  0.36984175  0.75561875  1
  O  O205  1  -0.00577540  0.86594085  0.26281661  1
  O  O206  1  -0.00716811  0.85652276  0.74352249  1
  O  O207  1  0.51465950  0.37202659  0.25200140  1
  O  O208  1  0.51017178  0.36686419  0.75202597  1
  O  O209  1  0.50615121  0.86852221  0.25229988  1
  O  O210  1  0.51338922  0.88142236  0.75277006  1
  O  O211  1  0.49640078  0.12554760  0.24109333  1
  O  O212  1  0.49839683  0.13060326  0.74230800  1
  O  O213  1  0.49450677  0.63219109  0.24171795  1
  O  O214  1  0.49364598  0.61566960  0.73011941  1
  O  O215  1  0.98723247  0.11499961  0.25333341  1
  O  O216  1  0.99363108  0.13546861  0.75294456  1
  O  O217  1  0.98605270  0.64136387  0.25686323  1
  O  O218  1  0.99392634  0.62953206  0.74116894  1
  O  O219  1  0.36889893  0.25322756  0.00839699  1
  O  O220  1  0.36262444  0.25579663  0.50419269  1
  O  O221  1  0.37902702  0.76394536  0.01008120  1
  O  O222  1  0.36781250  0.76185478  0.50468967  1
  O  O223  1  0.86610040  0.25291052  0.00271922  1
  O  O224  1  0.87360134  0.25460691  0.50749477  1
  O  O225  1  0.86138062  0.74205681  0.00884632  1
  O  O226  1  0.86644776  0.75962956  0.49294745  1
  O  O227  1  0.13463705  0.24552265  0.49461406  1
  O  O228  1  0.13486292  0.24629944  1.00100686  1
  O  O229  1  0.13199247  0.74013624  0.50167686  1
  O  O230  1  0.11409342  0.73800143  0.99874805  1
  O  O231  1  0.63418294  0.23673612  0.50419727  1
  O  O232  1  0.63394047  0.24344585  0.99722259  1
  O  O233  1  0.63339292  0.75307447  0.48459772  1
  O  O234  1  0.63461062  0.74184757  0.99232643  1
  O  O235  1  0.48954971  0.24218793  0.12603603  1
  O  O236  1  0.50158886  0.24236524  0.63815365  1
  O  O237  1  0.49202110  0.74235942  0.13315920  1
  O  O238  1  0.49801649  0.74197009  0.62687086  1
  O  O239  1  0.98141132  0.23841877  0.11057900  1
  O  O240  1  0.98765288  0.25764096  0.63066171  1
  O  O241  1  0.98880853  0.75745185  0.13907854  1
  O  O242  1  1.00151352  0.73698224  0.63008212  1
  O  O243  1  0.01235508  0.24531267  0.38331682  1
  O  O244  1  0.00615766  0.25841148  0.87010557  1
  O  O245  1  -0.00443371  0.76287176  0.36417035  1
  O  O246  1  0.00412823  0.74975989  0.86126203  1
  O  O247  1  0.50534219  0.25474933  0.37381830  1
  O  O248  1  0.50735922  0.25087665  0.86467228  1
  O  O249  1  0.50605995  0.74755727  0.36917321  1
  O  O250  1  0.51349728  0.74879127  0.88056532  1
  O  O251  1  0.24525840  0.13187391  0.49685128  1
  O  O252  1  0.24272569  0.13521647  1.00088593  1
  O  O253  1  0.24387226  0.63460709  0.49723534  1
  O  O254  1  0.23804961  0.61671902  0.99057045  1
  O  O255  1  0.74528120  0.12666459  0.49731893  1
  O  O256  1  0.74402119  0.12966406  1.00173531  1
  O  O257  1  0.75780772  0.63552541  0.49148758  1
  O  O258  1  0.74802392  0.62947438  0.98685004  1
  O  O259  1  0.26324148  0.36326088  0.00207226  1
  O  O260  1  0.25648540  0.36793160  0.50573392  1
  O  O261  1  0.26448625  0.89212554  0.01229647  1
  O  O262  1  0.25684500  0.87277399  0.50604588  1
  O  O263  1  0.75741150  0.36592627  0.00659235  1
  O  O264  1  0.75960237  0.36807192  0.50827731  1
  O  O265  1  0.73646278  0.86325341  0.01747696  1
  O  O266  1  0.75410906  0.86519365  0.50194698  1
  O  O267  1  0.11397275  0.50487862  0.23110358  1
  O  O268  1  0.13097377  0.49567782  0.74484444  1
  O  O269  1  0.14286813  1.00898653  0.25637915  1
  O  O270  1  0.13921062  1.01443955  0.75512375  1
  O  O271  1  0.62290394  0.48557291  0.24376462  1
  O  O272  1  0.62427765  0.48688941  0.74172310  1
  O  O273  1  0.63451089  0.99001299  0.25314506  1
  O  O274  1  0.63046833  0.99399552  0.74046086  1
  O  O275  1  0.36921141  0.00757274  0.26068399  1
  O  O276  1  0.37346061  0.00776738  0.75787605  1
  O  O277  1  0.37278396  0.49900166  0.26696919  1
  O  O278  1  0.36555476  0.49855506  0.75996433  1
  O  O279  1  0.86687650  0.00435523  0.25404626  1
  O  O280  1  0.86884627  0.00552686  0.74889091  1
  O  O281  1  0.88631937  0.51525524  0.24837667  1
  O  O282  1  0.88393213  0.50836494  0.76105529  1
  O  O283  1  0.12518260  0.35774146  0.37973923  1
  O  O284  1  0.12189157  0.37282301  0.87313722  1
  O  O285  1  0.11294293  0.87661640  0.37833324  1
  O  O286  1  0.17912575  0.86417250  0.86136634  1
  O  O287  1  0.62835915  0.37523141  0.36559475  1
  O  O288  1  0.62776467  0.36908280  0.86679529  1
  O  O289  1  0.62406576  0.86544985  0.36310131  1
  O  O290  1  0.62797471  0.86370201  0.86436558  1
  O  O291  1  0.38534402  0.13210872  0.12945541  1
  O  O292  1  0.38610518  0.12645246  0.63086753  1
  O  O293  1  0.38266103  0.63195543  0.12665413  1
  O  O294  1  0.38303172  0.63232473  0.62827328  1
  O  O295  1  0.87317652  0.13021427  0.13662871  1
  O  O296  1  0.87149949  0.13451830  0.63553422  1
  O  O297  1  0.86761271  0.63416386  0.13608327  1
  O  O298  1  0.88323902  0.61621077  0.63350199  1
  O  O299  1  0.26217665  0.24748980  0.12000848  1
  O  O300  1  0.25209687  0.25911207  0.61899739  1
  O  O301  1  0.26669122  0.74942377  0.13494696  1
  O  O302  1  0.24890877  0.76467289  0.61426533  1
  O  O303  1  0.75869785  0.25513438  0.11554798  1
  O  O304  1  0.76195287  0.25828402  0.62049444  1
  O  O305  1  0.75333412  0.75236312  0.11874782  1
  O  O306  1  0.73926624  0.75615106  0.61260504  1
  O  O307  1  0.24938257  0.23874941  0.38519491  1
  O  O308  1  0.24528297  0.25116725  0.88460757  1
  O  O309  1  0.25663824  0.74265179  0.38958100  1
  O  O310  1  0.25125261  0.72900131  0.88136463  1
  O  O311  1  0.74823783  0.23956900  0.38501604  1
  O  O312  1  0.74706279  0.24769119  0.88669855  1
  O  O313  1  0.74209858  0.74021201  0.37882188  1
  O  O314  1  0.74128031  0.73915920  0.88178664  1
  O  O315  1  0.01414580  0.12507827  -0.00151561  1
  O  O316  1  0.00774195  0.11083085  0.49716493  1
  O  O317  1  0.00673722  0.61678753  -0.01048529  1
  O  O318  1  0.00550260  0.62290344  0.50354928  1
  O  O319  1  0.50702815  0.12006682  0.00707438  1
  O  O320  1  0.50885683  0.13157907  0.51464027  1
  O  O321  1  0.49919874  0.63090078  0.01640172  1
  O  O322  1  0.49727119  0.62404478  0.52004937  1
  O  O323  1  0.48586401  0.36504148  0.50275284  1
  O  O324  1  0.48766951  0.36516021  0.99973660  1
  O  O325  1  0.49048729  0.87202960  0.49831454  1
  O  O326  1  0.49527672  0.88383883  0.99871157  1
  O  O327  1  0.99142327  0.38569149  0.50696514  1
  O  O328  1  0.99252182  0.38297295  0.99746577  1
  O  O329  1  0.99158423  0.87427902  0.48859690  1
  O  O330  1  1.00194053  0.88440950  0.99953009  1
  O  O331  1  0.48536352  0.49720524  0.37616280  1
  O  O332  1  0.48729749  0.50044764  0.86967590  1
  O  O333  1  0.48922113  1.00059554  0.37262979  1
  O  O334  1  0.49095660  0.99966702  0.88526736  1
  O  O335  1  0.99827311  0.50524253  0.38681912  1
  O  O336  1  0.99419812  0.49379975  0.88088253  1
  O  O337  1  0.99395772  0.98511330  0.38005929  1
  O  O338  1  1.00191288  0.99751776  0.88793308  1
  O  O339  1  -0.00050227  0.00184487  0.11248418  1
  O  O340  1  -0.00578720  -0.00995826  0.60938305  1
  O  O341  1  0.00622770  0.50320418  0.10936657  1
  O  O342  1  0.00652051  0.51120660  0.61559268  1
  O  O343  1  0.49447011  0.00878947  0.11296332  1
  O  O344  1  0.51292688  0.00779945  0.62874458  1
  O  O345  1  0.49425832  0.51488495  0.13086776  1
  O  O346  1  0.51105656  0.49846645  0.62263968  1
  O  O347  1  0.23396536  0.36814090  0.24774736  1
  O  O348  1  0.24576117  0.38516165  0.74690042  1
  O  O349  1  0.25758184  0.89127176  0.25525142  1
  O  O350  1  0.25500371  0.89127327  0.72632692  1
  O  O351  1  0.74131726  0.37201626  0.24238589  1
  O  O352  1  0.74244052  0.36785769  0.73910513  1
  O  O353  1  0.74214977  0.87924606  0.24178760  1
  O  O354  1  0.74027047  0.87997365  0.73668461  1
  O  O355  1  0.25878569  0.12050674  0.26187432  1
  O  O356  1  0.26292323  0.12162662  0.74833774  1
  O  O357  1  0.25169841  0.63339382  0.26724123  1
  O  O358  1  0.24712207  0.61386739  0.75743033  1
  O  O359  1  0.75369602  0.11578651  0.25313687  1
  O  O360  1  0.75802417  0.11664209  0.74617865  1
  O  O361  1  0.76231465  0.62800199  0.25550502  1
  O  O362  1  0.75863716  0.62849184  0.75928992  1
  O  O363  1  0.36937184  0.11970087  0.37601027  1
  O  O364  1  0.37744075  0.12041347  0.86850621  1
  O  O365  1  0.36959687  0.61360806  0.37817886  1
  O  O366  1  0.36824910  0.61652512  0.87783333  1
  O  O367  1  0.86842791  0.11706732  0.36999235  1
  O  O368  1  0.87325102  0.12404091  0.85936826  1
  O  O369  1  0.86649150  0.62439989  0.36136482  1
  O  O370  1  0.86856133  0.61834689  0.86697903  1
  O  O371  1  0.14043397  0.40140510  0.10175491  1
  O  O372  1  0.13163567  0.38238182  0.63012645  1
  O  O373  1  0.13130808  0.88219854  0.12926262  1
  O  O374  1  0.13596908  0.87813442  0.61444011  1
  O  O375  1  0.63519765  0.37367176  0.13462453  1
  O  O376  1  0.63253397  0.38193880  0.62972914  1
  O  O377  1  0.62926736  0.86545008  0.13889790  1
  O  O378  1  0.62940496  0.88033045  0.62683712  1
  O  O379  1  0.12535067  0.23828027  0.27120045  1
  O  O380  1  0.12180870  0.25751673  0.75665815  1
  O  O381  1  0.10663642  0.74229621  0.24566193  1
  O  O382  1  0.10994798  0.74391595  0.74957120  1
  O  O383  1  0.62580147  0.26252871  0.25222047  1
  O  O384  1  0.62080095  0.25624866  0.75373590  1
  O  O385  1  0.61461859  0.75435146  0.25723463  1
  O  O386  1  0.63065504  0.75719624  0.75779787  1
  O  O387  1  0.37678693  0.24448953  0.24361632  1
  O  O388  1  0.38484404  0.24562415  0.75060841  1
  O  O389  1  0.38671702  0.75128243  0.24713829  1
  O  O390  1  0.35592672  0.75613489  0.75554427  1
  O  O391  1  0.86904166  0.23829245  0.24203583  1
  O  O392  1  0.88043307  0.24407496  0.74371820  1
  O  O393  1  0.87834053  0.74193841  0.24226512  1
  O  O394  1  0.88568549  0.73460653  0.75131752  1
  O  O395  1  0.37045136  0.49007534  0.49186238  1
  O  O396  1  0.37023085  0.48935037  0.99210499  1
  O  O397  1  0.37087388  0.99208142  0.49123506  1
  O  O398  1  0.38285606  0.99924319  0.99408205  1
  O  O399  1  0.88368080  0.49035089  0.49798464  1
  O  O400  1  0.88296565  0.49731883  0.98977628  1
  O  O401  1  0.87858432  0.98851065  0.49341848  1
  O  O402  1  0.89338595  1.00709290  0.99394413  1
  O  O403  1  0.11611317  0.00930726  0.00012233  1
  O  O404  1  0.11578435  0.00947210  0.49519343  1
  O  O405  1  0.11749127  0.51236554  0.00282893  1
  O  O406  1  0.11931946  0.50563711  0.50478410  1
  O  O407  1  0.61755736  0.01228062  -0.00458883  1
  O  O408  1  0.63131683  0.01016488  0.50663036  1
  O  O409  1  0.62410058  0.50106808  0.00664187  1
  O  O410  1  0.62523329  0.49486339  0.51262969  1
  O  O411  1  0.37427230  0.36857884  0.12133236  1
  O  O412  1  0.36899273  0.37662214  0.61982290  1
  O  O413  1  0.37518992  0.86818195  0.12043277  1
  O  O414  1  0.36942147  0.88009586  0.61486849  1
  O  O415  1  0.86879741  0.36691435  0.12124785  1
  O  O416  1  0.86891806  0.37112891  0.61956379  1
  O  O417  1  0.86206629  0.86149286  0.13136666  1
  O  O418  1  0.85784801  0.87675995  0.61336365  1
  O  O419  1  0.13345094  0.13272380  0.38782472  1
  O  O420  1  0.12912529  0.13753767  0.88491116  1
  O  O421  1  0.13361821  0.61799582  0.38666876  1
  O  O422  1  0.13336037  0.62248355  0.88309448  1
  O  O423  1  0.63055261  0.12311159  0.38448122  1
  O  O424  1  0.62645074  0.13282224  0.88441577  1
  O  O425  1  0.63330111  0.63151896  0.36419249  1
  O  O426  1  0.63154997  0.62783308  0.87012368  1
