# generated using pymatgen
data_V85Zn86O256
_symmetry_space_group_name_H-M   'P 1'
_cell_length_a   16.98033411
_cell_length_b   16.97531111
_cell_length_c   16.97680466
_cell_angle_alpha   90.01447233
_cell_angle_beta   89.99497679
_cell_angle_gamma   89.79332719
_symmetry_Int_Tables_number   1
_chemical_formula_structural   V85Zn86O256
_chemical_formula_sum   'V85 Zn86 O256'
_cell_volume   4893.47173617
_cell_formula_units_Z   1
loop_
 _symmetry_equiv_pos_site_id
 _symmetry_equiv_pos_as_xyz
  1  'x, y, z'
loop_
 _atom_site_type_symbol
 _atom_site_label
 _atom_site_symmetry_multiplicity
 _atom_site_fract_x
 _atom_site_fract_y
 _atom_site_fract_z
 _atom_site_occupancy
  V  V0  1  0.74873847  0.25404219  0.49794378  1
  V  V1  1  0.25821531  0.74826676  0.51349507  1
  V  V2  1  0.62537368  0.37924320  0.24834384  1
  V  V3  1  0.63140315  -0.00334301  0.12104970  1
  V  V4  1  0.12829552  0.62693611  0.00207204  1
  V  V5  1  0.38068772  0.62841543  0.74032177  1
  V  V6  1  0.36264072  0.12851162  0.75860171  1
  V  V7  1  -0.00218045  0.49995483  0.50047169  1
  V  V8  1  0.25776552  0.49912423  0.25757698  1
  V  V9  1  0.87247152  0.87799554  -0.00115772  1
  V  V10  1  0.12404481  0.62368204  0.49673875  1
  V  V11  1  0.36852201  0.11944659  0.25751902  1
  V  V12  1  0.24947706  0.24485635  -0.00582305  1
  V  V13  1  0.87354729  0.50093938  0.37549019  1
  V  V14  1  0.00460869  0.24867258  0.75073697  1
  V  V15  1  0.74653165  0.11988339  0.37040171  1
  V  V16  1  0.26068350  0.76104816  0.00980639  1
  V  V17  1  0.74948451  0.24640327  -0.01398974  1
  V  V18  1  0.49917468  0.50039091  -0.00010480  1
  V  V19  1  0.37506253  0.37375022  -0.00114628  1
  V  V20  1  0.62020760  0.50251739  0.62471018  1
  V  V21  1  0.37290698  -0.01285143  0.87437407  1
  V  V22  1  0.00054593  0.50042862  0.00138916  1
  V  V23  1  0.24959074  0.23950486  0.49732344  1
  V  V24  1  0.75188812  0.37634774  0.62529810  1
  V  V25  1  0.62485367  0.25498468  0.37323352  1
  V  V26  1  0.74953022  0.75426615  0.00010402  1
  V  V27  1  0.37296679  0.37784866  0.49449852  1
  V  V28  1  -0.00549006  0.87483236  0.39115815  1
  V  V29  1  0.86990855  0.13057348  0.75378353  1
  V  V30  1  0.62529348  0.12843389  -0.01143653  1
  V  V31  1  0.87689332  0.24829611  0.12343707  1
  V  V32  1  0.24822295  0.62125190  0.86855765  1
  V  V33  1  0.87540489  0.37176663  0.49955506  1
  V  V34  1  0.13252490  0.37925913  0.75285501  1
  V  V35  1  0.24875966  0.37344042  0.12492508  1
  V  V36  1  0.58683917  0.79686857  0.89326743  1
  V  V37  1  0.74860729  0.50265986  0.24921036  1
  V  V38  1  0.87516408  0.12289342  0.25328754  1
  V  V39  1  0.87461270  0.63844269  0.74729808  1
  V  V40  1  0.87235036  0.75560689  0.12466510  1
  V  V41  1  0.87283840  0.62731808  0.24826451  1
  V  V42  1  0.00100743  0.75782795  0.25009891  1
  V  V43  1  0.37486301  0.24706148  0.12484301  1
  V  V44  1  0.49182631  0.75518309  0.24796655  1
  V  V45  1  0.50198837  -0.00511527  0.48722939  1
  V  V46  1  0.11472312  0.86893583  0.74253617  1
  V  V47  1  0.62605030  0.12966173  0.50116698  1
  V  V48  1  0.74810580  0.63019441  0.37791690  1
  V  V49  1  0.50522855  0.36935871  0.87575211  1
  V  V50  1  0.75383786  -0.00608946  0.75497348  1
  V  V51  1  0.50461550  0.24778428  0.75300702  1
  V  V52  1  0.00375420  0.37636374  0.87472041  1
  V  V53  1  0.36964652  0.49769088  0.86677698  1
  V  V54  1  0.63656605  -0.00212782  0.62568328  1
  V  V55  1  0.19149040  -0.06628041  0.18920490  1
  V  V56  1  0.00386599  -0.00245816  0.00582506  1
  V  V57  1  0.50532934  0.12572087  0.12394189  1
  V  V58  1  0.62196533  0.62943907  0.50651106  1
  V  V59  1  0.49670775  0.38396360  0.37382980  1
  V  V60  1  0.75130025  0.76634107  0.51327932  1
  V  V61  1  0.12878221  0.74760033  0.36976441  1
  V  V62  1  0.00159060  0.24740385  0.25421123  1
  V  V63  1  0.11942806  0.75229854  0.87538985  1
  V  V64  1  0.75057249  0.37650826  0.12364619  1
  V  V65  1  0.12471446  0.49873521  0.12838180  1
  V  V66  1  -0.00317523  0.63438406  0.62836613  1
  V  V67  1  0.62893179  0.87668719  0.25017311  1
  V  V68  1  0.62663751  0.37201453  0.75298633  1
  V  V69  1  0.49921502  0.25441669  0.24975487  1
  V  V70  1  0.61951396  0.75682237  0.37519025  1
  V  V71  1  -0.00001839  0.37346481  0.37427206  1
  V  V72  1  0.25047240  0.37828080  0.62541321  1
  V  V73  1  0.49252514  0.50761325  0.50116088  1
  V  V74  1  0.62550223  0.62358917  -0.00570984  1
  V  V75  1  0.12567575  0.50048843  0.62976967  1
  V  V76  1  0.13096834  0.11651137  0.00066328  1
  V  V77  1  0.12657202  0.23951791  0.37737687  1
  V  V78  1  0.87561014  0.50330706  0.87077697  1
  V  V79  1  0.87524753  0.37510888  -0.00124516  1
  V  V80  1  0.01019306  0.11997957  0.62184022  1
  V  V81  1  0.37591624  0.24920075  0.62327723  1
  V  V82  1  0.74606142  0.63096920  0.86903355  1
  V  V83  1  0.24481327  -0.01720700  0.75218487  1
  V  V84  1  0.50232040  0.12353135  0.62940247  1
  Zn  Zn85  1  0.26284701  0.62060882  0.37739142  1
  Zn  Zn86  1  -0.00008533  0.62707311  0.12676890  1
  Zn  Zn87  1  0.37737957  0.86465699  0.50369506  1
  Zn  Zn88  1  0.75555389  -0.00857503  0.24366025  1
  Zn  Zn89  1  0.12993308  -0.00174248  0.60938307  1
  Zn  Zn90  1  0.87520367  0.01024100  0.88031722  1
  Zn  Zn91  1  0.13173858  0.24443871  0.87357138  1
  Zn  Zn92  1  0.47508667  -0.04460837  -0.00953005  1
  Zn  Zn93  1  0.12470027  0.37232171  0.25092870  1
  Zn  Zn94  1  0.00693199  0.11628342  0.13048697  1
  Zn  Zn95  1  0.87777420  -0.01217089  0.37737917  1
  Zn  Zn96  1  0.87880374  0.24999483  0.62522606  1
  Zn  Zn97  1  0.19045733  0.07557004  0.44397029  1
  Zn  Zn98  1  0.35690336  -0.01081243  0.37244607  1
  Zn  Zn99  1  0.62536491  0.50381140  0.12399791  1
  Zn  Zn100  1  -0.00072148  0.87453578  0.87623022  1
  Zn  Zn101  1  0.87835180  0.77433881  0.62505260  1
  Zn  Zn102  1  0.49249406  0.63003956  0.12067345  1
  Zn  Zn103  1  0.62009849  0.87526724  0.74769682  1
  Zn  Zn104  1  0.49117073  0.76024535  0.74100861  1
  Zn  Zn105  1  0.74875205  0.50458387  0.74779934  1
  Zn  Zn106  1  0.37934816  0.62568718  0.25053906  1
  Zn  Zn107  1  0.18693035  0.18174611  0.18445275  1
  Zn  Zn108  1  0.18836526  0.19266046  0.68462691  1
  Zn  Zn109  1  0.19040435  0.68803771  0.18752384  1
  Zn  Zn110  1  0.18607671  0.68402963  0.69155576  1
  Zn  Zn111  1  0.68914747  0.19037418  0.18336711  1
  Zn  Zn112  1  0.69024374  0.18932469  0.68760894  1
  Zn  Zn113  1  0.68225972  0.69074099  0.18258789  1
  Zn  Zn114  1  0.65653086  0.70595253  0.69113668  1
  Zn  Zn115  1  0.31051180  0.31084319  0.31238392  1
  Zn  Zn116  1  0.31451855  0.31185604  0.81147945  1
  Zn  Zn117  1  0.31120725  0.81935006  0.32243740  1
  Zn  Zn118  1  0.30876463  0.80463022  0.81524985  1
  Zn  Zn119  1  0.81338554  0.31109687  0.31169302  1
  Zn  Zn120  1  0.81580952  0.31533362  0.81058217  1
  Zn  Zn121  1  0.80930299  0.81221155  0.31411342  1
  Zn  Zn122  1  0.81146344  0.81545563  0.81466539  1
  Zn  Zn123  1  0.18338012  0.43163026  0.43818631  1
  Zn  Zn124  1  0.18934963  0.43770996  0.93972487  1
  Zn  Zn125  1  0.18798740  0.92077409  0.43046530  1
  Zn  Zn126  1  0.19149134  0.93698683  0.93524525  1
  Zn  Zn127  1  0.68500424  0.44216368  0.43774103  1
  Zn  Zn128  1  0.68974907  0.43966410  0.93538452  1
  Zn  Zn129  1  0.68272017  0.94002097  0.43448823  1
  Zn  Zn130  1  0.69405537  0.94899366  0.94001556  1
  Zn  Zn131  1  0.31123366  0.05512170  0.06734714  1
  Zn  Zn132  1  0.33032918  0.03197370  0.57983266  1
  Zn  Zn133  1  0.31250783  0.56693126  0.06479856  1
  Zn  Zn134  1  0.30800702  0.56203754  0.56112633  1
  Zn  Zn135  1  0.81163524  0.06607771  0.06224532  1
  Zn  Zn136  1  0.82377475  -0.04121316  0.56120270  1
  Zn  Zn137  1  0.81202281  0.56585470  0.06143323  1
  Zn  Zn138  1  0.80980569  0.56509203  0.56349779  1
  Zn  Zn139  1  0.43571544  0.44100062  0.18173140  1
  Zn  Zn140  1  0.43796630  0.43904133  0.68584950  1
  Zn  Zn141  1  0.43509601  0.94096813  0.18554191  1
  Zn  Zn142  1  0.43645079  0.92874347  0.68015242  1
  Zn  Zn143  1  0.93755787  0.43718100  0.18802270  1
  Zn  Zn144  1  0.94044900  0.43950098  0.68836904  1
  Zn  Zn145  1  0.93792227  0.93584131  0.18707459  1
  Zn  Zn146  1  0.94235568  0.94490495  0.69035936  1
  Zn  Zn147  1  0.06641902  0.05110225  0.31102464  1
  Zn  Zn148  1  0.06389125  0.06038244  0.82045606  1
  Zn  Zn149  1  0.06032949  0.56480181  0.31041832  1
  Zn  Zn150  1  0.06015276  0.56536738  0.81114853  1
  Zn  Zn151  1  0.56431137  0.06600657  0.30479432  1
  Zn  Zn152  1  0.55802004  0.05010004  0.81428483  1
  Zn  Zn153  1  0.56040968  0.56795113  0.31492165  1
  Zn  Zn154  1  0.55890488  0.55950034  0.81218025  1
  Zn  Zn155  1  0.43892248  0.18898079  0.43746427  1
  Zn  Zn156  1  0.44052781  0.18519154  0.93855159  1
  Zn  Zn157  1  0.43366979  0.68688459  0.42958077  1
  Zn  Zn158  1  0.43369656  0.68600872  0.93344197  1
  Zn  Zn159  1  0.89712051  0.13337335  0.47709904  1
  Zn  Zn160  1  0.94614736  0.18600577  0.93726313  1
  Zn  Zn161  1  0.93378709  0.69179581  0.44046100  1
  Zn  Zn162  1  0.93862672  0.68751316  0.93835118  1
  Zn  Zn163  1  0.06388903  0.30844476  0.06268738  1
  Zn  Zn164  1  0.06431120  0.30765959  0.56197864  1
  Zn  Zn165  1  0.06576461  0.81432371  0.06604643  1
  Zn  Zn166  1  0.06765552  0.81077705  0.56094136  1
  Zn  Zn167  1  0.56631152  0.31046130  0.06139442  1
  Zn  Zn168  1  0.56061946  0.31579119  0.56377271  1
  Zn  Zn169  1  0.52684780  0.83117548  0.07740436  1
  Zn  Zn170  1  0.56265287  0.81536726  0.56925229  1
  O  O171  1  0.12002200  0.13344910  0.10704799  1
  O  O172  1  0.11319503  0.12984521  0.63152879  1
  O  O173  1  0.12301444  0.61590995  0.11714179  1
  O  O174  1  0.11594339  0.61779556  0.62118029  1
  O  O175  1  0.62159357  0.12340217  0.11872368  1
  O  O176  1  0.62242920  0.12582799  0.61671285  1
  O  O177  1  0.62412928  0.62458493  0.10552640  1
  O  O178  1  0.63816760  0.60789361  0.61798448  1
  O  O179  1  0.38196927  0.37137885  0.38652228  1
  O  O180  1  0.38199748  0.37995700  0.87957832  1
  O  O181  1  0.37626698  0.87830749  0.39051673  1
  O  O182  1  0.36680228  0.88771752  0.87038302  1
  O  O183  1  0.88049307  0.37895440  0.38087168  1
  O  O184  1  0.88123589  0.38511292  0.87938406  1
  O  O185  1  0.88848670  0.86963878  0.37343506  1
  O  O186  1  0.87860023  0.87510404  0.88857846  1
  O  O187  1  0.24540550  0.00205570  0.37659055  1
  O  O188  1  0.25459078  0.00258093  0.85940472  1
  O  O189  1  0.23783010  0.49628674  0.35924608  1
  O  O190  1  0.25912896  0.50646066  0.88022129  1
  O  O191  1  0.74208200  0.01417062  0.36672221  1
  O  O192  1  0.75603975  0.00796112  0.86010499  1
  O  O193  1  0.75404773  0.50953745  0.37091634  1
  O  O194  1  0.76083465  0.51062104  0.87403336  1
  O  O195  1  0.24104002  0.49230215  0.13219886  1
  O  O196  1  0.23306825  0.49392069  0.61906835  1
  O  O197  1  0.26546883  0.98183814  0.13611647  1
  O  O198  1  0.23921897  1.01996721  0.65409084  1
  O  O199  1  0.75041454  0.49474826  0.13048837  1
  O  O200  1  0.74415230  0.48825378  0.62457615  1
  O  O201  1  0.73535872  1.00816386  0.12718990  1
  O  O202  1  0.74560454  1.01135710  0.63905827  1
  O  O203  1  -0.00092801  0.36654304  0.25660086  1
  O  O204  1  0.00981695  0.37087318  0.75519930  1
  O  O205  1  -0.00509668  0.85972992  0.25277805  1
  O  O206  1  0.01245041  0.87778832  0.75656123  1
  O  O207  1  0.50300189  0.37597140  0.25659235  1
  O  O208  1  0.50731758  0.37031040  0.75617394  1
  O  O209  1  0.51329948  0.86297150  0.24713018  1
  O  O210  1  0.50371760  0.87582718  0.74491412  1
  O  O211  1  0.49807160  0.13873293  0.24277753  1
  O  O212  1  0.49969984  0.12963442  0.74347218  1
  O  O213  1  0.50594053  0.64094740  0.24860930  1
  O  O214  1  0.48229393  0.62004603  0.75352694  1
  O  O215  1  0.99210248  0.13096565  0.25011384  1
  O  O216  1  1.00099321  0.13481831  0.75102111  1
  O  O217  1  0.98606115  0.63167031  0.25012858  1
  O  O218  1  0.98865118  0.62117736  0.73994274  1
  O  O219  1  0.36964433  0.25221275  0.00621992  1
  O  O220  1  0.37186977  0.25902364  0.50498261  1
  O  O221  1  0.35902481  0.74207989  -0.00456087  1
  O  O222  1  0.36386983  0.74273910  0.50386696  1
  O  O223  1  0.87270910  0.25225742  0.00691210  1
  O  O224  1  0.86185771  0.24910548  0.50409542  1
  O  O225  1  0.87095596  0.75494643  0.00721001  1
  O  O226  1  0.85373934  0.74225402  0.50800341  1
  O  O227  1  0.13712664  0.25543075  0.49068786  1
  O  O228  1  0.13420592  0.24404112  0.99693680  1
  O  O229  1  0.12891792  0.73559998  0.49464762  1
  O  O230  1  0.12942721  0.74057838  0.99475691  1
  O  O231  1  0.62947780  0.25018413  0.49476836  1
  O  O232  1  0.63625907  0.23902246  1.00229256  1
  O  O233  1  0.63358283  0.74604711  0.49348335  1
  O  O234  1  0.63704631  0.74024335  0.97627565  1
  O  O235  1  0.49571509  0.24665513  0.13020734  1
  O  O236  1  0.49573498  0.24210725  0.62910907  1
  O  O237  1  0.50885140  0.74402545  0.14401097  1
  O  O238  1  0.55332541  0.73859488  0.64711871  1
  O  O239  1  0.98926613  0.25178028  0.13466168  1
  O  O240  1  1.00218972  0.25186057  0.64114608  1
  O  O241  1  0.99150596  0.74732395  0.13155577  1
  O  O242  1  0.99554237  0.73699567  0.61824719  1
  O  O243  1  0.00545692  0.25621326  0.36194044  1
  O  O244  1  0.00395241  0.26011221  0.86599306  1
  O  O245  1  0.00128034  0.75237121  0.36862173  1
  O  O246  1  0.01521993  0.74876381  0.87962189  1
  O  O247  1  0.50592017  0.26525877  0.37108378  1
  O  O248  1  0.49697487  0.26351271  0.87113441  1
  O  O249  1  0.51498164  0.74637754  0.36760861  1
  O  O250  1  0.50261029  0.74350408  0.86312332  1
  O  O251  1  0.26230048  0.13939381  0.50933394  1
  O  O252  1  0.24007468  0.13079607  1.00786140  1
  O  O253  1  0.23930576  0.62623287  0.49561289  1
  O  O254  1  0.23811758  0.62246471  0.99163618  1
  O  O255  1  0.73528925  0.13759392  0.48755842  1
  O  O256  1  0.73811868  0.13383354  1.00147531  1
  O  O257  1  0.73839142  0.62731299  0.49371676  1
  O  O258  1  0.74328228  0.62970020  0.99177297  1
  O  O259  1  0.25591934  0.36825148  0.00692641  1
  O  O260  1  0.25892034  0.37178770  0.50441411  1
  O  O261  1  0.24825530  0.85952631  -0.00412742  1
  O  O262  1  0.24470337  0.84856257  0.50216681  1
  O  O263  1  0.75670363  0.37013744  0.00413178  1
  O  O264  1  0.75481293  0.37336631  0.50476915  1
  O  O265  1  0.75773020  0.86561714  -0.00570407  1
  O  O266  1  0.74854503  0.86861946  0.49952468  1
  O  O267  1  0.12544880  0.49794126  0.23805976  1
  O  O268  1  0.11854461  0.49184994  0.74114810  1
  O  O269  1  0.13169172  1.00500389  0.23415209  1
  O  O270  1  0.13326896  0.98407447  0.75866571  1
  O  O271  1  0.63103014  0.49711857  0.24822257  1
  O  O272  1  0.62420290  0.49011393  0.74134544  1
  O  O273  1  0.62816563  0.99426623  0.23958840  1
  O  O274  1  0.64033309  1.00960416  0.74280730  1
  O  O275  1  0.39039215  0.01543079  0.25839082  1
  O  O276  1  0.36127886  0.01197526  0.75856712  1
  O  O277  1  0.35842899  0.48924352  0.25133595  1
  O  O278  1  0.37771972  0.50081505  0.76287383  1
  O  O279  1  0.87265378  0.00811743  0.25433338  1
  O  O280  1  0.86740011  0.01425353  0.75342971  1
  O  O281  1  0.86850786  0.50666787  0.25585784  1
  O  O282  1  0.87401462  0.50469561  0.76098595  1
  O  O283  1  0.11307624  0.36612875  0.37316485  1
  O  O284  1  0.12155375  0.37757818  0.86769728  1
  O  O285  1  0.10870215  0.85261395  0.37764914  1
  O  O286  1  0.12465821  0.86563926  0.86789341  1
  O  O287  1  0.61851220  0.37379464  0.36890042  1
  O  O288  1  0.61760178  0.38223383  0.86471923  1
  O  O289  1  0.62842824  0.86661144  0.36584334  1
  O  O290  1  0.63026165  0.89005183  0.86703770  1
  O  O291  1  0.38715864  0.12935289  0.13061317  1
  O  O292  1  0.38594273  0.12648836  0.63788421  1
  O  O293  1  0.38178595  0.61112428  0.13721793  1
  O  O294  1  0.36840320  0.61085553  0.64375556  1
  O  O295  1  0.87529173  0.13327112  0.13666249  1
  O  O296  1  0.89485690  0.13303895  0.64593733  1
  O  O297  1  0.87536198  0.63629394  0.12934435  1
  O  O298  1  0.88189561  0.61917591  0.63460809  1
  O  O299  1  0.25547494  0.25577412  0.11655228  1
  O  O300  1  0.25709184  0.25957403  0.61725756  1
  O  O301  1  0.24714039  0.74335480  0.10865780  1
  O  O302  1  0.24521524  0.73749045  0.61122074  1
  O  O303  1  0.76329153  0.25703050  0.11926873  1
  O  O304  1  0.74908410  0.26434378  0.61859174  1
  O  O305  1  0.75617738  0.74409985  0.10843416  1
  O  O306  1  0.74139155  0.75012338  0.61291832  1
  O  O307  1  0.23910260  0.25507639  0.38361347  1
  O  O308  1  0.25308540  0.25603150  0.89101940  1
  O  O309  1  0.23902400  0.74038321  0.38141991  1
  O  O310  1  0.23894579  0.73826651  0.88367189  1
  O  O311  1  0.74259047  0.24675002  0.37812957  1
  O  O312  1  0.75566379  0.25701169  0.88751517  1
  O  O313  1  0.74281072  0.74412295  0.38553588  1
  O  O314  1  0.76794453  0.73534092  0.88721594  1
  O  O315  1  0.00966959  0.11743957  0.00505760  1
  O  O316  1  0.00013068  0.14112244  0.52421346  1
  O  O317  1  0.01225174  0.61800685  0.00039494  1
  O  O318  1  0.00390720  0.61895029  0.50596200  1
  O  O319  1  0.51469097  0.13523598  0.01022897  1
  O  O320  1  0.51439325  0.12995171  0.50519804  1
  O  O321  1  0.50738255  0.61631849  -0.00482625  1
  O  O322  1  0.51304638  0.61945787  0.49523398  1
  O  O323  1  0.49301214  0.38312286  0.49316278  1
  O  O324  1  0.49772470  0.37869687  0.99267539  1
  O  O325  1  0.50466468  0.89237233  0.50655580  1
  O  O326  1  0.53193960  0.85246241  0.96623731  1
  O  O327  1  0.99311530  0.37771950  0.49504068  1
  O  O328  1  0.99467586  0.37972241  0.99501274  1
  O  O329  1  0.99615110  0.86560499  0.48967143  1
  O  O330  1  0.99272871  0.88038386  1.00032041  1
  O  O331  1  0.50714381  0.48992366  0.38469998  1
  O  O332  1  0.49319024  0.48897113  0.88343412  1
  O  O333  1  0.51962259  1.00349910  0.38930397  1
  O  O334  1  0.47919304  0.99911097  0.87888089  1
  O  O335  1  0.99301577  0.49410364  0.37954643  1
  O  O336  1  0.99394384  0.49657747  0.88112536  1
  O  O337  1  1.00092862  0.97756482  0.37055548  1
  O  O338  1  0.99527447  0.99708483  0.89036905  1
  O  O339  1  -0.00799271  0.00079267  0.11116124  1
  O  O340  1  0.01043421  0.01663311  0.63186710  1
  O  O341  1  0.00609609  0.50145228  0.11928403  1
  O  O342  1  0.00860768  0.50458801  0.61806252  1
  O  O343  1  0.51802245  0.02125275  0.13336872  1
  O  O344  1  0.51349294  0.01711859  0.61515350  1
  O  O345  1  0.50434070  0.49672578  0.10867337  1
  O  O346  1  0.50949601  0.49428332  0.61333316  1
  O  O347  1  0.24529797  0.38199121  0.24330030  1
  O  O348  1  0.23949212  0.37092133  0.74442601  1
  O  O349  1  0.23564237  0.86727767  0.25367317  1
  O  O350  1  0.24349764  0.88008656  0.74829373  1
  O  O351  1  0.74656443  0.38212315  0.24494311  1
  O  O352  1  0.74422199  0.37832543  0.74248553  1
  O  O353  1  0.73653832  0.87414644  0.24961983  1
  O  O354  1  0.75332573  0.89230363  0.75095552  1
  O  O355  1  0.27077260  0.13073610  0.24189876  1
  O  O356  1  0.26331490  0.13997180  0.75504208  1
  O  O357  1  0.24658279  0.60660995  0.25098344  1
  O  O358  1  0.25552853  0.62476822  0.76314700  1
  O  O359  1  0.75638265  0.12952536  0.25631888  1
  O  O360  1  0.76700382  0.12918071  0.74725692  1
  O  O361  1  0.75227156  0.62329638  0.25728479  1
  O  O362  1  0.75478576  0.62425524  0.75682432  1
  O  O363  1  0.38051118  0.13440085  0.35743596  1
  O  O364  1  0.38246827  0.12758076  0.85893201  1
  O  O365  1  0.37548223  0.61873949  0.36447513  1
  O  O366  1  0.36572854  0.61435754  0.86846816  1
  O  O367  1  0.86244691  0.13313298  0.36156383  1
  O  O368  1  0.88500552  0.12898113  0.85880744  1
  O  O369  1  0.86263601  0.62327600  0.37155189  1
  O  O370  1  0.87295165  0.61980842  0.86642083  1
  O  O371  1  0.12974315  0.38187360  0.12533415  1
  O  O372  1  0.12830799  0.38194218  0.63227973  1
  O  O373  1  0.13094500  0.87976613  0.12728331  1
  O  O374  1  0.12007881  0.87591659  0.63953643  1
  O  O375  1  0.63305758  0.37707392  0.13092198  1
  O  O376  1  0.63172072  0.38397622  0.62904390  1
  O  O377  1  0.62022700  0.89300212  0.12718537  1
  O  O378  1  0.62999796  0.89604522  0.62613959  1
  O  O379  1  0.11755681  0.24924436  0.25444093  1
  O  O380  1  0.12122999  0.26078492  0.75489578  1
  O  O381  1  0.11200884  0.73267863  0.25977620  1
  O  O382  1  0.13115125  0.76258801  0.75765387  1
  O  O383  1  0.61962927  0.26004476  0.25278559  1
  O  O384  1  0.62084570  0.26432827  0.74382933  1
  O  O385  1  0.62457208  0.75710786  0.25805965  1
  O  O386  1  0.63548225  0.76346066  0.79329393  1
  O  O387  1  0.38143328  0.24835792  0.24212090  1
  O  O388  1  0.38337196  0.24421035  0.74342931  1
  O  O389  1  0.39076997  0.75593150  0.25636167  1
  O  O390  1  0.37315873  0.73393613  0.74999523  1
  O  O391  1  0.88195615  0.24549504  0.24272849  1
  O  O392  1  0.88464366  0.24636385  0.74971847  1
  O  O393  1  0.87631152  0.74584777  0.24158259  1
  O  O394  1  0.86832820  0.74127323  0.74325914  1
  O  O395  1  0.38546803  0.49442798  0.50482682  1
  O  O396  1  0.38208756  0.49353246  0.99094257  1
  O  O397  1  0.40181294  1.02592233  0.48468419  1
  O  O398  1  0.36653623  1.01309225  0.97560309  1
  O  O399  1  0.87851635  0.49487748  0.49368493  1
  O  O400  1  0.87986347  0.49821965  0.98965895  1
  O  O401  1  0.86151010  1.02586348  0.48265473  1
  O  O402  1  0.87766839  0.99319581  1.00071211  1
  O  O403  1  0.12130541  0.00919833  -0.00334615  1
  O  O404  1  0.13281631  -0.00428631  0.49858071  1
  O  O405  1  0.12183275  0.50449565  0.01090427  1
  O  O406  1  0.11795043  0.50675587  0.50500337  1
  O  O407  1  0.62461727  0.01224895  0.01063891  1
  O  O408  1  0.62369011  0.01242374  0.50701946  1
  O  O409  1  0.61733131  0.50562767  -0.00086382  1
  O  O410  1  0.61637450  0.50770093  0.50586781  1
  O  O411  1  0.37009388  0.36809907  0.11670043  1
  O  O412  1  0.37170988  0.37136254  0.61567977  1
  O  O413  1  0.43671955  0.90122475  0.08365073  1
  O  O414  1  0.36273810  0.92217133  0.60124458  1
  O  O415  1  0.87145045  0.36903624  0.11774311  1
  O  O416  1  0.86843324  0.37485403  0.61930109  1
  O  O417  1  0.87543179  0.86288066  0.11584401  1
  O  O418  1  0.87627263  0.88550356  0.62561283  1
  O  O419  1  0.11717773  0.13659947  0.37379145  1
  O  O420  1  0.12200889  0.12935754  0.89383295  1
  O  O421  1  0.12038330  0.62921165  0.38555422  1
  O  O422  1  0.13042037  0.62733311  0.88013136  1
  O  O423  1  0.62892120  0.13594982  0.37760961  1
  O  O424  1  0.61622802  0.11918305  0.89063322  1
  O  O425  1  0.63475334  0.63146150  0.38374391  1
  O  O426  1  0.63578158  0.61145818  0.88203790  1
