# generated using pymatgen
data_V85Zn86O256
_symmetry_space_group_name_H-M   'P 1'
_cell_length_a   16.92624852
_cell_length_b   16.92408000
_cell_length_c   16.92322748
_cell_angle_alpha   89.99294335
_cell_angle_beta   89.99570271
_cell_angle_gamma   90.11764842
_symmetry_Int_Tables_number   1
_chemical_formula_structural   V85Zn86O256
_chemical_formula_sum   'V85 Zn86 O256'
_cell_volume   4847.83751000
_cell_formula_units_Z   1
loop_
 _symmetry_equiv_pos_site_id
 _symmetry_equiv_pos_as_xyz
  1  'x, y, z'
loop_
 _atom_site_type_symbol
 _atom_site_label
 _atom_site_symmetry_multiplicity
 _atom_site_fract_x
 _atom_site_fract_y
 _atom_site_fract_z
 _atom_site_occupancy
  V  V0  1  0.74381786  0.25029489  -0.00575981  1
  V  V1  1  0.36398373  0.37101723  0.00009330  1
  V  V2  1  0.25334167  0.87629617  0.12255743  1
  V  V3  1  0.12448422  0.62558742  -0.00018236  1
  V  V4  1  0.37422643  0.75170465  0.12228897  1
  V  V5  1  0.49716806  0.62420049  0.12392214  1
  V  V6  1  -0.00114707  0.36437851  0.87206259  1
  V  V7  1  0.49698050  0.49913002  0.50088587  1
  V  V8  1  0.50723863  0.75380935  0.24966777  1
  V  V9  1  0.00075563  0.49757177  0.50849842  1
  V  V10  1  0.12030669  -0.00251142  0.11937224  1
  V  V11  1  0.49832278  0.37525381  0.37524362  1
  V  V12  1  0.49905779  0.36969132  0.87656635  1
  V  V13  1  0.51348798  0.75954521  0.76044201  1
  V  V14  1  0.25267118  0.13148454  0.88144786  1
  V  V15  1  0.24267400  0.49878345  0.74172318  1
  V  V16  1  0.74661823  0.87500454  0.12829883  1
  V  V17  1  0.24523441  0.36621410  0.62285253  1
  V  V18  1  0.49799874  0.12221213  0.62565322  1
  V  V19  1  0.62289398  0.50038986  0.12427017  1
  V  V20  1  0.25045214  0.00763834  0.25041479  1
  V  V21  1  0.62877482  0.49986427  0.62375598  1
  V  V22  1  0.87338932  0.37504939  -0.00126761  1
  V  V23  1  0.36809983  0.62706518  0.25466784  1
  V  V24  1  0.87303745  0.87648314  0.49880601  1
  V  V25  1  0.88270107  0.88676573  0.00393870  1
  V  V26  1  0.24504305  0.37168471  0.13361784  1
  V  V27  1  0.61880206  0.12849919  -0.00331387  1
  V  V28  1  0.74999728  -0.00115793  0.25340555  1
  V  V29  1  0.25230208  0.75435144  -0.00301390  1
  V  V30  1  0.12500172  0.49671070  0.13312327  1
  V  V31  1  0.13222040  0.25675441  0.37455508  1
  V  V32  1  0.24892113  0.12689126  0.38587466  1
  V  V33  1  0.62532892  0.37173678  0.75526938  1
  V  V34  1  0.36821884  0.24541128  0.12581345  1
  V  V35  1  0.89251934  0.13235644  0.74972150  1
  V  V36  1  0.00000431  0.50019576  0.00035672  1
  V  V37  1  0.62712878  0.25070141  0.37838393  1
  V  V38  1  0.87661800  0.74795276  0.13114691  1
  V  V39  1  0.24795887  0.62358496  0.87337217  1
  V  V40  1  0.12760881  0.13300263  0.00335834  1
  V  V41  1  0.11838068  0.75545916  0.86107628  1
  V  V42  1  0.87836052  0.00215572  0.87045360  1
  V  V43  1  0.74674875  0.12442717  0.86693125  1
  V  V44  1  0.11965619  0.36830675  0.74533105  1
  V  V45  1  0.12011779  -0.00035648  0.63785228  1
  V  V46  1  0.49875169  0.25003594  0.75109682  1
  V  V47  1  0.87697627  0.50887547  0.37321060  1
  V  V48  1  -0.00265291  0.11958578  0.12238683  1
  V  V49  1  0.55517352  -0.05527621  -0.05197077  1
  V  V50  1  0.62057805  -0.00278931  0.13111173  1
  V  V51  1  0.37519283  0.62309523  0.75006323  1
  V  V52  1  0.37535731  0.00571155  0.37201955  1
  V  V53  1  0.87452615  0.24856708  0.12696953  1
  V  V54  1  0.37291062  0.75087654  0.62557484  1
  V  V55  1  0.12740204  0.61939231  0.49256649  1
  V  V56  1  0.51077922  0.87746502  0.37200807  1
  V  V57  1  0.74791132  0.37480450  0.12432699  1
  V  V58  1  0.50046742  -0.00062187  0.50341229  1
  V  V59  1  0.37212398  0.11869355  0.75368369  1
  V  V60  1  0.24379934  0.74638866  0.48455395  1
  V  V61  1  0.62381605  0.37538943  0.25048641  1
  V  V62  1  0.00234158  0.00926062  0.50138024  1
  V  V63  1  0.37365231  0.87393991  0.49966893  1
  V  V64  1  0.12396902  0.86844181  0.25849674  1
  V  V65  1  0.49818372  0.49997918  -0.00164173  1
  V  V66  1  0.89127488  0.24803617  0.62207507  1
  V  V67  1  0.74669909  0.36236162  0.61701692  1
  V  V68  1  0.62995692  0.12816565  0.50263453  1
  V  V69  1  0.36689596  0.50366537  0.37688598  1
  V  V70  1  0.63367605  -0.00501078  0.63733275  1
  V  V71  1  0.74855060  0.63626123  0.87086189  1
  V  V72  1  0.36973415  0.36463494  0.50026586  1
  V  V73  1  0.50321890  0.62606383  0.62598121  1
  V  V74  1  0.88310274  0.75161106  0.62499570  1
  V  V75  1  0.37404535  -0.01408430  0.89189542  1
  V  V76  1  0.75332376  0.13145519  0.37727064  1
  V  V77  1  0.87415277  0.50128392  0.87333787  1
  V  V78  1  0.00050968  0.37545615  0.36559451  1
  V  V79  1  0.74868744  0.75404865  -0.00360561  1
  V  V80  1  0.75404474  0.50863548  0.24906171  1
  V  V81  1  -0.00335295  0.62480860  0.13273020  1
  V  V82  1  0.49645343  0.24383622  0.25003381  1
  V  V83  1  0.49506599  0.12134079  0.12429954  1
  V  V84  1  0.88577055  0.62377213  0.74592576  1
  Zn  Zn85  1  0.01162297  0.88655305  0.87329919  1
  Zn  Zn86  1  0.87155841  0.37015887  0.49471466  1
  Zn  Zn87  1  0.37210856  0.49723316  0.87320651  1
  Zn  Zn88  1  0.24458653  0.50240395  0.25545715  1
  Zn  Zn89  1  0.87877430  0.00362997  0.37578137  1
  Zn  Zn90  1  0.12423723  0.13207536  0.50934558  1
  Zn  Zn91  1  0.87735884  0.12573572  0.25192154  1
  Zn  Zn92  1  0.36888644  0.24261247  0.62154579  1
  Zn  Zn93  1  0.01139222  0.62548206  0.62763457  1
  Zn  Zn94  1  0.62179522  0.63082009  -0.00890694  1
  Zn  Zn95  1  0.24420688  -0.00948952  0.75646231  1
  Zn  Zn96  1  0.00121873  0.87175277  0.37949849  1
  Zn  Zn97  1  0.23809698  0.87067867  0.63022975  1
  Zn  Zn98  1  0.00693707  0.25079925  0.24708960  1
  Zn  Zn99  1  0.74899816  0.62967802  0.37479594  1
  Zn  Zn100  1  0.74992262  0.87073386  0.63667231  1
  Zn  Zn101  1  0.75107023  0.49946510  0.74829844  1
  Zn  Zn102  1  0.62766938  0.62913957  0.49688841  1
  Zn  Zn103  1  0.00006842  0.74321759  0.26049247  1
  Zn  Zn104  1  0.62936065  0.75011648  0.37648642  1
  Zn  Zn105  1  0.12706916  0.24965479  0.87625002  1
  Zn  Zn106  1  0.74920202  0.74623021  0.49915738  1
  Zn  Zn107  1  0.18654368  0.18648187  0.19252407  1
  Zn  Zn108  1  0.18428402  0.18343733  0.69083933  1
  Zn  Zn109  1  0.18672364  0.68715654  0.18652098  1
  Zn  Zn110  1  0.18727399  0.68599159  0.68063771  1
  Zn  Zn111  1  0.68611593  0.18566628  0.18818039  1
  Zn  Zn112  1  0.68278210  0.18842324  0.68805378  1
  Zn  Zn113  1  0.68541064  0.68676042  0.18396271  1
  Zn  Zn114  1  0.69580006  0.69060822  0.68737713  1
  Zn  Zn115  1  0.31237331  0.31128249  0.31073464  1
  Zn  Zn116  1  0.31166246  0.31034243  0.80970929  1
  Zn  Zn117  1  0.31686277  0.81853992  0.30938223  1
  Zn  Zn118  1  0.31351904  0.81112984  0.81164598  1
  Zn  Zn119  1  0.81284124  0.31594043  0.31139346  1
  Zn  Zn120  1  0.81146767  0.30990515  0.80939836  1
  Zn  Zn121  1  0.81454164  0.81423195  0.31500386  1
  Zn  Zn122  1  0.85283100  0.83010936  0.79568212  1
  Zn  Zn123  1  0.18614610  0.43596217  0.44012752  1
  Zn  Zn124  1  0.18527007  0.43854180  0.93544640  1
  Zn  Zn125  1  0.18736202  0.93910740  0.44370057  1
  Zn  Zn126  1  0.18948098  0.93887472  0.93866414  1
  Zn  Zn127  1  0.68836841  0.44206497  0.43774408  1
  Zn  Zn128  1  0.68627520  0.44090792  0.93538825  1
  Zn  Zn129  1  0.69098023  0.94132321  0.44413080  1
  Zn  Zn130  1  0.69832154  0.93657211  0.81360231  1
  Zn  Zn131  1  0.31081820  0.06312203  0.06302314  1
  Zn  Zn132  1  0.30724982  0.05692293  0.56703253  1
  Zn  Zn133  1  0.31095418  0.56146228  0.06302296  1
  Zn  Zn134  1  0.30823940  0.56212132  0.56191468  1
  Zn  Zn135  1  0.80662160  0.06276116  0.06084868  1
  Zn  Zn136  1  0.81520960  0.06673698  0.56483596  1
  Zn  Zn137  1  0.81144235  0.56561369  0.06084773  1
  Zn  Zn138  1  0.81387413  0.56167555  0.56019764  1
  Zn  Zn139  1  0.43323384  0.43603837  0.18878976  1
  Zn  Zn140  1  0.43371362  0.43726884  0.68501907  1
  Zn  Zn141  1  0.43482295  0.93691619  0.18788340  1
  Zn  Zn142  1  0.43381480  0.93541998  0.69193615  1
  Zn  Zn143  1  0.93598026  0.43766231  0.18810695  1
  Zn  Zn144  1  0.93493072  0.43274158  0.68797095  1
  Zn  Zn145  1  0.93734953  0.93833694  0.19075425  1
  Zn  Zn146  1  0.93934885  0.94214112  0.68753914  1
  Zn  Zn147  1  0.06448089  0.06330178  0.31244823  1
  Zn  Zn148  1  0.06087656  0.06418437  0.81818214  1
  Zn  Zn149  1  0.06396469  0.56558109  0.31813413  1
  Zn  Zn150  1  0.06437945  0.55720964  0.81328164  1
  Zn  Zn151  1  0.56458059  0.06319593  0.31270361  1
  Zn  Zn152  1  0.55911048  0.06606644  0.81319408  1
  Zn  Zn153  1  0.55937635  0.56475305  0.31233365  1
  Zn  Zn154  1  0.56328562  0.56156079  0.81118891  1
  Zn  Zn155  1  0.43882711  0.18467616  0.43646257  1
  Zn  Zn156  1  0.43440385  0.18838850  0.93981032  1
  Zn  Zn157  1  0.44066191  0.68868129  0.43747901  1
  Zn  Zn158  1  0.43539725  0.69010276  0.93489217  1
  Zn  Zn159  1  0.93945129  0.19174654  0.43821106  1
  Zn  Zn160  1  0.93628258  0.18353981  0.94312174  1
  Zn  Zn161  1  0.94160136  0.68961690  0.43847740  1
  Zn  Zn162  1  0.93596583  0.69043956  0.94105602  1
  Zn  Zn163  1  0.06105405  0.31205707  0.06188084  1
  Zn  Zn164  1  0.06606410  0.31607280  0.55509754  1
  Zn  Zn165  1  0.06389512  0.81118169  0.06187005  1
  Zn  Zn166  1  0.06098741  0.81558277  0.55992363  1
  Zn  Zn167  1  0.55894233  0.31082972  0.06241693  1
  Zn  Zn168  1  0.55859214  0.31017618  0.56428306  1
  Zn  Zn169  1  0.56807317  0.80860229  0.06610040  1
  Zn  Zn170  1  0.56302804  0.81255368  0.56418464  1
  O  O171  1  0.11970298  0.11862163  0.12130395  1
  O  O172  1  0.12848606  0.10983829  0.62384125  1
  O  O173  1  0.11941875  0.61770409  0.11800681  1
  O  O174  1  0.12495559  0.62911711  0.60609850  1
  O  O175  1  0.61828356  0.11898358  0.11695432  1
  O  O176  1  0.61923014  0.11786263  0.62027313  1
  O  O177  1  0.61550158  0.61714403  0.11953139  1
  O  O178  1  0.61894317  0.61486481  0.62731285  1
  O  O179  1  0.37882336  0.37988276  0.38165281  1
  O  O180  1  0.37954449  0.37484255  0.88270069  1
  O  O181  1  0.38116289  0.88501795  0.38445209  1
  O  O182  1  0.37230772  0.88738137  0.87975158  1
  O  O183  1  0.88311985  0.38019988  0.37618839  1
  O  O184  1  0.87881461  0.38103208  0.87751975  1
  O  O185  1  0.87561446  0.88441599  0.38479275  1
  O  O186  1  0.86239246  0.88853261  0.89768120  1
  O  O187  1  0.25575847  0.00585783  0.37115784  1
  O  O188  1  0.26156619  0.00741909  0.87674019  1
  O  O189  1  0.26272379  0.49472603  0.37384285  1
  O  O190  1  0.25113344  0.50541689  0.86381478  1
  O  O191  1  0.74796611  0.01117805  0.36746485  1
  O  O192  1  0.76350888  0.01445260  0.87722917  1
  O  O193  1  0.75858439  0.49702880  0.36477879  1
  O  O194  1  0.76344154  0.50501229  0.87575559  1
  O  O195  1  0.24091367  0.49226266  0.12590031  1
  O  O196  1  0.25588749  0.48934595  0.63619614  1
  O  O197  1  0.24593054  0.99393362  0.13291370  1
  O  O198  1  0.23384507  0.99502864  0.62757746  1
  O  O199  1  0.74520504  0.49498982  0.12922457  1
  O  O200  1  0.74275295  0.48809551  0.62683223  1
  O  O201  1  0.74057044  0.99521518  0.13057862  1
  O  O202  1  0.73500640  1.00423574  0.62476893  1
  O  O203  1  -0.00104919  0.37436906  0.26080423  1
  O  O204  1  0.00781268  0.38075197  0.75968247  1
  O  O205  1  0.01688736  0.87823868  0.24962294  1
  O  O206  1  -0.04143027  0.87635949  0.77452164  1
  O  O207  1  0.50389476  0.36602250  0.25416093  1
  O  O208  1  0.50155125  0.36947460  0.75585279  1
  O  O209  1  0.49284502  0.86625749  0.25951298  1
  O  O210  1  0.49636698  0.85824891  0.74826865  1
  O  O211  1  0.50539288  0.13720462  0.24381999  1
  O  O212  1  0.49388705  0.13313279  0.74718395  1
  O  O213  1  0.48923877  0.63222838  0.24259534  1
  O  O214  1  0.49317872  0.62540042  0.74041182  1
  O  O215  1  0.99795386  0.12670899  0.23722955  1
  O  O216  1  0.99074573  0.13469007  0.75640130  1
  O  O217  1  1.00532554  0.62454962  0.23650697  1
  O  O218  1  0.99023155  0.61427106  0.74735506  1
  O  O219  1  0.37942060  0.25949017  0.01442854  1
  O  O220  1  0.37858018  0.26102332  0.49923109  1
  O  O221  1  0.36049475  0.74317688  0.00526471  1
  O  O222  1  0.36973777  0.75464382  0.50526842  1
  O  O223  1  0.86663113  0.25479773  0.00972909  1
  O  O224  1  0.87671397  0.25110592  0.51673801  1
  O  O225  1  0.86823486  0.75943434  0.00977478  1
  O  O226  1  0.87437879  0.75872799  0.50796080  1
  O  O227  1  0.12109016  0.24623068  0.48231827  1
  O  O228  1  0.12370936  0.23731090  0.99966772  1
  O  O229  1  0.13957771  0.74698129  0.50021179  1
  O  O230  1  0.13605976  0.74240566  0.99718875  1
  O  O231  1  0.61710671  0.23638168  0.49602652  1
  O  O232  1  0.63213647  0.24182898  1.00550075  1
  O  O233  1  0.62731161  0.74907115  0.49824283  1
  O  O234  1  0.64328688  0.74813908  1.00459329  1
  O  O235  1  0.49357667  0.24166704  0.13230046  1
  O  O236  1  0.49373484  0.24131448  0.63340537  1
  O  O237  1  0.49347601  0.74562018  0.12996665  1
  O  O238  1  0.49051604  0.74183387  0.62957643  1
  O  O239  1  0.99053002  0.24488026  0.12654326  1
  O  O240  1  0.98928457  0.25912082  0.62529801  1
  O  O241  1  0.99465954  0.74094724  0.12535933  1
  O  O242  1  0.98792695  0.74553306  0.61742381  1
  O  O243  1  0.00732130  0.25818020  0.37081822  1
  O  O244  1  -0.00225274  0.26204128  0.88202689  1
  O  O245  1  -0.00270875  0.75777836  0.37145588  1
  O  O246  1  0.01775339  0.74667125  0.88030626  1
  O  O247  1  0.50425033  0.25411393  0.36729585  1
  O  O248  1  0.49554423  0.26208967  0.86943695  1
  O  O249  1  0.49973924  0.76096727  0.36681286  1
  O  O250  1  0.50144963  0.74202640  0.85996750  1
  O  O251  1  0.25053857  0.12142241  0.48888270  1
  O  O252  1  0.24116398  0.12254504  0.99441168  1
  O  O253  1  0.24388150  0.63618246  0.50035808  1
  O  O254  1  0.24378654  0.62898632  0.99384888  1
  O  O255  1  0.74116276  0.12121516  0.49119180  1
  O  O256  1  0.74077404  0.13281744  0.99399222  1
  O  O257  1  0.74598737  0.62273584  0.49509155  1
  O  O258  1  0.75103850  0.63428489  0.99082762  1
  O  O259  1  0.26055168  0.38049206  0.00572470  1
  O  O260  1  0.25777138  0.37926400  0.51028976  1
  O  O261  1  0.24532694  0.86622751  0.00992337  1
  O  O262  1  0.25694329  0.86385997  0.50273314  1
  O  O263  1  0.75153454  0.36919874  0.00400649  1
  O  O264  1  0.74893585  0.37609757  0.51400304  1
  O  O265  1  0.76183326  0.86776515  0.01778960  1
  O  O266  1  0.76438861  0.88089400  0.50831803  1
  O  O267  1  0.12552352  0.50548130  0.23700474  1
  O  O268  1  0.13427359  0.48705189  0.75388777  1
  O  O269  1  0.13261096  0.99313726  0.24006507  1
  O  O270  1  0.12080603  1.00093213  0.74251145  1
  O  O271  1  0.62833112  0.49340369  0.24344373  1
  O  O272  1  0.62404271  0.48981250  0.73827695  1
  O  O273  1  0.63482812  1.00652528  0.23963032  1
  O  O274  1  0.62482765  1.00367135  0.74155644  1
  O  O275  1  0.36363930  -0.00695728  0.26125386  1
  O  O276  1  0.38255106  0.01144588  0.76366957  1
  O  O277  1  0.37528108  0.50870699  0.25879825  1
  O  O278  1  0.36921096  0.51028396  0.74973789  1
  O  O279  1  0.86229239  0.00453120  0.25035362  1
  O  O280  1  0.87521961  0.02361331  0.75549010  1
  O  O281  1  0.86423836  0.49469569  0.25719277  1
  O  O282  1  0.87224753  0.50302249  0.75766848  1
  O  O283  1  0.12080102  0.36442446  0.37585673  1
  O  O284  1  0.11510762  0.37255115  0.87066309  1
  O  O285  1  0.12944593  0.88120202  0.36012937  1
  O  O286  1  0.12611315  0.86159925  0.87860468  1
  O  O287  1  0.61896312  0.37031436  0.37237246  1
  O  O288  1  0.61698793  0.38000282  0.86288697  1
  O  O289  1  0.61309328  0.88105478  0.37903695  1
  O  O290  1  0.62038225  0.89740482  0.89033586  1
  O  O291  1  0.38246772  0.13234463  0.12210850  1
  O  O292  1  0.37809290  0.12140408  0.63494053  1
  O  O293  1  0.37979835  0.63031700  0.13033111  1
  O  O294  1  0.38150619  0.63022309  0.62976210  1
  O  O295  1  0.88023630  0.13188861  0.12252155  1
  O  O296  1  0.87245751  0.13856128  0.63717993  1
  O  O297  1  0.88465886  0.63422261  0.11900641  1
  O  O298  1  0.88020572  0.62981520  0.63036005  1
  O  O299  1  0.25711851  0.25595701  0.13103481  1
  O  O300  1  0.25216492  0.26111760  0.63183763  1
  O  O301  1  0.25303451  0.75709404  0.11765928  1
  O  O302  1  0.26393941  0.74992406  0.61702694  1
  O  O303  1  0.75441878  0.25351842  0.11654582  1
  O  O304  1  0.74878465  0.26059918  0.62569383  1
  O  O305  1  0.75678747  0.75567074  0.12237833  1
  O  O306  1  0.76600696  0.75014295  0.61944177  1
  O  O307  1  0.24212606  0.24288573  0.37087058  1
  O  O308  1  0.25169218  0.23592074  0.87442365  1
  O  O309  1  0.25871620  0.75323012  0.38698902  1
  O  O310  1  0.24338488  0.74412599  0.88082520  1
  O  O311  1  0.74293308  0.24025989  0.36887500  1
  O  O312  1  0.75424745  0.24619594  0.88902488  1
  O  O313  1  0.74756974  0.74885077  0.37666767  1
  O  O314  1  0.76275272  0.73957896  0.88346024  1
  O  O315  1  0.00825881  0.12739632  0.01410092  1
  O  O316  1  -0.00041267  0.11261177  0.49832193  1
  O  O317  1  0.00496429  0.61929796  0.00821003  1
  O  O318  1  0.01036911  0.61485383  0.49992081  1
  O  O319  1  0.50763433  0.13369562  0.01093263  1
  O  O320  1  0.50494097  0.11805868  0.50608264  1
  O  O321  1  0.49912537  0.61647000  0.00296585  1
  O  O322  1  0.49942629  0.61900504  0.51325686  1
  O  O323  1  0.49110165  0.37976088  0.49655138  1
  O  O324  1  0.49214585  0.37928388  0.99335499  1
  O  O325  1  0.49273413  0.88039199  0.49234218  1
  O  O326  1  0.50365837  0.87781670  1.00114466  1
  O  O327  1  1.00007885  0.38347724  0.48675530  1
  O  O328  1  0.99297336  0.38102624  0.99369753  1
  O  O329  1  0.98971081  0.88715315  0.50023772  1
  O  O330  1  0.98540463  0.87031859  0.99723127  1
  O  O331  1  0.49066923  0.49233418  0.37972006  1
  O  O332  1  0.49682436  0.48955758  0.88076207  1
  O  O333  1  0.49323275  0.99686130  0.37875110  1
  O  O334  1  0.49155828  1.00129950  0.88368959  1
  O  O335  1  0.99392402  0.49365535  0.37810765  1
  O  O336  1  0.98932054  0.49348122  0.88141675  1
  O  O337  1  1.00085402  0.99794425  0.38712077  1
  O  O338  1  0.98416495  1.00571541  0.88144312  1
  O  O339  1  0.00857596  0.00659421  0.12806862  1
  O  O340  1  0.00928532  0.00072440  0.61610718  1
  O  O341  1  0.00510062  0.50400339  0.11995457  1
  O  O342  1  -0.00636517  0.49665783  0.61103120  1
  O  O343  1  0.50427471  0.01276137  0.13623974  1
  O  O344  1  0.50730191  0.00491156  0.62390253  1
  O  O345  1  0.50097549  0.50280560  0.11763427  1
  O  O346  1  0.50623459  0.50557342  0.62209642  1
  O  O347  1  0.25465890  0.38065204  0.23674106  1
  O  O348  1  0.24525110  0.38118289  0.74419171  1
  O  O349  1  0.24097364  0.88262344  0.24390970  1
  O  O350  1  0.26827524  0.88081714  0.73938065  1
  O  O351  1  0.74230603  0.38189445  0.24202923  1
  O  O352  1  0.73910784  0.37448666  0.74284997  1
  O  O353  1  0.75516142  0.88470873  0.23841241  1
  O  O354  1  0.75793500  0.87057252  0.75025477  1
  O  O355  1  0.24701777  0.11186573  0.25982335  1
  O  O356  1  0.25755083  0.11770218  0.75998281  1
  O  O357  1  0.26368146  0.62422626  0.24469385  1
  O  O358  1  0.25569686  0.61770147  0.75065572  1
  O  O359  1  0.75033911  0.11850060  0.25799558  1
  O  O360  1  0.74824620  0.13663076  0.76533154  1
  O  O361  1  0.74591815  0.61133622  0.24804076  1
  O  O362  1  0.76234122  0.62115559  0.75678814  1
  O  O363  1  0.36945435  0.11296863  0.37818527  1
  O  O364  1  0.37038764  0.11875114  0.87301128  1
  O  O365  1  0.38276940  0.61577608  0.36705754  1
  O  O366  1  0.36698439  0.62235504  0.86537787  1
  O  O367  1  0.86674888  0.12594106  0.37383118  1
  O  O368  1  0.86938609  0.12540156  0.86703136  1
  O  O369  1  0.87546842  0.61144135  0.37624485  1
  O  O370  1  0.87288358  0.61841902  0.86840725  1
  O  O371  1  0.13355086  0.38305773  0.11736835  1
  O  O372  1  0.13214079  0.37263528  0.63149469  1
  O  O373  1  0.13350280  0.88097104  0.12990597  1
  O  O374  1  0.12225190  0.89111668  0.62075726  1
  O  O375  1  0.62789822  0.38022884  0.12894982  1
  O  O376  1  0.63156186  0.37682942  0.63139119  1
  O  O377  1  0.63308532  0.88570351  0.12418881  1
  O  O378  1  0.62631307  0.89271945  0.62119342  1
  O  O379  1  0.12339087  0.24587674  0.26721115  1
  O  O380  1  0.12969920  0.26346699  0.75613884  1
  O  O381  1  0.12530511  0.76555671  0.24358719  1
  O  O382  1  0.12938060  0.74505368  0.76259776  1
  O  O383  1  0.61741853  0.25625996  0.25477582  1
  O  O384  1  0.60861207  0.25774247  0.74667543  1
  O  O385  1  0.61027330  0.74766435  0.24778416  1
  O  O386  1  0.61166141  0.74551234  0.74239036  1
  O  O387  1  0.38451410  0.25492677  0.23841034  1
  O  O388  1  0.38331417  0.23790230  0.75066037  1
  O  O389  1  0.38151179  0.74457002  0.24420578  1
  O  O390  1  0.38042738  0.73706224  0.74265717  1
  O  O391  1  0.87265259  0.24942932  0.23547268  1
  O  O392  1  0.87140666  0.24075900  0.73977025  1
  O  O393  1  0.87892728  0.75870054  0.23429674  1
  O  O394  1  0.87652332  0.73544981  0.73383380  1
  O  O395  1  0.37880384  0.49386592  0.49441751  1
  O  O396  1  0.38440994  0.49150784  0.99988397  1
  O  O397  1  0.37914668  0.99173661  0.49598885  1
  O  O398  1  0.37487387  1.00016161  0.99093172  1
  O  O399  1  0.88304181  0.49390358  0.49087579  1
  O  O400  1  0.87844555  0.49370871  0.99382009  1
  O  O401  1  0.88613135  0.99723884  0.50436845  1
  O  O402  1  0.87333730  0.99137795  0.99982559  1
  O  O403  1  0.13052949  0.00775471  0.01406813  1
  O  O404  1  0.11372854  0.00320458  0.50578702  1
  O  O405  1  0.11966040  0.50661888  0.00699690  1
  O  O406  1  0.11781312  0.50951688  0.49553587  1
  O  O407  1  0.61274969  0.00888537  0.01402223  1
  O  O408  1  0.61856322  0.01127925  0.50838010  1
  O  O409  1  0.61125278  0.49813748  0.00455483  1
  O  O410  1  0.61607999  0.49656771  0.51216905  1
  O  O411  1  0.36670106  0.36845426  0.11858260  1
  O  O412  1  0.36780756  0.37111439  0.61635194  1
  O  O413  1  0.36104316  0.86876929  0.13005625  1
  O  O414  1  0.38118470  0.86683953  0.61098398  1
  O  O415  1  0.86893559  0.36855931  0.11822798  1
  O  O416  1  0.86189628  0.36209024  0.62786841  1
  O  O417  1  0.87198068  0.87234047  0.11808849  1
  O  O418  1  0.87727383  0.86437125  0.61942491  1
  O  O419  1  0.13397726  0.13267098  0.37858576  1
  O  O420  1  0.13308844  0.12419897  0.88567333  1
  O  O421  1  0.12706162  0.62732780  0.39041837  1
  O  O422  1  0.12982492  0.63087731  0.88012563  1
  O  O423  1  0.63021184  0.13040892  0.38391292  1
  O  O424  1  0.63019625  0.11877389  0.88858008  1
  O  O425  1  0.62523655  0.62735013  0.37703942  1
  O  O426  1  0.64251913  0.61491716  0.87450313  1
