# generated using pymatgen
data_V85Zn86O256
_symmetry_space_group_name_H-M   'P 1'
_cell_length_a   16.98959836
_cell_length_b   16.97611578
_cell_length_c   16.96458697
_cell_angle_alpha   90.05620137
_cell_angle_beta   90.02604707
_cell_angle_gamma   90.06615598
_symmetry_Int_Tables_number   1
_chemical_formula_structural   V85Zn86O256
_chemical_formula_sum   'V85 Zn86 O256'
_cell_volume   4892.87575404
_cell_formula_units_Z   1
loop_
 _symmetry_equiv_pos_site_id
 _symmetry_equiv_pos_as_xyz
  1  'x, y, z'
loop_
 _atom_site_type_symbol
 _atom_site_label
 _atom_site_symmetry_multiplicity
 _atom_site_fract_x
 _atom_site_fract_y
 _atom_site_fract_z
 _atom_site_occupancy
  V  V0  1  0.00182739  0.75204893  0.75524574  1
  V  V1  1  0.37643140  -0.00810142  0.37880156  1
  V  V2  1  0.62363666  0.63108402  0.50003319  1
  V  V3  1  0.62507473  0.49389500  0.62708088  1
  V  V4  1  0.12623092  0.63567987  0.00021799  1
  V  V5  1  0.24821280  0.63003640  0.87787675  1
  V  V6  1  0.42525731  0.54955826  0.93020424  1
  V  V7  1  0.38031562  0.37847543  -0.00927046  1
  V  V8  1  -0.00090547  0.62680468  0.12408835  1
  V  V9  1  0.25471642  0.12404566  0.37493691  1
  V  V10  1  0.12458349  0.63385441  0.49618626  1
  V  V11  1  0.87425707  0.87333902  0.50032393  1
  V  V12  1  0.12568171  0.37566593  0.24943522  1
  V  V13  1  0.25254167  0.24948817  0.50113344  1
  V  V14  1  0.49861596  -0.00673834  0.50200036  1
  V  V15  1  0.75130526  0.87581309  0.13856905  1
  V  V16  1  0.75347129  0.24713902  0.49748535  1
  V  V17  1  0.50130420  0.87856500  0.87568025  1
  V  V18  1  0.74397968  0.37207720  0.11989131  1
  V  V19  1  0.00122548  -0.00144551  0.50023816  1
  V  V20  1  0.86842233  0.11271234  0.76141812  1
  V  V21  1  0.12845054  -0.00152177  0.63347915  1
  V  V22  1  0.24959335  0.25215622  -0.00489088  1
  V  V23  1  0.87178985  0.37599335  -0.00146303  1
  V  V24  1  -0.04407515  0.05373620  0.05514846  1
  V  V25  1  0.24769560  0.37675191  0.62375903  1
  V  V26  1  0.25450170  0.76054223  0.49703176  1
  V  V27  1  0.50576145  0.75133063  0.75619137  1
  V  V28  1  0.49719551  0.62660997  0.62621150  1
  V  V29  1  0.75380827  0.49777287  0.24697848  1
  V  V30  1  0.12421689  0.37703357  0.74996523  1
  V  V31  1  0.68319917  0.69293525  -0.05791387  1
  V  V32  1  0.37806591  0.12138577  0.24413133  1
  V  V33  1  0.74890894  0.37318585  0.62725918  1
  V  V34  1  0.00144541  0.37651040  0.37777473  1
  V  V35  1  0.24900868  0.37667932  0.12302967  1
  V  V36  1  0.24696739  0.63096133  0.37149764  1
  V  V37  1  0.48859496  0.00649245  0.00029035  1
  V  V38  1  0.01403273  0.75259876  0.25191557  1
  V  V39  1  0.74851021  0.24477861  -0.01308036  1
  V  V40  1  0.75110649  0.87718724  0.63150237  1
  V  V41  1  0.62976658  0.00084245  0.63474873  1
  V  V42  1  0.01611454  0.86988135  0.37500393  1
  V  V43  1  -0.00240243  0.25028278  0.74758814  1
  V  V44  1  0.37207511  0.49956724  0.37292273  1
  V  V45  1  0.62035884  0.87999266  0.26048084  1
  V  V46  1  0.87724768  0.62905133  0.24769056  1
  V  V47  1  0.86994684  -0.00176999  0.36479244  1
  V  V48  1  0.25034665  0.11221586  0.87221793  1
  V  V49  1  0.87475111  0.49973793  0.37413270  1
  V  V50  1  0.75115914  0.11942240  0.35969433  1
  V  V51  1  0.75236737  0.63299456  0.37307716  1
  V  V52  1  0.87664208  0.24641466  0.61958282  1
  V  V53  1  0.25335537  0.50441343  0.75353074  1
  V  V54  1  0.62589867  0.24729189  0.37378310  1
  V  V55  1  0.38100172  0.74356050  0.13457466  1
  V  V56  1  0.62625057  0.12586179  0.49974704  1
  V  V57  1  0.50054922  0.49314952  0.49974671  1
  V  V58  1  0.61584482  0.51191831  0.11477509  1
  V  V59  1  0.12636074  -0.00714190  0.12487978  1
  V  V60  1  0.12616354  0.24915211  0.37149988  1
  V  V61  1  0.24893034  -0.01087063  0.24894073  1
  V  V62  1  0.49934524  0.24659386  0.24377578  1
  V  V63  1  0.12698817  0.12368194  0.50214382  1
  V  V64  1  0.12276652  0.50569750  0.62363676  1
  V  V65  1  0.37142673  0.11116863  0.75360737  1
  V  V66  1  0.50145094  0.13168605  0.63069514  1
  V  V67  1  0.37564227  0.25265154  0.63653710  1
  V  V68  1  0.87216221  0.50958287  0.87441616  1
  V  V69  1  0.25933960  0.87875289  0.63426502  1
  V  V70  1  0.56634696  0.70207720  0.31893829  1
  V  V71  1  0.36871435  0.86247133  -0.00473609  1
  V  V72  1  0.62669776  0.37046418  0.24481465  1
  V  V73  1  0.74617360  0.50065638  0.75455327  1
  V  V74  1  0.12060327  0.50245518  0.12296219  1
  V  V75  1  0.84692387  0.88984463  -0.02860888  1
  V  V76  1  0.12525524  0.12358773  0.00526687  1
  V  V77  1  -0.00099203  0.37874743  0.87354727  1
  V  V78  1  0.87207882  0.75476524  0.11335322  1
  V  V79  1  0.62081103  0.00816819  0.13257855  1
  V  V80  1  0.50016054  0.36980098  0.37466756  1
  V  V81  1  0.00605209  0.88970492  0.88465691  1
  V  V82  1  0.86953682  0.62977576  0.74810808  1
  V  V83  1  0.62668813  0.12150478  -0.01263974  1
  V  V84  1  0.38129362  0.24885314  0.12200558  1
  Zn  Zn85  1  0.87697308  0.37574899  0.49975248  1
  Zn  Zn86  1  0.74588711  0.75423448  0.49838036  1
  Zn  Zn87  1  0.49898059  0.87055150  0.37664291  1
  Zn  Zn88  1  0.37951819  0.75758550  0.62355815  1
  Zn  Zn89  1  0.61990825  0.25592516  0.85487258  1
  Zn  Zn90  1  0.12934032  0.87637322  0.75394466  1
  Zn  Zn91  1  0.87369512  0.75093661  0.62596423  1
  Zn  Zn92  1  0.63190694  0.87432408  0.75848085  1
  Zn  Zn93  1  -0.00158923  0.50616734  0.50092898  1
  Zn  Zn94  1  0.87377077  0.22565537  0.12411145  1
  Zn  Zn95  1  0.00332503  0.21441839  0.22686450  1
  Zn  Zn96  1  0.24814349  0.86570044  0.12169427  1
  Zn  Zn97  1  0.25186560  0.50417593  0.24860042  1
  Zn  Zn98  1  0.12547554  0.24980006  0.87298551  1
  Zn  Zn99  1  -0.00166863  0.50370288  -0.00209162  1
  Zn  Zn100  1  0.50565669  0.37687446  0.85604036  1
  Zn  Zn101  1  0.38830568  0.62643924  0.25062292  1
  Zn  Zn102  1  0.13081441  0.75385873  0.87601945  1
  Zn  Zn103  1  0.37546512  0.62735072  0.75221448  1
  Zn  Zn104  1  -0.00033158  0.12349604  0.62463374  1
  Zn  Zn105  1  0.37421346  0.37209556  0.49813451  1
  Zn  Zn106  1  -0.00114241  0.63092296  0.62421808  1
  Zn  Zn107  1  0.19268889  0.18582818  0.18515155  1
  Zn  Zn108  1  0.18770660  0.18641319  0.68913346  1
  Zn  Zn109  1  0.19559338  0.68975970  0.18304117  1
  Zn  Zn110  1  0.18790582  0.69219334  0.68682832  1
  Zn  Zn111  1  0.68801372  0.18971133  0.17900691  1
  Zn  Zn112  1  0.69644921  0.17967627  0.68848400  1
  Zn  Zn113  1  0.69241684  0.68634581  0.17974864  1
  Zn  Zn114  1  0.68794764  0.68954770  0.68683212  1
  Zn  Zn115  1  0.31245942  0.31288112  0.31053510  1
  Zn  Zn116  1  0.31245612  0.31356178  0.81229128  1
  Zn  Zn117  1  0.31521636  0.81012983  0.31089113  1
  Zn  Zn118  1  0.32161280  0.80998696  0.81268143  1
  Zn  Zn119  1  0.81500505  0.30671064  0.30997662  1
  Zn  Zn120  1  0.81174197  0.31340225  0.80927381  1
  Zn  Zn121  1  0.81689315  0.81240382  0.30960939  1
  Zn  Zn122  1  0.80762342  0.81799144  0.81809757  1
  Zn  Zn123  1  0.18720080  0.44157785  0.43908890  1
  Zn  Zn124  1  0.18717383  0.44317840  0.93701338  1
  Zn  Zn125  1  0.19153415  0.93938026  0.44198906  1
  Zn  Zn126  1  0.18649783  0.93881986  0.94143702  1
  Zn  Zn127  1  0.68853289  0.43637473  0.43850555  1
  Zn  Zn128  1  0.68010916  0.43835898  0.93485667  1
  Zn  Zn129  1  0.68902788  0.94036299  0.44163223  1
  Zn  Zn130  1  0.67973316  0.92615170  0.94938284  1
  Zn  Zn131  1  0.30899918  0.06326344  0.06327633  1
  Zn  Zn132  1  0.31499293  0.06065967  0.56525470  1
  Zn  Zn133  1  0.30655317  0.57056714  0.06840668  1
  Zn  Zn134  1  0.31031449  0.56486164  0.55910160  1
  Zn  Zn135  1  0.79247624  0.05681994  0.06324905  1
  Zn  Zn136  1  0.81402888  0.06187930  0.56177213  1
  Zn  Zn137  1  0.80515420  0.56434227  0.05932556  1
  Zn  Zn138  1  0.81140008  0.56417734  0.56189554  1
  Zn  Zn139  1  0.43792610  0.43479532  0.18450507  1
  Zn  Zn140  1  0.43186872  0.44158953  0.68503435  1
  Zn  Zn141  1  0.43980137  0.93067223  0.18504322  1
  Zn  Zn142  1  0.44121160  0.93974960  0.68845746  1
  Zn  Zn143  1  0.93777938  0.36187512  0.18529588  1
  Zn  Zn144  1  0.93527701  0.43876823  0.68576688  1
  Zn  Zn145  1  0.93965426  0.92987033  0.19359666  1
  Zn  Zn146  1  0.94289740  0.93317342  0.68825461  1
  Zn  Zn147  1  0.06760395  0.05429412  0.31384981  1
  Zn  Zn148  1  0.06078850  0.06771979  0.81419946  1
  Zn  Zn149  1  0.06319826  0.56212236  0.31069390  1
  Zn  Zn150  1  0.06097754  0.56722113  0.81109893  1
  Zn  Zn151  1  0.55828608  0.06295199  0.31319263  1
  Zn  Zn152  1  0.55606836  0.06337412  0.81365247  1
  Zn  Zn153  1  0.56538955  0.54030792  0.30826005  1
  Zn  Zn154  1  0.56863364  0.56811533  0.81318484  1
  Zn  Zn155  1  0.43840299  0.18322323  0.43961308  1
  Zn  Zn156  1  0.43854808  0.18491136  0.93162986  1
  Zn  Zn157  1  0.42863305  0.68147869  0.44526430  1
  Zn  Zn158  1  0.49471983  0.71708267  0.97395001  1
  Zn  Zn159  1  0.95335854  0.17139353  0.40550570  1
  Zn  Zn160  1  0.93473950  0.19429416  0.93178011  1
  Zn  Zn161  1  0.93952157  0.69055530  0.43641635  1
  Zn  Zn162  1  0.93609895  0.69373978  0.93737287  1
  Zn  Zn163  1  0.06286566  0.31347020  0.05691816  1
  Zn  Zn164  1  0.06227301  0.31485517  0.55921148  1
  Zn  Zn165  1  0.05848068  0.81465855  0.06259432  1
  Zn  Zn166  1  0.06483232  0.81255500  0.56779661  1
  Zn  Zn167  1  0.54727405  0.29892483  0.02094532  1
  Zn  Zn168  1  0.56244631  0.31197837  0.68737213  1
  Zn  Zn169  1  0.56295591  0.82240043  0.07209742  1
  Zn  Zn170  1  0.56481455  0.81347880  0.56552839  1
  O  O171  1  0.12956926  0.12031447  0.11263578  1
  O  O172  1  0.12461309  0.11841932  0.61807756  1
  O  O173  1  0.12320153  0.62012301  0.11802161  1
  O  O174  1  0.12462796  0.61980409  0.61755936  1
  O  O175  1  0.62706224  0.11010366  0.12068056  1
  O  O176  1  0.61824302  0.11927123  0.61747023  1
  O  O177  1  0.62636780  0.61081741  0.13228176  1
  O  O178  1  0.61730506  0.61551274  0.61638739  1
  O  O179  1  0.38035567  0.38042020  0.37656679  1
  O  O180  1  0.37564510  0.37222236  0.88812299  1
  O  O181  1  0.37744402  0.88860678  0.37206384  1
  O  O182  1  0.38238556  0.87561917  0.88779791  1
  O  O183  1  0.88417874  0.38286899  0.37508926  1
  O  O184  1  0.87793567  0.38369581  0.88143344  1
  O  O185  1  0.87800623  0.88417423  0.38240988  1
  O  O186  1  0.90043084  0.85678409  0.87928172  1
  O  O187  1  0.25758225  0.00457774  0.36947899  1
  O  O188  1  0.24779399  0.01341261  0.87887334  1
  O  O189  1  0.25877827  0.50718692  0.37490455  1
  O  O190  1  0.24205166  0.51185532  0.86249495  1
  O  O191  1  0.76150962  0.00399788  0.37635174  1
  O  O192  1  0.78042342  -0.07131639  0.89710017  1
  O  O193  1  0.75512031  0.50698992  0.36901728  1
  O  O194  1  0.75757421  0.49343020  0.86066368  1
  O  O195  1  0.23857855  0.49544404  0.12752308  1
  O  O196  1  0.23885790  0.49770963  0.62704351  1
  O  O197  1  0.24363667  0.99817913  0.13368025  1
  O  O198  1  0.24304839  0.98648793  0.61693661  1
  O  O199  1  0.74498671  0.49294642  0.13125015  1
  O  O200  1  0.74356049  0.49294488  0.62845062  1
  O  O201  1  0.73068931  0.99056495  0.12987708  1
  O  O202  1  0.73938674  0.99292566  0.61699479  1
  O  O203  1  0.01760919  0.38322685  0.26202655  1
  O  O204  1  0.00177556  0.36759165  0.75271680  1
  O  O205  1  0.00173216  0.86501731  0.26283432  1
  O  O206  1  0.00512408  0.86822000  0.76112839  1
  O  O207  1  0.50522093  0.36554039  0.25536723  1
  O  O208  1  0.48485289  0.36701309  0.74433168  1
  O  O209  1  0.51060143  0.87495801  0.25680249  1
  O  O210  1  0.49907309  0.87060766  0.75816951  1
  O  O211  1  0.48590162  0.13099034  0.25227598  1
  O  O212  1  0.48437947  0.12207510  0.74291049  1
  O  O213  1  0.51038954  0.63449064  0.26649104  1
  O  O214  1  0.50033890  0.63126153  0.74153265  1
  O  O215  1  0.99533982  0.13566500  0.30055026  1
  O  O216  1  0.99792967  0.14040655  0.74705920  1
  O  O217  1  0.99541290  0.63002582  0.24347627  1
  O  O218  1  0.98829623  0.63235707  0.74791254  1
  O  O219  1  0.36803404  0.25992924  0.00489733  1
  O  O220  1  0.36398228  0.24669299  0.50712670  1
  O  O221  1  0.37897810  0.76226150  -0.00151820  1
  O  O222  1  0.36033619  0.74645398  0.50713522  1
  O  O223  1  0.86660132  0.25924383  0.00012115  1
  O  O224  1  0.86914241  0.25138982  0.50629482  1
  O  O225  1  0.87879944  0.76726020  0.00997966  1
  O  O226  1  0.87531308  0.76401027  0.50011807  1
  O  O227  1  0.13642121  0.24503993  0.49622172  1
  O  O228  1  0.13372401  0.24473356  0.99804296  1
  O  O229  1  0.13511141  0.73959635  0.50671869  1
  O  O230  1  0.12252227  0.73899888  1.00101218  1
  O  O231  1  0.63295986  0.23441463  0.49084150  1
  O  O232  1  0.63761865  0.23216802  1.01369564  1
  O  O233  1  0.62469178  0.73510740  0.50287503  1
  O  O234  1  0.60780057  0.74511139  0.99795165  1
  O  O235  1  0.48548201  0.25611936  0.12212218  1
  O  O236  1  0.48908193  0.23695354  0.61897053  1
  O  O237  1  0.48138244  0.74859004  0.10794469  1
  O  O238  1  0.49890796  0.74163924  0.62736258  1
  O  O239  1  0.99037200  0.26609101  0.12754771  1
  O  O240  1  0.99301102  0.25133900  0.62927806  1
  O  O241  1  0.99162100  0.74716868  0.13107714  1
  O  O242  1  0.99587419  0.75275500  0.63967120  1
  O  O243  1  0.01216825  0.26987776  0.38811461  1
  O  O244  1  0.00174757  0.26166033  0.86463385  1
  O  O245  1  -0.00155603  0.75898201  0.36570745  1
  O  O246  1  0.00787952  0.74931652  0.86476622  1
  O  O247  1  0.50607141  0.25203967  0.37007131  1
  O  O248  1  0.51173749  0.26486225  0.90933573  1
  O  O249  1  0.50184120  0.75025976  0.38296195  1
  O  O250  1  0.49517054  0.76271837  0.86608793  1
  O  O251  1  0.24778616  0.13164857  0.49689818  1
  O  O252  1  0.24497034  0.13346474  0.99332544  1
  O  O253  1  0.24434977  0.63347569  0.49079214  1
  O  O254  1  0.23831176  0.61967552  0.99006991  1
  O  O255  1  0.74221251  0.12806871  0.49473228  1
  O  O256  1  0.74054472  0.13112527  0.99706174  1
  O  O257  1  0.73924765  0.62294769  0.48955860  1
  O  O258  1  0.74694872  0.64239278  1.00337278  1
  O  O259  1  0.25392011  0.36973969  0.00273596  1
  O  O260  1  0.24943075  0.36628579  0.50491584  1
  O  O261  1  0.26651421  0.88041519  0.00018476  1
  O  O262  1  0.24592626  0.86520284  0.50938224  1
  O  O263  1  0.75425832  0.36776927  0.00310343  1
  O  O264  1  0.75034476  0.36822409  0.51028077  1
  O  O265  1  0.75056932  0.87071919  0.02648303  1
  O  O266  1  0.75842323  0.87455108  0.50685011  1
  O  O267  1  0.12944252  0.49337684  0.24212108  1
  O  O268  1  0.13063381  0.49797019  0.74122343  1
  O  O269  1  0.13810617  1.00747035  0.23988659  1
  O  O270  1  0.11960395  1.00290073  0.73596540  1
  O  O271  1  0.63669318  0.48637993  0.24264904  1
  O  O272  1  0.63556711  0.50835327  0.73850455  1
  O  O273  1  0.61641175  0.99648206  0.23989121  1
  O  O274  1  0.61829631  1.00051412  0.73747812  1
  O  O275  1  0.37107658  0.00607575  0.25344810  1
  O  O276  1  0.37132259  0.01299919  0.74562308  1
  O  O277  1  0.37566491  0.50146087  0.26076053  1
  O  O278  1  0.35628603  0.50732261  0.73855019  1
  O  O279  1  0.87987441  -0.00271182  0.26699543  1
  O  O280  1  0.88958265  0.01633584  0.74345762  1
  O  O281  1  0.86958445  0.50891258  0.26311692  1
  O  O282  1  0.86806236  0.50747462  0.75417608  1
  O  O283  1  0.12282791  0.37358054  0.36796424  1
  O  O284  1  0.11684490  0.37685948  0.86754407  1
  O  O285  1  0.11467780  0.88107335  0.38037630  1
  O  O286  1  0.11832859  0.87404761  0.87521069  1
  O  O287  1  0.62106703  0.36780860  0.36780433  1
  O  O288  1  0.61913947  0.37098014  0.87433615  1
  O  O289  1  0.62489069  0.88260831  0.36525198  1
  O  O290  1  0.60692093  0.88367620  0.87296704  1
  O  O291  1  0.36756764  0.13609055  0.13292525  1
  O  O292  1  0.37913459  0.13051277  0.63492020  1
  O  O293  1  0.37349250  0.63581436  0.13299261  1
  O  O294  1  0.39026350  0.62168380  0.62155201  1
  O  O295  1  0.88516443  0.11068396  0.11054491  1
  O  O296  1  0.87895695  0.13654128  0.62646085  1
  O  O297  1  0.87948196  0.63332845  0.12692641  1
  O  O298  1  0.87725910  0.62772849  0.63246117  1
  O  O299  1  0.25685256  0.25565942  0.11298338  1
  O  O300  1  0.25506877  0.25456912  0.61817895  1
  O  O301  1  0.26971052  0.75202219  0.12432117  1
  O  O302  1  0.25241849  0.76425525  0.61896555  1
  O  O303  1  0.75726413  0.25749069  0.11565162  1
  O  O304  1  0.75736034  0.25586678  0.61878944  1
  O  O305  1  0.76382086  0.75942076  0.13545977  1
  O  O306  1  0.75200871  0.75999608  0.61872371  1
  O  O307  1  0.24655946  0.24574458  0.38195122  1
  O  O308  1  0.24889464  0.24652659  0.88577292  1
  O  O309  1  0.25533225  0.74417396  0.38373665  1
  O  O310  1  0.25031578  0.73457731  0.86669121  1
  O  O311  1  0.74636680  0.24232682  0.37898368  1
  O  O312  1  0.74688904  0.25454287  0.88464274  1
  O  O313  1  0.75585283  0.73674222  0.37703222  1
  O  O314  1  0.73764988  0.75515313  0.88323299  1
  O  O315  1  0.00758095  0.12565389  -0.00446419  1
  O  O316  1  0.00814814  0.11432868  0.49781680  1
  O  O317  1  0.00504451  0.62522000  0.00701196  1
  O  O318  1  0.00926618  0.62625909  0.50198893  1
  O  O319  1  0.50434100  0.11127957  0.00056137  1
  O  O320  1  0.50790928  0.11862102  0.50789324  1
  O  O321  1  0.48066470  0.60486649  -0.01043550  1
  O  O322  1  0.50629773  0.61370059  0.50369210  1
  O  O323  1  0.49841632  0.38829049  0.49342213  1
  O  O324  1  0.47810277  0.38964781  1.00980877  1
  O  O325  1  0.50656772  0.88963566  0.49936398  1
  O  O326  1  0.49177679  0.88546532  0.99503716  1
  O  O327  1  1.00007361  0.38560354  0.49239185  1
  O  O328  1  0.99031688  0.37974465  0.99017155  1
  O  O329  1  0.99533946  0.87853037  0.49550157  1
  O  O330  1  0.99972845  0.87794416  0.98672158  1
  O  O331  1  0.49289905  0.49214508  0.38092312  1
  O  O332  1  0.49004514  0.49982474  0.86718317  1
  O  O333  1  0.49180575  1.00217179  0.38521013  1
  O  O334  1  0.49828716  0.99679328  0.89200305  1
  O  O335  1  0.99235805  0.49370017  0.37594623  1
  O  O336  1  0.99009291  0.49413870  0.87189702  1
  O  O337  1  0.99240635  0.98920500  0.38624496  1
  O  O338  1  1.00354798  0.98818293  0.87389755  1
  O  O339  1  0.00863665  -0.00003950  0.13051994  1
  O  O340  1  0.00918582  -0.00182474  0.61294384  1
  O  O341  1  0.01378547  0.50856667  0.12412000  1
  O  O342  1  0.01223126  0.50236891  0.62497352  1
  O  O343  1  0.51239667  -0.00811347  0.11343619  1
  O  O344  1  0.50513912  0.01068917  0.61865513  1
  O  O345  1  0.51801565  0.49542440  0.13405184  1
  O  O346  1  0.50679719  0.50464804  0.61734215  1
  O  O347  1  0.23973214  0.37567516  0.24413868  1
  O  O348  1  0.24423417  0.38348276  0.74478137  1
  O  O349  1  0.25459109  0.88675875  0.24802587  1
  O  O350  1  0.25033487  0.87131510  0.73757691  1
  O  O351  1  0.74699769  0.37693904  0.24039689  1
  O  O352  1  0.75683179  0.38427691  0.73464285  1
  O  O353  1  0.74058604  0.87188411  0.24675853  1
  O  O354  1  0.74943545  0.87358050  0.73545512  1
  O  O355  1  0.26145858  0.11937655  0.25557449  1
  O  O356  1  0.25999983  0.12887998  0.75830809  1
  O  O357  1  0.25027480  0.62536204  0.26344857  1
  O  O358  1  0.24954918  0.61951713  0.75489506  1
  O  O359  1  0.74752333  0.13147064  0.26093613  1
  O  O360  1  0.76912113  0.11818981  0.74675168  1
  O  O361  1  0.75626737  0.61967923  0.25685989  1
  O  O362  1  0.76092744  0.61593166  0.74248135  1
  O  O363  1  0.37074370  0.11772490  0.36697486  1
  O  O364  1  0.36790389  0.13010667  0.86095485  1
  O  O365  1  0.36770508  0.61644224  0.37142204  1
  O  O366  1  0.36659223  0.61555305  0.87452432  1
  O  O367  1  0.86148472  0.10563211  0.38741011  1
  O  O368  1  0.87986816  0.12573227  0.86107854  1
  O  O369  1  0.86855508  0.61982116  0.37143730  1
  O  O370  1  0.87873987  0.61503801  0.86850806  1
  O  O371  1  0.12872742  0.38263470  0.13000525  1
  O  O372  1  0.12959987  0.38356704  0.62913199  1
  O  O373  1  0.12912687  0.88823593  0.11742625  1
  O  O374  1  0.13560929  0.88350685  0.62812024  1
  O  O375  1  0.63792368  0.37628716  0.12633333  1
  O  O376  1  0.63178184  0.38716809  0.62357764  1
  O  O377  1  0.63025757  0.88167159  0.14029214  1
  O  O378  1  0.63367717  0.88553528  0.62445814  1
  O  O379  1  0.12477838  0.25598617  0.25415344  1
  O  O380  1  0.11656568  0.25853715  0.74876870  1
  O  O381  1  0.11261655  0.74431799  0.24108064  1
  O  O382  1  0.11618251  0.75292444  0.75240409  1
  O  O383  1  0.61798378  0.25155246  0.25130358  1
  O  O384  1  0.62176569  0.23736535  0.74328432  1
  O  O385  1  0.62435557  0.75585083  0.25350473  1
  O  O386  1  0.61062199  0.75481685  0.74076040  1
  O  O387  1  0.37844600  0.24391651  0.24125185  1
  O  O388  1  0.36619186  0.24254294  0.73813843  1
  O  O389  1  0.38278460  0.74943966  0.23961837  1
  O  O390  1  0.38865651  0.74575525  0.74261536  1
  O  O391  1  0.88740594  0.26623631  0.23603904  1
  O  O392  1  0.88166285  0.24544096  0.74086912  1
  O  O393  1  0.88510740  0.74282660  0.24372314  1
  O  O394  1  0.87825311  0.74228099  0.75253700  1
  O  O395  1  0.38179653  0.49998452  0.48863906  1
  O  O396  1  0.36265557  0.49288947  0.99562408  1
  O  O397  1  0.38554811  1.00883821  0.49040623  1
  O  O398  1  0.38704361  0.99534637  1.01113920  1
  O  O399  1  0.87385492  0.50032215  0.48652927  1
  O  O400  1  0.87248089  0.49662264  0.98864328  1
  O  O401  1  0.88440217  0.98951642  0.49759545  1
  O  O402  1  0.88063833  0.98977396  1.01134970  1
  O  O403  1  0.12747333  0.01110310  0.01081323  1
  O  O404  1  0.11938752  0.00523302  0.50689770  1
  O  O405  1  0.12078591  0.50838234  0.00775432  1
  O  O406  1  0.12588960  0.51268700  0.50806659  1
  O  O407  1  0.61786830  0.00529001  0.01010452  1
  O  O408  1  0.61807772  0.01083061  0.50572621  1
  O  O409  1  0.63135403  0.50044557  0.01603539  1
  O  O410  1  0.61829246  0.50744075  0.50390803  1
  O  O411  1  0.36486904  0.36947413  0.11966742  1
  O  O412  1  0.36526596  0.36708537  0.61802783  1
  O  O413  1  0.37466743  0.86550632  0.11361521  1
  O  O414  1  0.36252552  0.88016618  0.62581862  1
  O  O415  1  0.86207911  0.38913564  0.10570084  1
  O  O416  1  0.86865238  0.36548221  0.62181305  1
  O  O417  1  0.86571217  0.86938350  0.13155641  1
  O  O418  1  0.86877420  0.87641156  0.61753092  1
  O  O419  1  0.13840623  0.12775381  0.38441874  1
  O  O420  1  0.13232267  0.12837552  0.88461895  1
  O  O421  1  0.13415722  0.61916663  0.38433105  1
  O  O422  1  0.13050720  0.62597055  0.88402273  1
  O  O423  1  0.63221495  0.12531987  0.38030978  1
  O  O424  1  0.61957477  0.12732840  0.88517667  1
  O  O425  1  0.62737371  0.62959674  0.37447659  1
  O  O426  1  0.63303918  0.62722823  0.88311519  1
