# generated using pymatgen
data_V85Zn86O256
_symmetry_space_group_name_H-M   'P 1'
_cell_length_a   16.94333489
_cell_length_b   16.94062984
_cell_length_c   16.94226073
_cell_angle_alpha   89.93227269
_cell_angle_beta   89.99660329
_cell_angle_gamma   90.02590816
_symmetry_Int_Tables_number   1
_chemical_formula_structural   V85Zn86O256
_chemical_formula_sum   'V85 Zn86 O256'
_cell_volume   4862.94614934
_cell_formula_units_Z   1
loop_
 _symmetry_equiv_pos_site_id
 _symmetry_equiv_pos_as_xyz
  1  'x, y, z'
loop_
 _atom_site_type_symbol
 _atom_site_label
 _atom_site_symmetry_multiplicity
 _atom_site_fract_x
 _atom_site_fract_y
 _atom_site_fract_z
 _atom_site_occupancy
  V  V0  1  0.00181314  0.86755393  0.37080791  1
  V  V1  1  0.75405109  0.75048365  0.50362615  1
  V  V2  1  0.23228295  0.74010097  0.48621044  1
  V  V3  1  0.62307078  0.37507152  0.75097704  1
  V  V4  1  0.88112815  0.38237492  0.49940084  1
  V  V5  1  0.36863511  0.37883703  0.49977623  1
  V  V6  1  0.24885671  0.49675012  0.73808303  1
  V  V7  1  0.87923262  0.24938652  0.62442606  1
  V  V8  1  0.49685044  0.50032590  0.49616989  1
  V  V9  1  0.37650643  0.13716019  0.24811972  1
  V  V10  1  0.36899887  0.25554486  0.62563331  1
  V  V11  1  0.49428464  0.37360953  0.87693786  1
  V  V12  1  -0.00218063  0.12585347  0.14121132  1
  V  V13  1  0.37302447  0.86268299  0.50219577  1
  V  V14  1  0.16093537  0.52192050  0.14131058  1
  V  V15  1  0.49114523  0.74851056  0.25214603  1
  V  V16  1  0.00052333  0.00176609  0.49830879  1
  V  V17  1  0.62475321  0.24950326  0.87650106  1
  V  V18  1  0.75230396  0.12569098  0.37250475  1
  V  V19  1  0.12724925  0.00126101  0.12764344  1
  V  V20  1  0.12845804  0.00043992  0.62480855  1
  V  V21  1  0.25803180  0.75793218  -0.00178478  1
  V  V22  1  0.12012717  0.24973725  0.36941697  1
  V  V23  1  0.62478121  0.87955709  0.24212435  1
  V  V24  1  0.49655497  0.62624080  0.12942464  1
  V  V25  1  0.62154184  0.25588466  0.36588352  1
  V  V26  1  -0.00263733  0.87021801  0.87381794  1
  V  V27  1  0.62651949  0.11234255  0.00747129  1
  V  V28  1  0.35947184  0.51151665  0.35790042  1
  V  V29  1  0.87714237  0.00579454  0.36879139  1
  V  V30  1  0.62419878  0.49963956  0.62614063  1
  V  V31  1  0.25753392  0.12659329  0.37696597  1
  V  V32  1  0.74650254  0.24950698  0.50138450  1
  V  V33  1  0.36873537  -0.00366646  0.88415142  1
  V  V34  1  0.75189321  0.61764419  0.87561085  1
  V  V35  1  0.74815318  0.00298657  0.24442697  1
  V  V36  1  0.00626330  0.60355824  0.62299410  1
  V  V37  1  0.75195040  0.24935768  0.00120284  1
  V  V38  1  0.49637442  0.49585060  0.00145597  1
  V  V39  1  0.25888570  0.00048932  0.25524731  1
  V  V40  1  0.74840079  0.49602584  0.25319288  1
  V  V41  1  0.12341761  0.62707355  -0.00239004  1
  V  V42  1  0.74942618  0.37503027  0.62688698  1
  V  V43  1  0.50048689  0.12418460  0.12707823  1
  V  V44  1  0.74845850  0.87253211  0.63064538  1
  V  V45  1  0.75013752  0.12420105  0.87346066  1
  V  V46  1  0.13012514  0.37671197  0.74479467  1
  V  V47  1  -0.00162082  0.00410734  -0.00081833  1
  V  V48  1  0.25179106  0.86334212  0.62506094  1
  V  V49  1  0.49856443  0.12481186  0.62884064  1
  V  V50  1  0.37089277  0.49856964  0.88052001  1
  V  V51  1  0.88319673  0.62052231  0.75707390  1
  V  V52  1  0.62451403  0.62544417  -0.00022231  1
  V  V53  1  0.87471626  0.87622113  0.49965587  1
  V  V54  1  0.62283156  -0.00667615  0.62644947  1
  V  V55  1  0.87412361  0.37811598  -0.00091900  1
  V  V56  1  0.49425022  0.63007710  0.62528803  1
  V  V57  1  -0.00101288  0.50120907  0.00531525  1
  V  V58  1  0.00044760  0.25026672  0.75216629  1
  V  V59  1  0.74687469  -0.00517051  0.75045425  1
  V  V60  1  0.49034437  -0.00032286  0.49942537  1
  V  V61  1  -0.00044741  0.12560215  0.62452951  1
  V  V62  1  0.62602394  0.62653935  0.50227736  1
  V  V63  1  0.62694107  0.75213493  0.37490288  1
  V  V64  1  0.50461033  0.75826070  0.74651764  1
  V  V65  1  -0.00045653  0.37770349  0.36724794  1
  V  V66  1  0.12566795  0.13351720  0.49964430  1
  V  V67  1  0.12050915  0.36618385  0.23513481  1
  V  V68  1  0.26923066  0.36344751  0.12231365  1
  V  V69  1  0.12663150  0.23934247  0.87882568  1
  V  V70  1  0.36437960  0.12234426  0.75336346  1
  V  V71  1  0.37331699  0.63207293  0.74887980  1
  V  V72  1  0.50441599  0.87671767  0.88023541  1
  V  V73  1  0.24890865  0.62363259  0.87592671  1
  V  V74  1  0.87955062  0.24845638  0.13778771  1
  V  V75  1  0.00091493  0.37866948  0.87772481  1
  V  V76  1  0.88681419  0.74839635  0.63138636  1
  V  V77  1  0.26654734  0.24539153  -0.00562095  1
  V  V78  1  0.49489066  0.88086091  0.37499933  1
  V  V79  1  0.12529251  0.86626388  0.25271888  1
  V  V80  1  0.11961878  0.86728192  0.74855165  1
  V  V81  1  0.87438209  0.63133591  0.25200147  1
  V  V82  1  0.75047558  0.75129667  0.00358254  1
  V  V83  1  -0.00585122  0.63534580  0.12707565  1
  V  V84  1  0.62371258  0.48966128  0.13059820  1
  Zn  Zn85  1  0.49799528  -0.00890680  0.01324760  1
  Zn  Zn86  1  0.12089515  0.58336640  0.49065192  1
  Zn  Zn87  1  0.49994176  0.26201156  0.23682582  1
  Zn  Zn88  1  0.49974315  0.37976107  0.36816277  1
  Zn  Zn89  1  0.87499818  0.75751482  0.12890826  1
  Zn  Zn90  1  0.13001941  0.12418209  0.00044848  1
  Zn  Zn91  1  0.74940326  0.88225732  0.12142114  1
  Zn  Zn92  1  0.87437373  0.87634312  0.00233784  1
  Zn  Zn93  1  0.62245593  0.12333148  0.49999186  1
  Zn  Zn94  1  0.12222816  0.74899487  0.87077955  1
  Zn  Zn95  1  0.87618547  0.50253459  0.37687362  1
  Zn  Zn96  1  0.75613114  0.62594749  0.37771308  1
  Zn  Zn97  1  0.38010640  0.75949428  0.12188879  1
  Zn  Zn98  1  0.74841178  0.37197013  0.12941452  1
  Zn  Zn99  1  0.49754141  0.24972028  0.75038788  1
  Zn  Zn100  1  0.24754998  0.25475783  0.50178182  1
  Zn  Zn101  1  0.24766767  -0.00163237  0.75490002  1
  Zn  Zn102  1  0.87407380  -0.00165525  0.87421256  1
  Zn  Zn103  1  0.87364531  0.12460913  0.75022100  1
  Zn  Zn104  1  0.62803507  0.75363932  0.87042585  1
  Zn  Zn105  1  0.26117342  0.88201590  0.12001973  1
  Zn  Zn106  1  0.75200373  0.49818711  0.75522341  1
  Zn  Zn107  1  0.19047688  0.18782633  0.18481104  1
  Zn  Zn108  1  0.18658566  0.19168927  0.68842559  1
  Zn  Zn109  1  0.18949819  0.69209134  0.17965386  1
  Zn  Zn110  1  0.18545816  0.68535761  0.68386870  1
  Zn  Zn111  1  0.69071577  0.18547467  0.18672919  1
  Zn  Zn112  1  0.68457115  0.18577808  0.68814676  1
  Zn  Zn113  1  0.68552418  0.68434592  0.18857954  1
  Zn  Zn114  1  0.68792132  0.68580117  0.69014112  1
  Zn  Zn115  1  0.31024875  0.31997140  0.31270047  1
  Zn  Zn116  1  0.31161010  0.31108126  0.81447292  1
  Zn  Zn117  1  0.31180934  0.81433964  0.31461160  1
  Zn  Zn118  1  0.31277550  0.81460834  0.81451104  1
  Zn  Zn119  1  0.80940302  0.31490060  0.31371885  1
  Zn  Zn120  1  0.81441862  0.31298477  0.81409347  1
  Zn  Zn121  1  0.81331948  0.81534102  0.31335131  1
  Zn  Zn122  1  0.81400799  0.80814878  0.81497597  1
  Zn  Zn123  1  0.19322155  0.43747949  0.42277651  1
  Zn  Zn124  1  0.18750443  0.43344636  0.94540996  1
  Zn  Zn125  1  0.18856300  0.93786226  0.43630152  1
  Zn  Zn126  1  0.18263179  0.93932495  0.93622207  1
  Zn  Zn127  1  0.68999369  0.43813268  0.43903831  1
  Zn  Zn128  1  0.68483427  0.43723237  0.94106854  1
  Zn  Zn129  1  0.68480692  0.93892675  0.43819955  1
  Zn  Zn130  1  0.68516438  0.93437301  0.93333894  1
  Zn  Zn131  1  0.31419501  0.06742181  0.06539451  1
  Zn  Zn132  1  0.31211786  0.06180216  0.56253641  1
  Zn  Zn133  1  0.31089334  0.56828266  0.07375970  1
  Zn  Zn134  1  0.31089115  0.56775568  0.55684624  1
  Zn  Zn135  1  0.81717927  0.06490788  0.06268953  1
  Zn  Zn136  1  0.81142620  0.06260928  0.56038866  1
  Zn  Zn137  1  0.81174809  0.56071185  0.06514630  1
  Zn  Zn138  1  0.81499909  0.56388875  0.56732724  1
  Zn  Zn139  1  0.43964723  0.43621735  0.19175864  1
  Zn  Zn140  1  0.43457255  0.44035615  0.68852193  1
  Zn  Zn141  1  0.43635984  0.94213694  0.18752973  1
  Zn  Zn142  1  0.43218633  0.93659749  0.68880046  1
  Zn  Zn143  1  0.93687196  0.44015062  0.18722891  1
  Zn  Zn144  1  0.93408365  0.43533034  0.69439965  1
  Zn  Zn145  1  0.93761581  0.93703956  0.18720343  1
  Zn  Zn146  1  0.93589841  0.93851630  0.68934495  1
  Zn  Zn147  1  0.06851516  0.05878137  0.31370566  1
  Zn  Zn148  1  0.06146583  0.05933992  0.81018377  1
  Zn  Zn149  1  0.06526493  0.55842774  0.30634846  1
  Zn  Zn150  1  0.06273041  0.55817822  0.81293414  1
  Zn  Zn151  1  0.56348942  0.06639483  0.31352702  1
  Zn  Zn152  1  0.56245041  0.05898636  0.81276917  1
  Zn  Zn153  1  0.56354086  0.56462123  0.31317286  1
  Zn  Zn154  1  0.56173808  0.56320374  0.81294537  1
  Zn  Zn155  1  0.43698240  0.18865296  0.43985983  1
  Zn  Zn156  1  0.44218958  0.17881909  0.93609277  1
  Zn  Zn157  1  0.43517140  0.68785841  0.43645759  1
  Zn  Zn158  1  0.43926448  0.68642955  0.93464269  1
  Zn  Zn159  1  0.93865091  0.19258102  0.43558307  1
  Zn  Zn160  1  0.93756289  0.18745434  0.94134065  1
  Zn  Zn161  1  0.98018198  0.66231859  0.41501565  1
  Zn  Zn162  1  0.93514443  0.69088387  0.93860371  1
  Zn  Zn163  1  0.06198323  0.30848283  0.06185707  1
  Zn  Zn164  1  0.08730242  0.37165831  0.54116068  1
  Zn  Zn165  1  0.06626153  0.81595599  0.06139399  1
  Zn  Zn166  1  0.06063070  0.81376845  0.56096604  1
  Zn  Zn167  1  0.55989548  0.30853936  0.06012750  1
  Zn  Zn168  1  0.55783676  0.31321779  0.56012493  1
  Zn  Zn169  1  0.56417380  0.81156883  0.06218572  1
  Zn  Zn170  1  0.56222273  0.81289738  0.56365453  1
  O  O171  1  0.11715766  0.11583711  0.12644007  1
  O  O172  1  0.12078888  0.12031194  0.62068087  1
  O  O173  1  0.10982795  0.62428536  0.11621793  1
  O  O174  1  0.10711176  0.62372011  0.62914767  1
  O  O175  1  0.62220321  0.12745697  0.11520567  1
  O  O176  1  0.61655375  0.11508561  0.62316101  1
  O  O177  1  0.61735525  0.61802782  0.11435251  1
  O  O178  1  0.61592115  0.61972704  0.62136498  1
  O  O179  1  0.37653407  0.39054910  0.38089085  1
  O  O180  1  0.38687017  0.38302537  0.87037331  1
  O  O181  1  0.38793783  0.87348860  0.38333562  1
  O  O182  1  0.38499935  0.88888778  0.87053015  1
  O  O183  1  0.88161701  0.37236492  0.38241765  1
  O  O184  1  0.89019576  0.36884291  0.88369209  1
  O  O185  1  0.87851736  0.88609583  0.38111753  1
  O  O186  1  0.88298385  0.87754861  0.87673810  1
  O  O187  1  0.24290516  0.01341624  0.36688733  1
  O  O188  1  0.26445227  -0.00487552  0.87552858  1
  O  O189  1  0.25866165  0.50535035  0.36158168  1
  O  O190  1  0.25680007  0.50428283  0.87632494  1
  O  O191  1  0.75650887  0.00817881  0.37302963  1
  O  O192  1  0.74907973  0.00608455  0.86652075  1
  O  O193  1  0.75126644  0.50457797  0.36833065  1
  O  O194  1  0.74606768  0.51344917  0.87826442  1
  O  O195  1  0.24842772  0.47028031  0.09619902  1
  O  O196  1  0.26049924  0.50295604  0.63991767  1
  O  O197  1  0.24282743  1.00159159  0.13226223  1
  O  O198  1  0.23733618  0.99213382  0.62177073  1
  O  O199  1  0.73959962  0.49849333  0.13190985  1
  O  O200  1  0.74185843  0.49246379  0.62706146  1
  O  O201  1  0.75469150  1.00578965  0.14110547  1
  O  O202  1  0.74252564  0.99458136  0.62922975  1
  O  O203  1  0.00774805  0.37335873  0.25190684  1
  O  O204  1  0.00473353  0.37023874  0.76095138  1
  O  O205  1  0.01567276  0.88323509  0.25588342  1
  O  O206  1  0.00771919  0.88232793  0.75955811  1
  O  O207  1  0.50398375  0.37245090  0.25528298  1
  O  O208  1  0.50565376  0.37540892  0.75883581  1
  O  O209  1  0.50702851  0.87224354  0.25981194  1
  O  O210  1  0.49237275  0.86385345  0.75623368  1
  O  O211  1  0.49316053  0.12890124  0.24640375  1
  O  O212  1  0.49444895  0.12324805  0.73941824  1
  O  O213  1  0.51016759  0.63714766  0.24110291  1
  O  O214  1  0.49206818  0.63028031  0.74441337  1
  O  O215  1  1.00045897  0.11681808  0.24030136  1
  O  O216  1  0.99742329  0.13114679  0.74240207  1
  O  O217  1  0.98824486  0.61910092  0.23601510  1
  O  O218  1  0.98874867  0.62065265  0.74617668  1
  O  O219  1  0.36530538  0.24653169  -0.01197333  1
  O  O220  1  0.37560337  0.25995664  0.50744856  1
  O  O221  1  0.36060291  0.74615006  -0.00559917  1
  O  O222  1  0.36839887  0.75957639  0.49979702  1
  O  O223  1  0.87013578  0.25962440  0.00545801  1
  O  O224  1  0.86420576  0.25528796  0.50666723  1
  O  O225  1  0.86380159  0.75335203  0.00322801  1
  O  O226  1  0.86187206  0.75626217  0.51131270  1
  O  O227  1  0.12822635  0.25101669  0.48968601  1
  O  O228  1  0.12605465  0.24526714  0.99067630  1
  O  O229  1  0.13418670  0.75856648  0.49456216  1
  O  O230  1  0.13247786  0.73927139  0.99918925  1
  O  O231  1  0.63684754  0.24787765  0.50010642  1
  O  O232  1  0.63381624  0.24310487  0.99297668  1
  O  O233  1  0.63443419  0.74829980  0.49623472  1
  O  O234  1  0.62921425  0.74028622  0.99591247  1
  O  O235  1  0.50578336  0.23385506  0.12434299  1
  O  O236  1  0.49181994  0.23998437  0.62572130  1
  O  O237  1  0.50445664  0.74441402  0.13504283  1
  O  O238  1  0.50271085  0.74161919  0.63247354  1
  O  O239  1  0.98796007  0.24084616  0.12147570  1
  O  O240  1  0.98677759  0.24529309  0.63019396  1
  O  O241  1  0.99698105  0.73906984  0.11531491  1
  O  O242  1  0.98813850  0.74961177  0.62387854  1
  O  O243  1  0.01280032  0.25542211  0.37381375  1
  O  O244  1  0.00670233  0.25432920  0.87166106  1
  O  O245  1  -0.01456552  0.77034362  0.37639059  1
  O  O246  1  0.00347948  0.76562753  0.88195096  1
  O  O247  1  0.51651605  0.24824227  0.38010522  1
  O  O248  1  0.50557159  0.25801038  0.87528272  1
  O  O249  1  0.50716105  0.75685699  0.37107244  1
  O  O250  1  0.49888270  0.76199344  0.86829769  1
  O  O251  1  0.24468422  0.12749574  0.49302238  1
  O  O252  1  0.24773620  0.14012790  1.00552966  1
  O  O253  1  0.23474538  0.63551361  0.50602874  1
  O  O254  1  0.24178488  0.63295345  0.99531700  1
  O  O255  1  0.74801866  0.13254601  0.49163557  1
  O  O256  1  0.74435850  0.12786794  0.99368575  1
  O  O257  1  0.74552231  0.63435629  0.50199140  1
  O  O258  1  0.74377076  0.62874765  0.99561711  1
  O  O259  1  0.24664845  0.35419624  0.00700230  1
  O  O260  1  0.26568071  0.37305343  0.49430745  1
  O  O261  1  0.24137609  0.86034941  -0.00270361  1
  O  O262  1  0.25589688  0.86966979  0.50397410  1
  O  O263  1  0.75861556  0.36952053  0.00037327  1
  O  O264  1  0.75665857  0.36636832  0.50746426  1
  O  O265  1  0.74717700  0.86619795  0.00060477  1
  O  O266  1  0.75364063  0.87003955  0.50830704  1
  O  O267  1  0.12150274  0.48984204  0.23386863  1
  O  O268  1  0.13673247  0.48956743  0.75708114  1
  O  O269  1  0.13672446  0.99567227  0.24321557  1
  O  O270  1  0.12827452  0.99279017  0.74080769  1
  O  O271  1  0.63336413  0.50814698  0.24038623  1
  O  O272  1  0.62521373  0.49217917  0.74484918  1
  O  O273  1  0.63556402  0.99040190  0.26249315  1
  O  O274  1  0.63707348  1.00419689  0.74108818  1
  O  O275  1  0.36281285  0.01047810  0.25179543  1
  O  O276  1  0.37038547  0.00663632  0.75698942  1
  O  O277  1  0.38141481  0.50632824  0.26010614  1
  O  O278  1  0.37042932  0.50856051  0.76213425  1
  O  O279  1  0.86653830  -0.00428512  0.26391539  1
  O  O280  1  0.86077729  0.00462663  0.74921623  1
  O  O281  1  0.86458915  0.51037476  0.24831727  1
  O  O282  1  0.87006619  0.51511974  0.74949203  1
  O  O283  1  0.11988455  0.36754147  0.35841933  1
  O  O284  1  0.11485280  0.36582277  0.87348084  1
  O  O285  1  0.11733334  0.88184875  0.36143050  1
  O  O286  1  0.11751135  0.87628864  0.86432938  1
  O  O287  1  0.62712974  0.35792752  0.38426837  1
  O  O288  1  0.61531615  0.37202905  0.87077656  1
  O  O289  1  0.61625724  0.86583966  0.37391832  1
  O  O290  1  0.60901019  0.87428503  0.86906741  1
  O  O291  1  0.38467539  0.12404835  0.13732525  1
  O  O292  1  0.38137683  0.12867101  0.63255884  1
  O  O293  1  0.39437040  0.63460838  0.11678290  1
  O  O294  1  0.38641411  0.62025520  0.63305570  1
  O  O295  1  0.88245466  0.13964253  0.12241987  1
  O  O296  1  0.87957471  0.13269179  0.62398779  1
  O  O297  1  0.87892480  0.62884702  0.13036904  1
  O  O298  1  0.88255124  0.62950702  0.63736789  1
  O  O299  1  0.25065089  0.25616777  0.11147194  1
  O  O300  1  0.26504351  0.24522538  0.62298494  1
  O  O301  1  0.25513525  0.75554302  0.10872038  1
  O  O302  1  0.24370022  0.76009657  0.61402029  1
  O  O303  1  0.76106780  0.25062860  0.11992601  1
  O  O304  1  0.75766060  0.25255413  0.62027049  1
  O  O305  1  0.74516664  0.74903667  0.11198446  1
  O  O306  1  0.75390715  0.75427975  0.62121974  1
  O  O307  1  0.23972601  0.24364275  0.37444370  1
  O  O308  1  0.24130197  0.25255143  0.88616927  1
  O  O309  1  0.25204971  0.75000325  0.38860847  1
  O  O310  1  0.24686011  0.74378555  0.88244105  1
  O  O311  1  0.74366915  0.24485416  0.38214298  1
  O  O312  1  0.74529834  0.24256557  0.87943135  1
  O  O313  1  0.74361698  0.75179149  0.38604952  1
  O  O314  1  0.74716546  0.73908469  0.88520342  1
  O  O315  1  0.00182631  0.11379110  0.00587833  1
  O  O316  1  0.00582039  0.12228256  0.50540300  1
  O  O317  1  0.00403200  0.61898414  0.00111144  1
  O  O318  1  -0.00731133  0.61829440  0.52289240  1
  O  O319  1  0.51062660  0.12051996  0.00747810  1
  O  O320  1  0.49694966  0.11631641  0.51180943  1
  O  O321  1  0.50824028  0.61692768  0.00218347  1
  O  O322  1  0.50455542  0.62277903  0.50896924  1
  O  O323  1  0.49177113  0.38506367  0.49548929  1
  O  O324  1  0.50384254  0.38765220  0.99279708  1
  O  O325  1  0.49228001  0.87864205  0.49592520  1
  O  O326  1  0.50358257  0.87488345  0.98590738  1
  O  O327  1  0.98727455  0.36331573  0.48654988  1
  O  O328  1  0.99537570  0.38167670  0.99713959  1
  O  O329  1  0.99509698  0.88388117  0.49282796  1
  O  O330  1  1.00286510  0.88786670  0.99331855  1
  O  O331  1  0.50312151  0.50296087  0.38904764  1
  O  O332  1  0.49364652  0.49436809  0.88204118  1
  O  O333  1  0.50680447  0.99191275  0.38648459  1
  O  O334  1  0.49395715  0.98749184  0.87393857  1
  O  O335  1  0.99492020  0.48091883  0.36797175  1
  O  O336  1  1.00717321  0.49069580  0.89120390  1
  O  O337  1  0.99266772  0.99692940  0.37927923  1
  O  O338  1  0.99842630  0.99407241  0.88279922  1
  O  O339  1  0.00545895  0.00704373  0.11935171  1
  O  O340  1  0.00951972  0.00435867  0.62040094  1
  O  O341  1  -0.00328301  0.51050252  0.11263754  1
  O  O342  1  0.00003699  0.50384563  0.63166588  1
  O  O343  1  0.50296098  0.01498238  0.12752098  1
  O  O344  1  0.50543085  0.00328617  0.62181585  1
  O  O345  1  0.50444842  0.50621093  0.11855809  1
  O  O346  1  0.50386246  0.50743808  0.61581839  1
  O  O347  1  0.24304185  0.36737738  0.22843526  1
  O  O348  1  0.24271436  0.38438486  0.75819906  1
  O  O349  1  0.24193516  0.88449850  0.25314558  1
  O  O350  1  0.24381912  0.87569860  0.74027099  1
  O  O351  1  0.75290228  0.39032219  0.24813696  1
  O  O352  1  0.74344980  0.37623451  0.74597029  1
  O  O353  1  0.74080880  0.88455068  0.25202486  1
  O  O354  1  0.75394465  0.88172290  0.74371127  1
  O  O355  1  0.25755879  0.12167353  0.25599354  1
  O  O356  1  0.26114580  0.12223116  0.74668570  1
  O  O357  1  0.23888375  0.59045726  0.17524999  1
  O  O358  1  0.25561550  0.62046142  0.75542004  1
  O  O359  1  0.74610536  0.11843400  0.26435869  1
  O  O360  1  0.74972874  0.11909167  0.75828264  1
  O  O361  1  0.75557885  0.61668259  0.25320479  1
  O  O362  1  0.75760055  0.62245342  0.75938375  1
  O  O363  1  0.36315110  0.12920940  0.37241920  1
  O  O364  1  0.38582930  0.10783306  0.86398288  1
  O  O365  1  0.37816188  0.60863376  0.38158933  1
  O  O366  1  0.37061927  0.61738636  0.86745724  1
  O  O367  1  0.86656167  0.11807490  0.38201272  1
  O  O368  1  0.86088972  0.12526459  0.87538466  1
  O  O369  1  0.87998622  0.62212178  0.36666297  1
  O  O370  1  0.86953134  0.62965253  0.86416421  1
  O  O371  1  0.12583192  0.37640893  0.12982523  1
  O  O372  1  0.12325339  0.35847295  0.64706997  1
  O  O373  1  0.12748127  0.88647103  0.13501386  1
  O  O374  1  0.12832197  0.88266373  0.62940172  1
  O  O375  1  0.62607029  0.38687418  0.11752565  1
  O  O376  1  0.62763404  0.37787014  0.63128452  1
  O  O377  1  0.62607202  0.87448562  0.13891364  1
  O  O378  1  0.62983485  0.88623736  0.62291650  1
  O  O379  1  0.12734283  0.25604354  0.25393326  1
  O  O380  1  0.12076836  0.25386719  0.76142039  1
  O  O381  1  0.13330803  0.76717658  0.24383250  1
  O  O382  1  0.12773011  0.76334047  0.74916108  1
  O  O383  1  0.62749368  0.24720907  0.26400080  1
  O  O384  1  0.62179925  0.25779819  0.75659487  1
  O  O385  1  0.62145215  0.75872053  0.25972102  1
  O  O386  1  0.60957553  0.74095504  0.75373175  1
  O  O387  1  0.37702337  0.23999774  0.25874877  1
  O  O388  1  0.37705788  0.24207747  0.74543849  1
  O  O389  1  0.38859110  0.75274096  0.25266496  1
  O  O390  1  0.38108045  0.73679022  0.75561839  1
  O  O391  1  0.87052684  0.25384316  0.23616893  1
  O  O392  1  0.88049735  0.24919373  0.74147965  1
  O  O393  1  0.86433655  0.73655535  0.24744404  1
  O  O394  1  0.86898146  0.73478788  0.74194711  1
  O  O395  1  0.38137154  0.49551962  0.49792019  1
  O  O396  1  0.38308991  0.50910727  0.98880164  1
  O  O397  1  0.38606234  0.99003497  0.50591441  1
  O  O398  1  0.37879604  1.00672126  0.98683957  1
  O  O399  1  0.86750393  0.48572778  0.49979642  1
  O  O400  1  0.88119925  0.48637021  1.00490830  1
  O  O401  1  0.87989678  0.99508914  0.49310203  1
  O  O402  1  0.88399075  0.99832333  0.99712028  1
  O  O403  1  0.11967197  0.00308400  0.00961894  1
  O  O404  1  0.11956163  0.00813124  0.50619747  1
  O  O405  1  0.12202861  0.51312818  0.01249133  1
  O  O406  1  0.12735393  0.47185222  0.50466852  1
  O  O407  1  0.62336607  0.00991994  -0.00452893  1
  O  O408  1  0.61369001  0.00072747  0.50905759  1
  O  O409  1  0.61670929  0.50697641  0.00703363  1
  O  O410  1  0.61883354  0.50595189  0.50608955  1
  O  O411  1  0.36751235  0.37075420  0.12598502  1
  O  O412  1  0.38334891  0.36615957  0.61682583  1
  O  O413  1  0.37460480  0.87341092  0.12677075  1
  O  O414  1  0.36237242  0.87850163  0.61664718  1
  O  O415  1  0.87573394  0.36387872  0.11765091  1
  O  O416  1  0.87126298  0.36729944  0.61967262  1
  O  O417  1  0.86874335  0.87415566  0.12320282  1
  O  O418  1  0.87046133  0.86757978  0.62114150  1
  O  O419  1  0.13190063  0.13248389  0.37962544  1
  O  O420  1  0.12123855  0.13575372  0.87450805  1
  O  O421  1  0.08593107  0.62540599  0.39058943  1
  O  O422  1  0.12899678  0.62658149  0.88148908  1
  O  O423  1  0.63307731  0.13645692  0.38112281  1
  O  O424  1  0.63373207  0.12852420  0.88033772  1
  O  O425  1  0.62597913  0.63960671  0.38344398  1
  O  O426  1  0.63048724  0.62472167  0.88568551  1
