# generated using pymatgen
data_V85Zn86O256
_symmetry_space_group_name_H-M   'P 1'
_cell_length_a   16.94751075
_cell_length_b   16.93628255
_cell_length_c   16.93458894
_cell_angle_alpha   90.02951441
_cell_angle_beta   90.00945366
_cell_angle_gamma   90.06053841
_symmetry_Int_Tables_number   1
_chemical_formula_structural   V85Zn86O256
_chemical_formula_sum   'V85 Zn86 O256'
_cell_volume   4860.69490011
_cell_formula_units_Z   1
loop_
 _symmetry_equiv_pos_site_id
 _symmetry_equiv_pos_as_xyz
  1  'x, y, z'
loop_
 _atom_site_type_symbol
 _atom_site_label
 _atom_site_symmetry_multiplicity
 _atom_site_fract_x
 _atom_site_fract_y
 _atom_site_fract_z
 _atom_site_occupancy
  V  V0  1  0.24332407  0.62484860  0.86876316  1
  V  V1  1  -0.00219324  0.00261674  -0.00361949  1
  V  V2  1  0.12208034  0.24879517  0.86853497  1
  V  V3  1  -0.00099304  0.87990294  0.37645054  1
  V  V4  1  -0.00219065  0.37128403  0.86756954  1
  V  V5  1  0.88101500  0.25531243  0.62654525  1
  V  V6  1  0.62543240  0.62605361  0.00153252  1
  V  V7  1  0.37615973  0.87234669  0.00335287  1
  V  V8  1  0.87214533  0.36989359  0.00061256  1
  V  V9  1  0.74854291  0.12308092  0.87184582  1
  V  V10  1  0.37608600  0.50154854  0.38134043  1
  V  V11  1  0.49740522  0.01019201  0.00459757  1
  V  V12  1  0.37624468  0.37778126  0.49973238  1
  V  V13  1  0.12552615  0.87455317  0.25122505  1
  V  V14  1  0.62759825  0.37635356  0.74655070  1
  V  V15  1  0.12958722  0.12263241  0.49647252  1
  V  V16  1  0.51116799  0.37597459  0.37515604  1
  V  V17  1  0.37399776  0.74825494  0.62632240  1
  V  V18  1  0.87953965  0.12919601  0.75051476  1
  V  V19  1  -0.00463386  0.00200980  0.50085213  1
  V  V20  1  0.75921718  0.00176716  0.25277368  1
  V  V21  1  0.62162426  0.01277320  0.12975947  1
  V  V22  1  0.24572339  0.75055290  0.50050045  1
  V  V23  1  0.50180117  0.38335346  0.87478385  1
  V  V24  1  0.00181443  0.12842355  0.12510924  1
  V  V25  1  0.84683498  0.25878556  0.14390533  1
  V  V26  1  0.89026112  0.37907046  0.48536923  1
  V  V27  1  0.49166725  0.63261364  0.11472950  1
  V  V28  1  0.75372767  0.37742901  0.62103129  1
  V  V29  1  0.12418498  0.63655212  -0.00181253  1
  V  V30  1  -0.00116884  0.63676115  0.12981268  1
  V  V31  1  0.62285407  0.12964701  0.49643789  1
  V  V32  1  0.62024556  0.75053476  0.37407727  1
  V  V33  1  0.24736668  0.62625039  0.37547897  1
  V  V34  1  0.87313497  0.87672875  0.49959605  1
  V  V35  1  0.11650249  0.50157737  0.12288547  1
  V  V36  1  0.62246675  0.00016391  0.62349224  1
  V  V37  1  0.12703956  0.50059934  0.62561122  1
  V  V38  1  0.13314202  0.38017979  0.75274528  1
  V  V39  1  0.37189738  0.00354467  0.86214294  1
  V  V40  1  0.37926832  -0.00054955  0.37605115  1
  V  V41  1  0.11511759  0.38007147  0.25564914  1
  V  V42  1  0.82272487  0.69834088  0.18149193  1
  V  V43  1  0.61709005  0.62210935  0.49417225  1
  V  V44  1  0.62630677  0.75226544  0.87772716  1
  V  V45  1  0.24632701  0.50250952  0.25081539  1
  V  V46  1  0.75001992  0.87394177  0.62617887  1
  V  V47  1  0.62229494  0.87830055  0.25237826  1
  V  V48  1  0.87403782  0.87169710  0.00452511  1
  V  V49  1  0.11279435  0.61933499  0.49795539  1
  V  V50  1  0.37350853  0.24229409  0.12806098  1
  V  V51  1  0.87745164  0.50785340  0.87112006  1
  V  V52  1  0.25304495  0.12269722  0.85654047  1
  V  V53  1  0.37355400  0.38227500  0.00604367  1
  V  V54  1  0.50941375  0.24857886  0.25614617  1
  V  V55  1  0.74992385  0.74253494  0.49710248  1
  V  V56  1  0.88092909  0.51797485  0.36500011  1
  V  V57  1  0.62069049  0.50117782  0.61755971  1
  V  V58  1  0.25152720  0.24906841  0.49727754  1
  V  V59  1  0.37383350  0.61287428  0.75031296  1
  V  V60  1  0.49837069  0.87742107  0.87681606  1
  V  V61  1  0.00083460  0.86446213  0.87013162  1
  V  V62  1  0.12782402  0.00217152  0.63650627  1
  V  V63  1  0.37434190  0.63016355  0.24544863  1
  V  V64  1  0.25015007  0.87897781  0.63313051  1
  V  V65  1  0.38076404  0.87417339  0.49678867  1
  V  V66  1  0.74819145  0.25341171  0.49433224  1
  V  V67  1  0.25381879  0.86841731  0.12606015  1
  V  V68  1  0.55910832  0.45176085  0.06029305  1
  V  V69  1  0.75603287  0.51068618  0.74512907  1
  V  V70  1  0.62391622  0.24768975  0.87211078  1
  V  V71  1  0.37297052  0.24477556  0.62850392  1
  V  V72  1  0.25048024  0.00399250  0.25492172  1
  V  V73  1  0.49579826  0.24408839  0.74936054  1
  V  V74  1  0.12334785  0.25395153  0.37931993  1
  V  V75  1  0.75808167  0.12106129  0.37881297  1
  V  V76  1  0.49946199  0.74797013  0.74953096  1
  V  V77  1  0.00116205  0.12799063  0.62932265  1
  V  V78  1  0.13132646  0.12574426  -0.00177884  1
  V  V79  1  0.00752846  0.24996338  0.24931279  1
  V  V80  1  0.49555162  0.75594000  0.24923543  1
  V  V81  1  0.37052677  0.13026933  0.26009057  1
  V  V82  1  0.12307709  0.86168815  0.75354274  1
  V  V83  1  -0.00598119  0.62610290  0.64093514  1
  V  V84  1  0.24649654  0.37501586  0.12579729  1
  Zn  Zn85  1  0.37359430  0.49998992  0.87907308  1
  Zn  Zn86  1  0.25496232  0.38229895  0.63179527  1
  Zn  Zn87  1  0.25217531  0.24957542  -0.00188628  1
  Zn  Zn88  1  0.88736105  0.11797658  0.26168165  1
  Zn  Zn89  1  0.74861362  0.25182339  -0.00342232  1
  Zn  Zn90  1  -0.00733753  0.75473069  0.24878004  1
  Zn  Zn91  1  0.50046300  -0.00087525  0.49670129  1
  Zn  Zn92  1  0.25264870  0.75122342  -0.00189057  1
  Zn  Zn93  1  0.49592005  0.12280109  0.62478389  1
  Zn  Zn94  1  0.75660302  0.63225964  0.87132858  1
  Zn  Zn95  1  0.87181834  0.00131683  0.87419435  1
  Zn  Zn96  1  0.75358725  0.74811461  0.00347525  1
  Zn  Zn97  1  0.75031680  0.00004364  0.74744186  1
  Zn  Zn98  1  0.12013778  0.74854588  0.37482249  1
  Zn  Zn99  1  0.62531840  0.87633150  0.75100530  1
  Zn  Zn100  1  0.49603660  0.61931540  0.62044592  1
  Zn  Zn101  1  0.12816844  0.00023962  0.12358164  1
  Zn  Zn102  1  0.88072759  0.74718632  0.63602496  1
  Zn  Zn103  1  0.74257353  0.49566098  0.23972570  1
  Zn  Zn104  1  0.62550672  0.12381275  0.00343123  1
  Zn  Zn105  1  -0.00063671  0.50225955  -0.00293006  1
  Zn  Zn106  1  0.75169727  0.87755400  0.12545358  1
  Zn  Zn107  1  0.18862849  0.18703447  0.18695090  1
  Zn  Zn108  1  0.18623895  0.19394573  0.68473641  1
  Zn  Zn109  1  0.18431665  0.69074119  0.18675790  1
  Zn  Zn110  1  0.18635361  0.68425458  0.68650487  1
  Zn  Zn111  1  0.69512995  0.19760783  0.19681326  1
  Zn  Zn112  1  0.68976279  0.18835353  0.68359409  1
  Zn  Zn113  1  0.65074454  0.64264072  0.21390812  1
  Zn  Zn114  1  0.68677284  0.68895269  0.68411947  1
  Zn  Zn115  1  0.30723909  0.31547986  0.31500273  1
  Zn  Zn116  1  0.31300092  0.31148030  0.81676557  1
  Zn  Zn117  1  0.31137047  0.81356166  0.31487633  1
  Zn  Zn118  1  0.31184380  0.80899783  0.81467651  1
  Zn  Zn119  1  0.81217355  0.31196711  0.31356193  1
  Zn  Zn120  1  0.81219194  0.31390235  0.80937286  1
  Zn  Zn121  1  0.80617606  0.82200581  0.32177890  1
  Zn  Zn122  1  0.81497767  0.81331427  0.81082458  1
  Zn  Zn123  1  0.18703981  0.43816159  0.44009651  1
  Zn  Zn124  1  0.18846795  0.44252618  0.93781638  1
  Zn  Zn125  1  0.18944721  0.93861031  0.43899154  1
  Zn  Zn126  1  0.18830308  0.94000405  0.93456532  1
  Zn  Zn127  1  0.69978810  0.44453228  0.43049890  1
  Zn  Zn128  1  0.69627414  0.43562880  0.93140965  1
  Zn  Zn129  1  0.68578913  0.93812940  0.43559462  1
  Zn  Zn130  1  0.68741802  0.94066381  0.93906047  1
  Zn  Zn131  1  0.31252971  0.05844317  0.06428010  1
  Zn  Zn132  1  0.31114443  0.06254113  0.56351875  1
  Zn  Zn133  1  0.30709409  0.56315188  0.06182082  1
  Zn  Zn134  1  0.30722733  0.56289356  0.56311601  1
  Zn  Zn135  1  0.81185669  0.07301602  0.06741430  1
  Zn  Zn136  1  0.81229037  0.06370368  0.56466688  1
  Zn  Zn137  1  0.80625550  0.55517492  0.05984626  1
  Zn  Zn138  1  0.81603917  0.56101774  0.55492085  1
  Zn  Zn139  1  0.43402560  0.43546012  0.19700378  1
  Zn  Zn140  1  0.44096805  0.43317886  0.68616469  1
  Zn  Zn141  1  0.43701579  0.94039063  0.18699217  1
  Zn  Zn142  1  0.44038875  0.93525026  0.68561858  1
  Zn  Zn143  1  0.90470217  0.45494587  0.16990143  1
  Zn  Zn144  1  0.94387683  0.44100752  0.68572142  1
  Zn  Zn145  1  0.94096388  0.93948010  0.18417799  1
  Zn  Zn146  1  0.93635562  0.93847335  0.68869698  1
  Zn  Zn147  1  0.06797653  0.06135489  0.31710420  1
  Zn  Zn148  1  0.06128504  0.06171507  0.81308143  1
  Zn  Zn149  1  0.05035834  0.56109824  0.31477917  1
  Zn  Zn150  1  0.06485246  0.55983419  0.81229294  1
  Zn  Zn151  1  0.56257094  0.06690997  0.31611003  1
  Zn  Zn152  1  0.55955720  0.06107995  0.81034530  1
  Zn  Zn153  1  0.55958597  0.55676486  0.31698389  1
  Zn  Zn154  1  0.56615789  0.56416750  0.81010518  1
  Zn  Zn155  1  0.43732125  0.18814071  0.43671197  1
  Zn  Zn156  1  0.43381483  0.18915369  0.93604182  1
  Zn  Zn157  1  0.43837644  0.69008737  0.43524906  1
  Zn  Zn158  1  0.43446813  0.68853677  0.93430664  1
  Zn  Zn159  1  0.93933608  0.19200893  0.43980096  1
  Zn  Zn160  1  0.93768353  0.19027741  0.93835234  1
  Zn  Zn161  1  0.93466330  0.69274463  0.43708272  1
  Zn  Zn162  1  0.94008507  0.68875092  0.93741662  1
  Zn  Zn163  1  0.05935175  0.31435606  0.05753218  1
  Zn  Zn164  1  0.06310336  0.31525558  0.56642919  1
  Zn  Zn165  1  0.06289127  0.81620859  0.06277577  1
  Zn  Zn166  1  0.06246760  0.81019198  0.56621357  1
  Zn  Zn167  1  0.55892123  0.28705190  0.06648374  1
  Zn  Zn168  1  0.56133830  0.31375692  0.55965798  1
  Zn  Zn169  1  0.56305793  0.81576797  0.06659478  1
  Zn  Zn170  1  0.56242340  0.81064087  0.56370519  1
  O  O171  1  0.12019495  0.12264198  0.11581429  1
  O  O172  1  0.12093828  0.12040694  0.61865040  1
  O  O173  1  0.11941850  0.62075658  0.11775467  1
  O  O174  1  0.11856889  0.61921381  0.61833322  1
  O  O175  1  0.62371191  0.11520528  0.12929471  1
  O  O176  1  0.62607833  0.11748325  0.61463596  1
  O  O177  1  0.60957961  0.62923030  0.10669709  1
  O  O178  1  0.62199963  0.61769769  0.61616600  1
  O  O179  1  0.37622891  0.38437679  0.38111911  1
  O  O180  1  0.38463878  0.37489470  0.88712578  1
  O  O181  1  0.36878220  0.88371828  0.38587332  1
  O  O182  1  0.37855056  0.88357671  0.88073097  1
  O  O183  1  0.88413347  0.36283759  0.38501577  1
  O  O184  1  0.88251881  0.37775912  0.87787896  1
  O  O185  1  0.88189396  0.87705469  0.39112150  1
  O  O186  1  0.88608356  0.88187081  0.88256501  1
  O  O187  1  0.25913261  -0.00503161  0.36288207  1
  O  O188  1  0.25954675  0.01038203  0.87695168  1
  O  O189  1  0.25625561  0.50641485  0.36948231  1
  O  O190  1  0.25523529  0.51757876  0.88038094  1
  O  O191  1  0.74747485  0.00781143  0.36624705  1
  O  O192  1  0.74965541  0.00713804  0.86655874  1
  O  O193  1  0.77394834  0.47194720  0.35049766  1
  O  O194  1  0.75924120  0.50215466  0.86252001  1
  O  O195  1  0.23510777  0.49828130  0.13191591  1
  O  O196  1  0.23531966  0.49910912  0.62439301  1
  O  O197  1  0.24986730  0.99175388  0.13829148  1
  O  O198  1  0.24098993  0.99004906  0.62039437  1
  O  O199  1  0.79336933  0.48040478  0.14023103  1
  O  O200  1  0.74514408  0.49683947  0.62846917  1
  O  O201  1  0.74136389  1.00348065  0.13526554  1
  O  O202  1  0.74240268  0.99002867  0.62294649  1
  O  O203  1  0.01380958  0.36588339  0.24454422  1
  O  O204  1  0.01113796  0.37741197  0.76137241  1
  O  O205  1  0.00748494  0.88006487  0.25842314  1
  O  O206  1  0.00556338  0.88219588  0.76342954  1
  O  O207  1  0.49435573  0.36496092  0.26562955  1
  O  O208  1  0.50750350  0.36737172  0.75836195  1
  O  O209  1  0.50354036  0.86294679  0.24391035  1
  O  O210  1  0.50106210  0.86420361  0.75689825  1
  O  O211  1  0.48852563  0.14097482  0.26159177  1
  O  O212  1  0.50294687  0.14052931  0.74757517  1
  O  O213  1  0.49083784  0.63439172  0.24076627  1
  O  O214  1  0.49229525  0.63173284  0.74853976  1
  O  O215  1  1.00839910  0.12840661  0.24317964  1
  O  O216  1  0.99313319  0.12348523  0.74206814  1
  O  O217  1  1.00894997  0.63346100  0.23493858  1
  O  O218  1  1.00257624  0.62411622  0.73973572  1
  O  O219  1  0.37915363  0.26122723  0.01169453  1
  O  O220  1  0.36747408  0.25648399  0.50426708  1
  O  O221  1  0.37617163  0.76803028  -0.00489198  1
  O  O222  1  0.36537616  0.75517714  0.50338281  1
  O  O223  1  0.87333736  0.25578375  0.00679212  1
  O  O224  1  0.87000058  0.26000255  0.50681503  1
  O  O225  1  0.87333753  0.76761509  -0.00802870  1
  O  O226  1  0.86504365  0.75868673  0.50688565  1
  O  O227  1  0.13012265  0.24625596  0.49728229  1
  O  O228  1  0.12647303  0.24239245  0.98841459  1
  O  O229  1  0.13496429  0.74492248  0.49965611  1
  O  O230  1  0.12725727  0.73984774  1.00300482  1
  O  O231  1  0.63580731  0.24174412  0.50829497  1
  O  O232  1  0.62590313  0.24259143  0.98869702  1
  O  O233  1  0.62814272  0.74583936  0.49299277  1
  O  O234  1  0.62606767  0.74537320  0.99344089  1
  O  O235  1  0.48665258  0.25518180  0.14594270  1
  O  O236  1  0.49166453  0.25237828  0.63299418  1
  O  O237  1  0.49943095  0.74161449  0.13301372  1
  O  O238  1  0.49278123  0.74820306  0.63418027  1
  O  O239  1  1.01653824  0.24044146  0.13576601  1
  O  O240  1  0.98844802  0.24452049  0.62052285  1
  O  O241  1  1.00181595  0.74539302  0.12792588  1
  O  O242  1  1.00098914  0.73137850  0.62027490  1
  O  O243  1  0.01586594  0.24360507  0.36813661  1
  O  O244  1  0.01003101  0.25741586  0.87726691  1
  O  O245  1  0.00024690  0.76567429  0.37340023  1
  O  O246  1  0.00256965  0.76615383  0.87833686  1
  O  O247  1  0.49326834  0.26333235  0.36663707  1
  O  O248  1  0.50518161  0.25846185  0.86970754  1
  O  O249  1  0.50990332  0.74955563  0.36578615  1
  O  O250  1  0.50780395  0.75507638  0.86915556  1
  O  O251  1  0.24055587  0.13554222  0.50740260  1
  O  O252  1  0.23924949  0.12442638  0.99867970  1
  O  O253  1  0.24271098  0.63447962  0.49541554  1
  O  O254  1  0.24200528  0.62909951  0.99347804  1
  O  O255  1  0.74606014  0.13142359  0.49725787  1
  O  O256  1  0.74693861  0.11721039  0.97851835  1
  O  O257  1  0.74057144  0.63911693  0.50782319  1
  O  O258  1  0.74046853  0.62640893  0.99691185  1
  O  O259  1  0.25741934  0.37320675  0.00611798  1
  O  O260  1  0.26126830  0.36901902  0.50189854  1
  O  O261  1  0.25648091  0.87736238  0.00770248  1
  O  O262  1  0.25408445  0.86749561  0.51039077  1
  O  O263  1  0.76634742  0.37029054  -0.00569187  1
  O  O264  1  0.75624328  0.36725208  0.50375444  1
  O  O265  1  0.76343192  0.87724831  0.00139757  1
  O  O266  1  0.75672932  0.87144032  0.50465525  1
  O  O267  1  0.12508708  0.49538902  0.24598617  1
  O  O268  1  0.12445843  0.49096075  0.74227269  1
  O  O269  1  0.13394061  0.99149456  0.25126469  1
  O  O270  1  0.12180383  0.99416836  0.73896907  1
  O  O271  1  0.63567067  0.53123292  0.24212021  1
  O  O272  1  0.63354438  0.49506407  0.74088748  1
  O  O273  1  0.62632124  0.99489196  0.24710533  1
  O  O274  1  0.62381564  1.00004369  0.73495312  1
  O  O275  1  0.37083819  0.00893247  0.25632344  1
  O  O276  1  0.38223612  -0.00238526  0.76278014  1
  O  O277  1  0.36841918  0.51095442  0.25928468  1
  O  O278  1  0.38072222  0.51004006  0.74914529  1
  O  O279  1  0.86370451  0.00111007  0.24503183  1
  O  O280  1  0.87286473  0.01576758  0.74866121  1
  O  O281  1  0.88943244  0.51725066  0.26311245  1
  O  O282  1  0.86656570  0.49249835  0.75689815  1
  O  O283  1  0.12878224  0.36774463  0.36789248  1
  O  O284  1  0.12088885  0.36986975  0.87172090  1
  O  O285  1  0.11833327  0.87542658  0.36961837  1
  O  O286  1  0.11205008  0.88269335  0.86755480  1
  O  O287  1  0.60911327  0.38234238  0.38398939  1
  O  O288  1  0.62016422  0.36588456  0.87127077  1
  O  O289  1  0.62363072  0.87083237  0.36085965  1
  O  O290  1  0.61745747  0.86900076  0.87504212  1
  O  O291  1  0.36838583  0.13724993  0.13403171  1
  O  O292  1  0.37564637  0.14028589  0.62020206  1
  O  O293  1  0.37892045  0.62072421  0.13390879  1
  O  O294  1  0.37467669  0.62982123  0.63179023  1
  O  O295  1  0.89337526  0.13557889  0.13038224  1
  O  O296  1  0.88016921  0.13427683  0.62994362  1
  O  O297  1  0.88095474  0.63562642  0.11923550  1
  O  O298  1  0.89177236  0.62037703  0.61807690  1
  O  O299  1  0.25542042  0.25738242  0.12234028  1
  O  O300  1  0.25586098  0.25741068  0.61606428  1
  O  O301  1  0.24832824  0.76437878  0.12332995  1
  O  O302  1  0.25478341  0.75504188  0.61828134  1
  O  O303  1  0.76182910  0.20385347  0.10287292  1
  O  O304  1  0.76189033  0.25536963  0.61605411  1
  O  O305  1  0.75703453  0.75432260  0.12472449  1
  O  O306  1  0.74482350  0.76278137  0.61538664  1
  O  O307  1  0.24016264  0.25381534  0.38876812  1
  O  O308  1  0.24467466  0.24008998  0.87880201  1
  O  O309  1  0.24676280  0.74475339  0.38428649  1
  O  O310  1  0.25528508  0.73210165  0.87947712  1
  O  O311  1  0.75212862  0.24216522  0.38858302  1
  O  O312  1  0.73959166  0.24423736  0.87257593  1
  O  O313  1  0.73423005  0.75862175  0.38612897  1
  O  O314  1  0.73594583  0.75177026  0.87687974  1
  O  O315  1  0.00908709  0.12130654  0.00486172  1
  O  O316  1  0.00627287  0.11876952  0.50727955  1
  O  O317  1  0.00729727  0.62498355  0.00821932  1
  O  O318  1  0.01240773  0.63106724  0.49869894  1
  O  O319  1  0.50049501  0.11393308  -0.00422765  1
  O  O320  1  0.50897128  0.12586658  0.50170853  1
  O  O321  1  0.50003908  0.62730277  0.00767006  1
  O  O322  1  0.51165363  0.62978937  0.50224241  1
  O  O323  1  0.48616044  0.36807595  0.48765599  1
  O  O324  1  0.49979951  0.38172303  0.99996475  1
  O  O325  1  0.48375368  0.87379443  0.50542037  1
  O  O326  1  0.49412612  0.88454691  0.99622822  1
  O  O327  1  0.98780169  0.37426592  0.50325307  1
  O  O328  1  0.99277627  0.37692585  0.98635893  1
  O  O329  1  0.99491429  0.88146655  0.49772976  1
  O  O330  1  0.99388502  0.88308319  0.99238743  1
  O  O331  1  0.48817022  0.48711525  0.37144170  1
  O  O332  1  0.50030434  0.48667717  0.87011967  1
  O  O333  1  0.48469373  1.00318616  0.37623120  1
  O  O334  1  0.49455169  0.99598102  0.88210308  1
  O  O335  1  0.98201477  0.50248653  0.38260379  1
  O  O336  1  0.99299774  0.49221410  0.87455173  1
  O  O337  1  1.00555134  0.99045604  0.38634638  1
  O  O338  1  0.99740915  0.99873143  0.88693260  1
  O  O339  1  0.00428766  0.00869597  0.11379866  1
  O  O340  1  0.00904240  0.00534157  0.61875154  1
  O  O341  1  0.00694186  0.50792508  0.12357604  1
  O  O342  1  0.01251781  0.51290463  0.62621852  1
  O  O343  1  0.50760953  -0.00220764  0.11680813  1
  O  O344  1  0.50690125  0.00271237  0.62004587  1
  O  O345  1  0.49832758  0.50543355  0.12467097  1
  O  O346  1  0.51664009  0.49777365  0.62614170  1
  O  O347  1  0.23904704  0.38268631  0.24486513  1
  O  O348  1  0.23817133  0.37195118  0.75282586  1
  O  O349  1  0.24513306  0.88035900  0.24485071  1
  O  O350  1  0.24375160  0.87007632  0.74006056  1
  O  O351  1  0.76831301  0.29999601  0.21083798  1
  O  O352  1  0.74458584  0.38227087  0.74051620  1
  O  O353  1  0.74133442  0.88608691  0.24920514  1
  O  O354  1  0.74566164  0.87871188  0.73957639  1
  O  O355  1  0.25707147  0.11644158  0.24818513  1
  O  O356  1  0.24569060  0.12739873  0.75732048  1
  O  O357  1  0.25497009  0.62318988  0.25375442  1
  O  O358  1  0.25698668  0.62853291  0.76045056  1
  O  O359  1  0.75312123  0.11868656  0.26342255  1
  O  O360  1  0.75688493  0.12565685  0.75657479  1
  O  O361  1  0.76427834  0.64076460  0.23853436  1
  O  O362  1  0.74363613  0.61371175  0.75071472  1
  O  O363  1  0.37086595  0.11926890  0.36776329  1
  O  O364  1  0.36401869  0.11804460  0.87859997  1
  O  O365  1  0.37026680  0.61828966  0.37034238  1
  O  O366  1  0.36849308  0.62075757  0.86707438  1
  O  O367  1  0.86453427  0.12717298  0.37956091  1
  O  O368  1  0.86844428  0.12758494  0.86629180  1
  O  O369  1  0.86631062  0.61561600  0.38898426  1
  O  O370  1  0.87553555  0.61175298  0.88090448  1
  O  O371  1  0.12695416  0.38437025  0.12900154  1
  O  O372  1  0.12548001  0.38187887  0.63506736  1
  O  O373  1  0.13175041  0.88027615  0.13331249  1
  O  O374  1  0.12990917  0.88215957  0.63208826  1
  O  O375  1  0.61070823  0.38536188  0.11159396  1
  O  O376  1  0.63257893  0.38215321  0.62456208  1
  O  O377  1  0.62815642  0.88343532  0.13758652  1
  O  O378  1  0.63119138  0.88264529  0.62394520  1
  O  O379  1  0.12491176  0.25594708  0.25999952  1
  O  O380  1  0.12678879  0.25729739  0.76202455  1
  O  O381  1  0.12490705  0.76531936  0.25344144  1
  O  O382  1  0.12540149  0.76259693  0.74524580  1
  O  O383  1  0.60756088  0.24579208  0.25200925  1
  O  O384  1  0.61974822  0.25701888  0.75313156  1
  O  O385  1  0.61563169  0.75167175  0.25612771  1
  O  O386  1  0.61433805  0.74866638  0.75671637  1
  O  O387  1  0.37232399  0.24421707  0.24835444  1
  O  O388  1  0.38342222  0.26000181  0.74068991  1
  O  O389  1  0.38027834  0.73884963  0.25844649  1
  O  O390  1  0.38410709  0.74152334  0.74769715  1
  O  O391  1  0.89838502  0.24237085  0.24918636  1
  O  O392  1  0.87069400  0.24048044  0.73998687  1
  O  O393  1  0.87293420  0.76010677  0.24846827  1
  O  O394  1  0.87103121  0.74675724  0.74610536  1
  O  O395  1  0.36948792  0.49478936  0.49030508  1
  O  O396  1  0.37376196  0.48670933  1.00392155  1
  O  O397  1  0.37278273  0.99242299  0.49327598  1
  O  O398  1  0.38179687  0.99315777  0.99477005  1
  O  O399  1  0.86403374  0.48238507  0.48668242  1
  O  O400  1  0.87797471  0.48924939  0.98779254  1
  O  O401  1  0.88867944  0.99515561  0.50831520  1
  O  O402  1  0.88207259  0.99626160  0.99935021  1
  O  O403  1  0.11775342  0.00971502  -0.00077933  1
  O  O404  1  0.11903772  0.00687706  0.50765827  1
  O  O405  1  0.12237809  0.50967262  0.00891622  1
  O  O406  1  0.12870801  0.50951101  0.50784449  1
  O  O407  1  0.61649435  0.00151292  0.01057861  1
  O  O408  1  0.62245841  0.00520068  0.50828769  1
  O  O409  1  0.62527196  0.50397809  -0.00216153  1
  O  O410  1  0.63751689  0.51151536  0.50385851  1
  O  O411  1  0.36780213  0.36885980  0.12398133  1
  O  O412  1  0.37549013  0.36874404  0.61595551  1
  O  O413  1  0.36568729  0.88247957  0.11657767  1
  O  O414  1  0.36617428  0.86950496  0.62096603  1
  O  O415  1  0.89331473  0.35383517  0.11380847  1
  O  O416  1  0.87337874  0.37077052  0.61900109  1
  O  O417  1  0.87677144  0.88036897  0.10819426  1
  O  O418  1  0.86821363  0.87596137  0.61596542  1
  O  O419  1  0.12501429  0.13186304  0.39037406  1
  O  O420  1  0.13123164  0.13078247  0.87875146  1
  O  O421  1  0.12938789  0.62527434  0.38081912  1
  O  O422  1  0.13475400  0.62116846  0.88172209  1
  O  O423  1  0.63620417  0.11989703  0.39022302  1
  O  O424  1  0.62970913  0.13515517  0.86913041  1
  O  O425  1  0.62148543  0.63515309  0.38347906  1
  O  O426  1  0.62278154  0.63315994  0.88568069  1
