# generated using pymatgen
data_V85Zn86O256
_symmetry_space_group_name_H-M   'P 1'
_cell_length_a   16.94921113
_cell_length_b   16.96424672
_cell_length_c   16.95422322
_cell_angle_alpha   89.97170676
_cell_angle_beta   90.02191790
_cell_angle_gamma   90.04098268
_symmetry_Int_Tables_number   1
_chemical_formula_structural   V85Zn86O256
_chemical_formula_sum   'V85 Zn86 O256'
_cell_volume   4874.85576626
_cell_formula_units_Z   1
loop_
 _symmetry_equiv_pos_site_id
 _symmetry_equiv_pos_as_xyz
  1  'x, y, z'
loop_
 _atom_site_type_symbol
 _atom_site_label
 _atom_site_symmetry_multiplicity
 _atom_site_fract_x
 _atom_site_fract_y
 _atom_site_fract_z
 _atom_site_occupancy
  V  V0  1  0.87296603  0.87412546  0.50075342  1
  V  V1  1  0.75140327  0.37538288  0.62615255  1
  V  V2  1  0.12111806  0.73696997  0.87173101  1
  V  V3  1  0.01361328  0.49960111  0.50183961  1
  V  V4  1  0.40337983  0.37909555  -0.01523894  1
  V  V5  1  0.50184915  0.87745142  0.87870471  1
  V  V6  1  0.13438138  -0.00247597  0.62375590  1
  V  V7  1  0.75023448  0.51264557  0.25570961  1
  V  V8  1  0.13100143  0.49931797  0.63772893  1
  V  V9  1  0.75251728  0.62395050  0.88206380  1
  V  V10  1  0.87483360  0.25152581  0.62521630  1
  V  V11  1  0.86958105  0.12670380  0.75057971  1
  V  V12  1  0.25831190  0.37557462  0.62740000  1
  V  V13  1  0.48605825  0.49853274  0.49575905  1
  V  V14  1  0.36501656  0.11795637  0.74510561  1
  V  V15  1  0.74709837  0.49968555  0.75329972  1
  V  V16  1  0.63100400  0.62241067  0.49505829  1
  V  V17  1  0.05646703  0.05866574  -0.04375576  1
  V  V18  1  0.87417952  0.00049596  0.88055206  1
  V  V19  1  0.88960189  0.62884158  0.24908816  1
  V  V20  1  0.74973479  0.87377796  0.62658951  1
  V  V21  1  0.62560302  0.49976499  0.62326111  1
  V  V22  1  0.87962463  0.74910593  0.63111513  1
  V  V23  1  0.87654360  0.37587151  0.49943820  1
  V  V24  1  0.74546427  0.12918512  0.89045502  1
  V  V25  1  0.37348674  0.62143890  0.25774591  1
  V  V26  1  0.11929915  0.25124473  0.37479729  1
  V  V27  1  0.49542109  0.24514938  0.24555914  1
  V  V28  1  0.68929038  0.04692283  0.19186434  1
  V  V29  1  0.37456368  0.87487222  0.00216527  1
  V  V30  1  0.24800580  0.62244037  0.38617312  1
  V  V31  1  0.36960836  0.74839323  0.12835451  1
  V  V32  1  0.74604412  0.12110603  0.37404401  1
  V  V33  1  -0.00323366  0.12300356  0.62169179  1
  V  V34  1  0.87972592  0.62289164  0.75151172  1
  V  V35  1  0.36641662  -0.00033978  0.87030589  1
  V  V36  1  0.62618715  0.87453660  0.75029308  1
  V  V37  1  0.62867448  0.74543696  0.87489207  1
  V  V38  1  0.63065174  0.74991818  0.37466887  1
  V  V39  1  0.25478955  0.25387504  0.49902080  1
  V  V40  1  0.49686921  0.62666973  0.62206589  1
  V  V41  1  0.00244436  0.51241635  0.00272664  1
  V  V42  1  0.50656432  0.23386713  0.74987151  1
  V  V43  1  0.36824122  0.00019921  0.37180247  1
  V  V44  1  0.38505848  0.24587508  0.61888086  1
  V  V45  1  0.62493914  0.87112414  0.23767212  1
  V  V46  1  0.11634702  -0.00587253  0.12723976  1
  V  V47  1  0.12449614  0.36949633  0.24766915  1
  V  V48  1  0.75074204  0.37919564  0.12443025  1
  V  V49  1  0.12631341  0.12557789  0.49765848  1
  V  V50  1  0.49617403  0.74913573  0.25445975  1
  V  V51  1  -0.00088305  0.37542767  0.37269275  1
  V  V52  1  0.87250319  0.50892287  0.37811523  1
  V  V53  1  0.62335815  0.51141003  0.12088455  1
  V  V54  1  0.62269460  0.25426219  0.37800468  1
  V  V55  1  0.75169749  0.75422425  0.00449531  1
  V  V56  1  0.50448317  0.01622921  0.01222130  1
  V  V57  1  0.87474420  0.25318260  0.12943121  1
  V  V58  1  0.48999913  0.74859952  0.75185641  1
  V  V59  1  0.49222167  0.87331210  0.37824145  1
  V  V60  1  0.37457338  0.75701919  0.61789229  1
  V  V61  1  0.12315656  0.51148480  0.12399289  1
  V  V62  1  0.62356017  0.38256101  0.25440045  1
  V  V63  1  0.00211858  0.87023450  0.87526493  1
  V  V64  1  0.12947565  0.87114931  0.74893060  1
  V  V65  1  0.24532111  0.73511272  -0.00138107  1
  V  V66  1  -0.00183434  -0.00261713  0.49726823  1
  V  V67  1  0.62178205  0.24943752  0.88991139  1
  V  V68  1  0.00395317  0.13070194  0.12811071  1
  V  V69  1  0.87701000  0.37422447  0.00095717  1
  V  V70  1  0.11857600  0.86686627  0.25214544  1
  V  V71  1  0.25177808  0.49944487  0.25776023  1
  V  V72  1  0.74954813  0.74690728  0.50021716  1
  V  V73  1  0.25662727  0.37475616  0.11496764  1
  V  V74  1  0.62129936  0.00269132  0.62663462  1
  V  V75  1  0.49221433  -0.00161998  0.50267650  1
  V  V76  1  0.11609489  0.74303342  0.37909332  1
  V  V77  1  0.61952296  0.37058337  0.75207035  1
  V  V78  1  0.88990320  0.74876725  0.12865219  1
  V  V79  1  0.48224377  0.37845166  0.37913934  1
  V  V80  1  0.00656592  0.62520807  0.62432409  1
  V  V81  1  0.88063154  0.12692519  0.25226503  1
  V  V82  1  0.86837143  -0.00357295  0.36965123  1
  V  V83  1  0.61935008  0.12415004  0.50304067  1
  V  V84  1  0.24924307  0.76049449  0.49808897  1
  Zn  Zn85  1  0.13764671  0.36056263  0.77063655  1
  Zn  Zn86  1  0.23365650  0.12741942  0.87764326  1
  Zn  Zn87  1  0.56446339  0.57638076  -0.04367379  1
  Zn  Zn88  1  -0.00650999  0.86626990  0.37167547  1
  Zn  Zn89  1  0.24860508  0.13155680  0.36204711  1
  Zn  Zn90  1  0.37628116  0.24282698  0.11605713  1
  Zn  Zn91  1  0.38739683  0.50910469  0.88362470  1
  Zn  Zn92  1  0.75263284  0.87588030  0.12787867  1
  Zn  Zn93  1  0.01538685  0.36791447  0.88446736  1
  Zn  Zn94  1  0.25783482  0.88002798  0.62700809  1
  Zn  Zn95  1  0.28364988  0.50587879  0.75021901  1
  Zn  Zn96  1  0.74854396  0.25009972  0.49845330  1
  Zn  Zn97  1  0.00688483  0.25080568  0.76571629  1
  Zn  Zn98  1  0.88100408  0.87952473  0.00578568  1
  Zn  Zn99  1  0.26658166  0.62836545  0.85346813  1
  Zn  Zn100  1  0.74790345  -0.00002934  0.75335180  1
  Zn  Zn101  1  0.36809351  0.12128865  0.23897185  1
  Zn  Zn102  1  0.49437956  0.61994380  0.12164360  1
  Zn  Zn103  1  0.18242335  0.27447593  -0.05164786  1
  Zn  Zn104  1  0.24576174  0.00513241  0.24409323  1
  Zn  Zn105  1  0.87824854  0.49534455  0.87614129  1
  Zn  Zn106  1  0.24694545  0.87528864  0.12622623  1
  Zn  Zn107  1  0.18871428  0.19020801  0.15186949  1
  Zn  Zn108  1  0.19237477  0.18752633  0.68999050  1
  Zn  Zn109  1  0.18886306  0.68872253  0.19368364  1
  Zn  Zn110  1  0.18744670  0.68976266  0.68846734  1
  Zn  Zn111  1  0.68485534  0.20814973  0.18749343  1
  Zn  Zn112  1  0.69016481  0.18531776  0.68618252  1
  Zn  Zn113  1  0.69429461  0.68968441  0.19073591  1
  Zn  Zn114  1  0.68650182  0.68527498  0.68928310  1
  Zn  Zn115  1  0.30836984  0.31139429  0.30946103  1
  Zn  Zn116  1  0.31787957  0.30925088  0.81567146  1
  Zn  Zn117  1  0.30539210  0.81506032  0.31267269  1
  Zn  Zn118  1  0.30885047  0.81097917  0.81284943  1
  Zn  Zn119  1  0.80995815  0.31582854  0.31090801  1
  Zn  Zn120  1  0.81113405  0.31066714  0.81477273  1
  Zn  Zn121  1  0.80912534  0.81210230  0.30727769  1
  Zn  Zn122  1  0.81550932  0.81315407  0.81186739  1
  Zn  Zn123  1  0.19089052  0.43418141  0.44156076  1
  Zn  Zn124  1  0.19415556  0.45483266  0.93397860  1
  Zn  Zn125  1  0.18460155  0.93444398  0.43487423  1
  Zn  Zn126  1  0.19170227  0.92805547  0.93591644  1
  Zn  Zn127  1  0.68802086  0.43826104  0.43875127  1
  Zn  Zn128  1  0.68614088  0.43319369  0.93854292  1
  Zn  Zn129  1  0.68350499  0.93462578  0.43520816  1
  Zn  Zn130  1  0.68724268  0.93800692  0.94347696  1
  Zn  Zn131  1  0.30794495  0.06217749  0.06478631  1
  Zn  Zn132  1  0.31291974  0.06917770  0.55729701  1
  Zn  Zn133  1  0.31496382  0.55615440  0.06439267  1
  Zn  Zn134  1  0.31161071  0.57010558  0.57009224  1
  Zn  Zn135  1  0.82036329  0.06572967  0.06035001  1
  Zn  Zn136  1  0.80622384  0.06180363  0.56045974  1
  Zn  Zn137  1  0.81563069  0.56491535  0.06533904  1
  Zn  Zn138  1  0.81426408  0.56184530  0.56332309  1
  Zn  Zn139  1  0.43812313  0.43828284  0.19026446  1
  Zn  Zn140  1  0.44091284  0.42600214  0.68086944  1
  Zn  Zn141  1  0.43835854  0.93777861  0.18708916  1
  Zn  Zn142  1  0.44014994  0.93671616  0.68794553  1
  Zn  Zn143  1  0.94037951  0.44207671  0.18961494  1
  Zn  Zn144  1  0.94426413  0.43412335  0.69578501  1
  Zn  Zn145  1  0.93891624  0.93655445  0.18871518  1
  Zn  Zn146  1  0.94055542  0.93721968  0.69155979  1
  Zn  Zn147  1  0.06156372  0.06067074  0.31128039  1
  Zn  Zn148  1  0.05745289  0.05772580  0.79251465  1
  Zn  Zn149  1  0.06644097  0.55963607  0.31352399  1
  Zn  Zn150  1  0.06010800  0.55571887  0.81381062  1
  Zn  Zn151  1  0.55500142  0.06316642  0.31804945  1
  Zn  Zn152  1  0.56159204  0.06271475  0.81969240  1
  Zn  Zn153  1  0.55966755  0.56373828  0.31482113  1
  Zn  Zn154  1  0.50858061  0.54443267  0.78774180  1
  Zn  Zn155  1  0.43692679  0.18303019  0.43167873  1
  Zn  Zn156  1  0.39247092  0.16975789  0.95911798  1
  Zn  Zn157  1  0.43587958  0.68587483  0.43920092  1
  Zn  Zn158  1  0.43492252  0.68843734  0.94217487  1
  Zn  Zn159  1  0.93679453  0.18884353  0.43784000  1
  Zn  Zn160  1  0.92977446  0.19710617  0.94031585  1
  Zn  Zn161  1  0.93650328  0.68338139  0.44353834  1
  Zn  Zn162  1  0.93739227  0.69113969  0.93854595  1
  Zn  Zn163  1  0.06066823  0.31273526  0.06665674  1
  Zn  Zn164  1  0.08023287  0.29729740  0.59552650  1
  Zn  Zn165  1  0.06322660  0.81273098  0.05508163  1
  Zn  Zn166  1  0.06324654  0.81083617  0.56046478  1
  Zn  Zn167  1  0.56461444  0.31725357  0.06625597  1
  Zn  Zn168  1  0.56002852  0.31452731  0.56200952  1
  Zn  Zn169  1  0.55437284  0.78589113  0.05558178  1
  Zn  Zn170  1  0.56192090  0.81471335  0.56105117  1
  O  O171  1  0.10817955  0.11154169  0.13660163  1
  O  O172  1  0.11931126  0.11450406  0.61721798  1
  O  O173  1  0.13061886  0.60965061  0.13385209  1
  O  O174  1  0.11196559  0.61819815  0.62846739  1
  O  O175  1  0.63771131  0.11346153  0.14055463  1
  O  O176  1  0.63064575  0.11434458  0.61547670  1
  O  O177  1  0.62739917  0.61297193  0.13514877  1
  O  O178  1  0.61835572  0.62263562  0.61467841  1
  O  O179  1  0.38354676  0.37109639  0.37616385  1
  O  O180  1  0.38314889  0.37691846  0.88335162  1
  O  O181  1  0.38573117  0.87933378  0.37064475  1
  O  O182  1  0.38221234  0.87769844  0.87882561  1
  O  O183  1  0.88202581  0.38276710  0.37661829  1
  O  O184  1  0.86733328  0.37504180  0.89339036  1
  O  O185  1  0.87324415  0.88116685  0.37894156  1
  O  O186  1  0.88382917  0.88500377  0.87065300  1
  O  O187  1  0.26159982  -0.00099814  0.37879222  1
  O  O188  1  0.26436038  -0.00301789  0.87584833  1
  O  O189  1  0.24171863  0.50785025  0.36825204  1
  O  O190  1  0.26439984  0.51023476  0.86928958  1
  O  O191  1  0.75764048  0.00628637  0.38157921  1
  O  O192  1  0.75468694  0.01101379  0.87442636  1
  O  O193  1  0.76126141  0.49420822  0.36814585  1
  O  O194  1  0.75017842  0.50872281  0.87180647  1
  O  O195  1  0.24116965  0.49236527  0.13386082  1
  O  O196  1  0.24735430  0.49279681  0.62340286  1
  O  O197  1  0.23047720  0.99551377  0.12081770  1
  O  O198  1  0.23761426  0.99742272  0.60980759  1
  O  O199  1  0.74378851  0.50019396  0.13639319  1
  O  O200  1  0.74471311  0.49606414  0.63183042  1
  O  O201  1  0.74988318  0.99727823  0.12465894  1
  O  O202  1  0.73824477  0.99202821  0.62549545  1
  O  O203  1  0.00823521  0.38392790  0.26459331  1
  O  O204  1  0.00732507  0.37157394  0.76285167  1
  O  O205  1  0.01310907  0.87602564  0.25513713  1
  O  O206  1  0.01215119  0.88431636  0.76377998  1
  O  O207  1  0.50470227  0.37216787  0.26189930  1
  O  O208  1  0.51638932  0.35856131  0.74248841  1
  O  O209  1  0.50521225  0.86879678  0.25872051  1
  O  O210  1  0.50684208  0.86640344  0.75718378  1
  O  O211  1  0.50200412  0.14360846  0.25647009  1
  O  O212  1  0.50102605  0.13109613  0.74581611  1
  O  O213  1  0.48946760  0.63146393  0.25160475  1
  O  O214  1  0.51609956  0.64061839  0.73214967  1
  O  O215  1  0.98672930  0.12289748  0.24587644  1
  O  O216  1  0.98549418  0.12901655  0.73932580  1
  O  O217  1  0.98864403  0.61890613  0.25384380  1
  O  O218  1  0.98597071  0.61460670  0.74199147  1
  O  O219  1  0.38659895  0.27482995  0.00548801  1
  O  O220  1  0.36840697  0.23695904  0.50758360  1
  O  O221  1  0.36663914  0.75570891  0.01141505  1
  O  O222  1  0.36621458  0.74749403  0.50700282  1
  O  O223  1  0.87269306  0.26031475  0.01905166  1
  O  O224  1  0.86971769  0.25753035  0.50374976  1
  O  O225  1  0.86906398  0.75214695  0.01150148  1
  O  O226  1  0.86815967  0.75375114  0.50914350  1
  O  O227  1  0.13175324  0.24471780  0.49781145  1
  O  O228  1  0.13860095  0.23711176  1.04373923  1
  O  O229  1  0.13470876  0.75095984  0.49139055  1
  O  O230  1  0.13514235  0.75553934  0.98675498  1
  O  O231  1  0.62393265  0.24261713  0.49425710  1
  O  O232  1  0.62340784  0.25474631  0.98896631  1
  O  O233  1  0.62910175  0.74370234  0.49403928  1
  O  O234  1  0.64350474  0.75980484  0.98835807  1
  O  O235  1  0.50205221  0.26005740  0.14374107  1
  O  O236  1  0.49088430  0.25013597  0.62890252  1
  O  O237  1  0.48187863  0.75156490  0.13922052  1
  O  O238  1  0.49571821  0.74663414  0.62828504  1
  O  O239  1  0.98816048  0.24074405  0.13079322  1
  O  O240  1  0.98197570  0.24010994  0.61344545  1
  O  O241  1  0.98828384  0.75047211  0.11935490  1
  O  O242  1  0.99050633  0.73887187  0.61757095  1
  O  O243  1  0.01100944  0.25966235  0.38181871  1
  O  O244  1  0.00174245  0.25231263  0.87936836  1
  O  O245  1  0.01123126  0.74754244  0.38486495  1
  O  O246  1  0.00782057  0.75728137  0.87582069  1
  O  O247  1  0.50816506  0.25834491  0.37174831  1
  O  O248  1  0.52173352  0.24360290  0.86365217  1
  O  O249  1  0.50605421  0.75669521  0.37420617  1
  O  O250  1  0.50986754  0.75861831  0.86688587  1
  O  O251  1  0.24192891  0.13651120  0.49388141  1
  O  O252  1  0.28493975  0.13039526  0.97951491  1
  O  O253  1  0.25444863  0.63215238  0.48925957  1
  O  O254  1  0.25500204  0.63482469  1.00291598  1
  O  O255  1  0.73690447  0.12723481  0.49278724  1
  O  O256  1  0.75272642  0.12633966  0.98872769  1
  O  O257  1  0.73908312  0.62966331  0.50458022  1
  O  O258  1  0.75995659  0.63300081  0.98766785  1
  O  O259  1  0.24611615  0.37558574  0.01406822  1
  O  O260  1  0.25137763  0.36096230  0.50653798  1
  O  O261  1  0.26389375  0.86508846  0.00024599  1
  O  O262  1  0.24876154  0.86372233  0.50087592  1
  O  O263  1  0.76074330  0.38829396  0.01768292  1
  O  O264  1  0.75718849  0.37470615  0.50862210  1
  O  O265  1  0.75839929  0.86849178  0.00317279  1
  O  O266  1  0.75415205  0.86867796  0.50656988  1
  O  O267  1  0.13145006  0.49266284  0.24296320  1
  O  O268  1  0.12325205  0.49263301  0.73962205  1
  O  O269  1  0.12270988  0.98716039  0.24511458  1
  O  O270  1  0.12440078  0.99097867  0.73236361  1
  O  O271  1  0.63376513  0.49969404  0.24906703  1
  O  O272  1  0.62696198  0.48812561  0.74188814  1
  O  O273  1  0.62178980  0.99196297  0.25024140  1
  O  O274  1  0.62347203  0.99404787  0.74280841  1
  O  O275  1  0.37084477  -0.00174252  0.25870572  1
  O  O276  1  0.37974545  0.00929076  0.75196258  1
  O  O277  1  0.36288320  0.50857545  0.24747994  1
  O  O278  1  0.40161464  0.49974100  0.75322403  1
  O  O279  1  0.87787695  0.00664324  0.26290616  1
  O  O280  1  0.87519307  0.00919840  0.76091524  1
  O  O281  1  0.87006637  0.50754585  0.25748292  1
  O  O282  1  0.86615413  0.50609499  0.75272829  1
  O  O283  1  0.11749177  0.37090169  0.37222006  1
  O  O284  1  0.13440398  0.37002608  0.88716087  1
  O  O285  1  0.12033099  0.86543501  0.36686363  1
  O  O286  1  0.12027242  0.86886005  0.86628112  1
  O  O287  1  0.62252409  0.36789161  0.37254165  1
  O  O288  1  0.63848148  0.35750796  0.86542787  1
  O  O289  1  0.61430364  0.86730541  0.36802127  1
  O  O290  1  0.62026758  0.86777102  0.86995449  1
  O  O291  1  0.37516929  0.12939651  0.12651422  1
  O  O292  1  0.37379814  0.12912010  0.63617418  1
  O  O293  1  0.37318416  0.63075790  0.13728320  1
  O  O294  1  0.39098952  0.63820482  0.62051309  1
  O  O295  1  0.88028584  0.13111148  0.13374358  1
  O  O296  1  0.87337953  0.12970568  0.63024482  1
  O  O297  1  0.87300313  0.63899239  0.13469856  1
  O  O298  1  0.88048884  0.63041402  0.63234629  1
  O  O299  1  0.26372459  0.27444144  0.14434992  1
  O  O300  1  0.26190805  0.25496387  0.61781355  1
  O  O301  1  0.25569221  0.75126171  0.12044917  1
  O  O302  1  0.25837129  0.75119271  0.61478795  1
  O  O303  1  0.75805074  0.26743066  0.13019902  1
  O  O304  1  0.76096698  0.25449422  0.62220698  1
  O  O305  1  0.75682693  0.75157865  0.11660040  1
  O  O306  1  0.75700974  0.75390845  0.62064738  1
  O  O307  1  0.23717596  0.25302076  0.38188628  1
  O  O308  1  0.23826482  0.24184931  0.85699979  1
  O  O309  1  0.24195505  0.74359263  0.38204238  1
  O  O310  1  0.24199368  0.74480211  0.88136889  1
  O  O311  1  0.73597711  0.24487849  0.37276430  1
  O  O312  1  0.74152546  0.23529246  0.87113335  1
  O  O313  1  0.73730144  0.75572015  0.38167769  1
  O  O314  1  0.74800576  0.74509148  0.87978710  1
  O  O315  1  -0.00784952  0.12226531  0.01124746  1
  O  O316  1  0.00349824  0.11663217  0.50264921  1
  O  O317  1  -0.00545617  0.61088500  0.00040840  1
  O  O318  1  -0.00904036  0.61020341  0.51360909  1
  O  O319  1  0.49149723  0.11384762  -0.00635651  1
  O  O320  1  0.51238277  0.11498893  0.49242313  1
  O  O321  1  0.51678333  0.66087023  0.01543495  1
  O  O322  1  0.51047292  0.61992942  0.50353304  1
  O  O323  1  0.50506459  0.38706953  0.49137765  1
  O  O324  1  0.50206877  0.38278396  0.99822880  1
  O  O325  1  0.50615937  0.88572966  0.48945358  1
  O  O326  1  0.48857888  0.86476488  0.99152412  1
  O  O327  1  0.99348360  0.38439624  0.48930640  1
  O  O328  1  0.99048453  0.38318849  1.00676269  1
  O  O329  1  0.99064094  0.88186286  0.49760713  1
  O  O330  1  0.99757822  0.87450601  0.98260565  1
  O  O331  1  0.50346313  0.49036028  0.38365650  1
  O  O332  1  0.50831512  0.50770700  0.88996668  1
  O  O333  1  0.48929336  0.99240528  0.38112412  1
  O  O334  1  0.49329179  0.98549519  0.87484898  1
  O  O335  1  0.99492876  0.49557055  0.38393263  1
  O  O336  1  0.99982547  0.49411469  0.89254657  1
  O  O337  1  0.98996621  0.99961254  0.38585917  1
  O  O338  1  0.99513581  1.00130533  0.88113370  1
  O  O339  1  0.00772757  0.00612849  0.12518922  1
  O  O340  1  0.00245717  0.00371792  0.61292135  1
  O  O341  1  0.01438256  0.49794370  0.11916128  1
  O  O342  1  0.00857282  0.50289029  0.61994758  1
  O  O343  1  0.49703852  -0.00169070  0.11111650  1
  O  O344  1  0.51228141  -0.00767232  0.61580380  1
  O  O345  1  0.51859392  0.50287304  0.13370411  1
  O  O346  1  0.50817843  0.50794961  0.61497065  1
  O  O347  1  0.24230459  0.38637357  0.25102621  1
  O  O348  1  0.25526018  0.37864828  0.73733973  1
  O  O349  1  0.23375481  0.87971070  0.24833858  1
  O  O350  1  0.23650036  0.87192139  0.74570264  1
  O  O351  1  0.74544746  0.38822287  0.24344288  1
  O  O352  1  0.74412631  0.37894312  0.74422114  1
  O  O353  1  0.73435741  0.87427807  0.24704660  1
  O  O354  1  0.74450577  0.87793426  0.74465283  1
  O  O355  1  0.24588381  0.12363342  0.24526631  1
  O  O356  1  0.26238129  0.12035390  0.75108470  1
  O  O357  1  0.25509698  0.61832621  0.26114555  1
  O  O358  1  0.24997266  0.61539175  0.73939179  1
  O  O359  1  0.75045470  0.11445252  0.25047438  1
  O  O360  1  0.76065886  0.12125649  0.75339920  1
  O  O361  1  0.76048514  0.61614916  0.25304318  1
  O  O362  1  0.75766996  0.62074171  0.75944162  1
  O  O363  1  0.37154969  0.11424670  0.36595976  1
  O  O364  1  0.38659432  0.11221299  0.85396024  1
  O  O365  1  0.36595560  0.63043992  0.36459364  1
  O  O366  1  0.38130405  0.62691745  0.87130870  1
  O  O367  1  0.86741828  0.12118715  0.36822981  1
  O  O368  1  0.86403344  0.12215878  0.86968843  1
  O  O369  1  0.87734147  0.61430117  0.37142289  1
  O  O370  1  0.87051431  0.62424999  0.86656249  1
  O  O371  1  0.13452749  0.38500713  0.13538634  1
  O  O372  1  0.14331073  0.38890830  0.61693883  1
  O  O373  1  0.12069959  0.87630361  0.13513613  1
  O  O374  1  0.12337279  0.88106728  0.63039177  1
  O  O375  1  0.63356486  0.38747870  0.13357859  1
  O  O376  1  0.63329285  0.37765009  0.63001458  1
  O  O377  1  0.61980299  0.86028836  0.13674870  1
  O  O378  1  0.63008879  0.88006901  0.63058060  1
  O  O379  1  0.12717855  0.26547726  0.25957673  1
  O  O380  1  0.11123344  0.26056613  0.71008032  1
  O  O381  1  0.12742101  0.75933152  0.26042015  1
  O  O382  1  0.12373657  0.75942245  0.75748442  1
  O  O383  1  0.61451687  0.26115635  0.25987473  1
  O  O384  1  0.62214699  0.25270150  0.74834108  1
  O  O385  1  0.61947445  0.75267311  0.25879722  1
  O  O386  1  0.62184914  0.75720802  0.75680127  1
  O  O387  1  0.39023227  0.25165315  0.25455776  1
  O  O388  1  0.38628751  0.23602549  0.74321078  1
  O  O389  1  0.37240548  0.74393522  0.24582518  1
  O  O390  1  0.38701538  0.75456940  0.74368987  1
  O  O391  1  0.86574090  0.23827059  0.24417874  1
  O  O392  1  0.87473994  0.24327068  0.74130997  1
  O  O393  1  0.87310139  0.74352886  0.23932284  1
  O  O394  1  0.87077395  0.74082407  0.73791171  1
  O  O395  1  0.38769494  0.50949345  0.50376063  1
  O  O396  1  0.37479714  0.48131217  1.00354673  1
  O  O397  1  0.38720221  1.00668369  0.49408353  1
  O  O398  1  0.38643624  0.98812653  0.98951047  1
  O  O399  1  0.88007673  0.49446400  0.49373835  1
  O  O400  1  0.88788799  0.49423576  1.00607211  1
  O  O401  1  0.87871576  0.99525211  0.49284079  1
  O  O402  1  0.87363086  0.99849066  0.98557481  1
  O  O403  1  0.12103700  -0.00804345  0.00647742  1
  O  O404  1  0.11455198  0.00302269  0.50061327  1
  O  O405  1  0.11582695  0.50026033  0.01447728  1
  O  O406  1  0.11626044  0.49893850  0.50613907  1
  O  O407  1  0.60250944  -0.00398797  -0.00928617  1
  O  O408  1  0.61702665  0.00555781  0.50510600  1
  O  O409  1  0.63623740  0.50458072  0.01764573  1
  O  O410  1  0.62246208  0.50860605  0.50419388  1
  O  O411  1  0.36373028  0.38192468  0.12360975  1
  O  O412  1  0.36967968  0.36056936  0.62068653  1
  O  O413  1  0.37115959  0.86759394  0.11867324  1
  O  O414  1  0.37657560  0.86243475  0.62741976  1
  O  O415  1  0.87103424  0.37122260  0.12625844  1
  O  O416  1  0.87249429  0.36837048  0.62211982  1
  O  O417  1  0.87482071  0.86307900  0.12760197  1
  O  O418  1  0.87236839  0.86727337  0.62340897  1
  O  O419  1  0.12209072  0.13464296  0.37951355  1
  O  O420  1  0.11645188  0.10373218  0.88214526  1
  O  O421  1  0.13442280  0.63325300  0.37007580  1
  O  O422  1  0.12224959  0.63569254  0.86750162  1
  O  O423  1  0.62769991  0.13203078  0.38032472  1
  O  O424  1  0.63827076  0.13360187  0.87203539  1
  O  O425  1  0.62005040  0.63652126  0.38391680  1
  O  O426  1  0.63617110  0.63946473  0.87608456  1
