# generated using pymatgen
data_V85Zn86O256
_symmetry_space_group_name_H-M   'P 1'
_cell_length_a   16.94569014
_cell_length_b   16.95312598
_cell_length_c   16.92320321
_cell_angle_alpha   89.96493416
_cell_angle_beta   89.98290001
_cell_angle_gamma   89.95537463
_symmetry_Int_Tables_number   1
_chemical_formula_structural   V85Zn86O256
_chemical_formula_sum   'V85 Zn86 O256'
_cell_volume   4861.73616505
_cell_formula_units_Z   1
loop_
 _symmetry_equiv_pos_site_id
 _symmetry_equiv_pos_as_xyz
  1  'x, y, z'
loop_
 _atom_site_type_symbol
 _atom_site_label
 _atom_site_symmetry_multiplicity
 _atom_site_fract_x
 _atom_site_fract_y
 _atom_site_fract_z
 _atom_site_occupancy
  V  V0  1  0.37943098  0.88484459  0.00530940  1
  V  V1  1  0.62693403  0.37207279  0.75092381  1
  V  V2  1  0.62390965  0.12243636  0.49977654  1
  V  V3  1  0.01537864  0.26072215  0.75356423  1
  V  V4  1  0.74939669  -0.00089645  0.24285690  1
  V  V5  1  0.24762897  0.12291608  0.88450380  1
  V  V6  1  0.11761339  0.37583597  0.25950060  1
  V  V7  1  0.39779883  0.25107811  0.12117816  1
  V  V8  1  0.62377796  0.62462223  0.50447826  1
  V  V9  1  0.25009706  0.24752137  0.50137375  1
  V  V10  1  0.50675951  0.62745069  0.12366896  1
  V  V11  1  0.12063816  0.12272512  0.00259795  1
  V  V12  1  0.20632831  0.28373829  -0.02003669  1
  V  V13  1  0.76478480  0.87097962  0.62558587  1
  V  V14  1  -0.00584576  0.75399322  0.74718440  1
  V  V15  1  0.74715609  0.49754675  0.25014403  1
  V  V16  1  0.75083721  0.12488090  0.37341847  1
  V  V17  1  -0.00695757  0.00029886  -0.02269715  1
  V  V18  1  0.50085464  0.37070211  0.37093571  1
  V  V19  1  0.26055740  0.87489570  0.61795251  1
  V  V20  1  0.50676327  0.50783640  -0.00099971  1
  V  V21  1  -0.00707774  0.00080111  0.50304103  1
  V  V22  1  0.37508457  0.37194118  0.50094583  1
  V  V23  1  0.87227708  -0.00310772  0.37595994  1
  V  V24  1  0.11950248  0.62954708  0.49711141  1
  V  V25  1  0.37427839  0.25178694  0.62562157  1
  V  V26  1  0.10813927  0.00199694  0.12836100  1
  V  V27  1  -0.00520866  0.87665777  0.38139632  1
  V  V28  1  0.24608603  0.49881179  0.24924439  1
  V  V29  1  0.12526875  0.12383922  0.49869417  1
  V  V30  1  0.87662381  0.62493965  0.74737354  1
  V  V31  1  0.25651164  0.48393118  0.73971594  1
  V  V32  1  0.12038358  0.62316650  0.00065257  1
  V  V33  1  0.24546923  0.87732053  0.12446846  1
  V  V34  1  0.76070021  0.75082712  0.50569802  1
  V  V35  1  0.25743085  0.63167011  0.85774798  1
  V  V36  1  0.50212027  0.37579488  0.87502981  1
  V  V37  1  0.48939946  -0.01360163  0.48869078  1
  V  V38  1  0.62629513  0.74654726  0.88501030  1
  V  V39  1  0.24786912  0.12778388  0.36047911  1
  V  V40  1  0.25337542  -0.00062119  0.75145638  1
  V  V41  1  0.12690456  -0.00211487  0.62340003  1
  V  V42  1  0.28022220  -0.02598109  0.26768260  1
  V  V43  1  0.62181529  0.50173739  0.62825625  1
  V  V44  1  0.75263028  0.37185821  0.62603067  1
  V  V45  1  0.37402489  0.75101746  0.12814375  1
  V  V46  1  -0.00353805  0.62996591  0.62020843  1
  V  V47  1  0.61942934  0.24592839  0.36994815  1
  V  V48  1  0.63178642  0.24637648  0.88048039  1
  V  V49  1  0.76034285  0.00020843  0.75554141  1
  V  V50  1  0.38866115  0.13652488  0.24773945  1
  V  V51  1  0.12300923  0.75125667  0.37382648  1
  V  V52  1  -0.00273557  0.50032964  0.49567596  1
  V  V53  1  0.87707134  0.24118544  0.11474565  1
  V  V54  1  0.49964703  0.50011113  0.50425300  1
  V  V55  1  0.50102107  0.12091125  0.62476600  1
  V  V56  1  0.24932111  0.74987387  -0.00078799  1
  V  V57  1  -0.00568358  0.24773990  0.25689534  1
  V  V58  1  0.12024167  0.75155048  0.87261545  1
  V  V59  1  0.50152948  0.24815453  0.75063775  1
  V  V60  1  0.61548313  0.75622656  0.38217283  1
  V  V61  1  0.87333528  0.49396264  0.37248034  1
  V  V62  1  0.11601558  0.87649626  0.24910403  1
  V  V63  1  0.50175195  0.88197099  0.87934262  1
  V  V64  1  0.37310747  0.49832205  0.37463688  1
  V  V65  1  0.11242917  0.50129319  0.12436656  1
  V  V66  1  0.75104595  0.62272166  0.88192137  1
  V  V67  1  0.27048225  0.74655609  0.49844800  1
  V  V68  1  0.88137973  0.86860357  -0.00642246  1
  V  V69  1  0.75026512  0.36953602  0.11743280  1
  V  V70  1  0.61212336  0.12224897  0.00535324  1
  V  V71  1  0.12388064  0.87583323  0.75228069  1
  V  V72  1  0.37405458  0.62421043  0.25054737  1
  V  V73  1  0.75410461  0.49881709  0.75390791  1
  V  V74  1  0.87842955  0.37170307  0.49882394  1
  V  V75  1  0.61999262  0.36963592  0.24579182  1
  V  V76  1  0.37392190  0.12346491  0.75246223  1
  V  V77  1  0.75766893  0.12031621  0.88455508  1
  V  V78  1  0.60669789  -0.00267803  0.12264436  1
  V  V79  1  0.62656498  0.87368901  0.75330363  1
  V  V80  1  0.88198217  0.38125664  -0.00444275  1
  V  V81  1  0.49820678  0.73752952  0.75048666  1
  V  V82  1  0.62647927  -0.00413042  0.62566776  1
  V  V83  1  0.37904164  0.37798276  -0.00059754  1
  V  V84  1  0.75280427  0.74750415  0.01124563  1
  Zn  Zn85  1  0.89806130  0.50028504  0.87667524  1
  Zn  Zn86  1  0.12655777  0.49082759  0.63000076  1
  Zn  Zn87  1  0.88131378  0.12897863  0.75331991  1
  Zn  Zn88  1  0.62206884  0.87592275  0.25637921  1
  Zn  Zn89  1  0.49848938  0.74978090  0.26050913  1
  Zn  Zn90  1  0.38140297  0.51147076  0.86880099  1
  Zn  Zn91  1  0.87968994  0.24810666  0.62844932  1
  Zn  Zn92  1  0.38214751  0.74862977  0.63543512  1
  Zn  Zn93  1  0.03360908  0.37437040  0.88227914  1
  Zn  Zn94  1  0.74582404  0.62314432  0.37543372  1
  Zn  Zn95  1  -0.01199007  0.63397600  0.12015575  1
  Zn  Zn96  1  0.24365769  0.62110805  0.37166395  1
  Zn  Zn97  1  0.38072256  0.00443759  0.88457241  1
  Zn  Zn98  1  0.75108912  0.24785173  0.50088430  1
  Zn  Zn99  1  -0.01632053  0.75133170  0.23985988  1
  Zn  Zn100  1  0.62648682  0.50214536  0.12186554  1
  Zn  Zn101  1  0.75407259  0.87244576  0.12654686  1
  Zn  Zn102  1  0.86988244  0.63015307  0.24023560  1
  Zn  Zn103  1  -0.00270090  0.12797505  0.62871659  1
  Zn  Zn104  1  0.24999547  0.37347568  0.12662363  1
  Zn  Zn105  1  0.11882836  0.25430357  0.37726860  1
  Zn  Zn106  1  0.88148857  0.12053757  0.24396640  1
  Zn  Zn107  1  0.18409965  0.19645374  0.17461697  1
  Zn  Zn108  1  0.18810148  0.18695103  0.68656348  1
  Zn  Zn109  1  0.17947034  0.69002487  0.18827941  1
  Zn  Zn110  1  0.18303478  0.68966628  0.67948935  1
  Zn  Zn111  1  0.68850833  0.18577114  0.18486752  1
  Zn  Zn112  1  0.69126455  0.18420632  0.69100392  1
  Zn  Zn113  1  0.68616391  0.68504603  0.19385716  1
  Zn  Zn114  1  0.68647563  0.68721567  0.69083491  1
  Zn  Zn115  1  0.30946979  0.31265487  0.31163790  1
  Zn  Zn116  1  0.31220836  0.31136396  0.81756621  1
  Zn  Zn117  1  0.32504744  0.80594754  0.33338399  1
  Zn  Zn118  1  0.31569895  0.81613052  0.81336804  1
  Zn  Zn119  1  0.80933758  0.31182384  0.31080843  1
  Zn  Zn120  1  0.81708209  0.30534066  0.81267324  1
  Zn  Zn121  1  0.80315300  0.81462891  0.31942413  1
  Zn  Zn122  1  0.81376911  0.81260120  0.81822756  1
  Zn  Zn123  1  0.17276740  0.42362690  0.46237330  1
  Zn  Zn124  1  0.19505572  0.45537864  0.93466463  1
  Zn  Zn125  1  0.18699613  0.93702680  0.43716658  1
  Zn  Zn126  1  0.18585367  0.94017818  0.93755610  1
  Zn  Zn127  1  0.68797102  0.43257358  0.43812737  1
  Zn  Zn128  1  0.69068855  0.43736455  0.93909054  1
  Zn  Zn129  1  0.68839311  0.93522745  0.44266900  1
  Zn  Zn130  1  0.69003285  0.93646157  0.94294173  1
  Zn  Zn131  1  0.30875797  0.06282064  0.07524248  1
  Zn  Zn132  1  0.31392281  0.06363515  0.55991724  1
  Zn  Zn133  1  0.31084655  0.56309656  0.06217746  1
  Zn  Zn134  1  0.31351174  0.57116008  0.56078032  1
  Zn  Zn135  1  0.81501301  0.05953453  0.05780673  1
  Zn  Zn136  1  0.81267550  0.06385996  0.56592760  1
  Zn  Zn137  1  0.81357024  0.55848803  0.06463804  1
  Zn  Zn138  1  0.81198151  0.56176457  0.56419719  1
  Zn  Zn139  1  0.43877089  0.43885913  0.18527067  1
  Zn  Zn140  1  0.43480286  0.43782586  0.68896021  1
  Zn  Zn141  1  0.43551863  0.93187231  0.20914707  1
  Zn  Zn142  1  0.44048642  0.93524588  0.68974197  1
  Zn  Zn143  1  0.93574461  0.43428043  0.18701298  1
  Zn  Zn144  1  0.94162161  0.43771436  0.68811022  1
  Zn  Zn145  1  0.93114542  0.93114396  0.18444218  1
  Zn  Zn146  1  0.94010239  0.94009677  0.69085132  1
  Zn  Zn147  1  0.06143106  0.06506899  0.31215035  1
  Zn  Zn148  1  0.06690694  0.06994705  0.81017108  1
  Zn  Zn149  1  0.05385862  0.56470737  0.31085801  1
  Zn  Zn150  1  0.06994179  0.55812312  0.80968162  1
  Zn  Zn151  1  0.56138874  0.05936014  0.31090137  1
  Zn  Zn152  1  0.56696917  0.06125194  0.81335371  1
  Zn  Zn153  1  0.56228666  0.56228026  0.31516102  1
  Zn  Zn154  1  0.56847764  0.56275944  0.81620010  1
  Zn  Zn155  1  0.43879690  0.17904926  0.43468882  1
  Zn  Zn156  1  0.43779843  0.18899899  0.93758614  1
  Zn  Zn157  1  0.43137388  0.68408588  0.45164042  1
  Zn  Zn158  1  0.43748689  0.69475902  0.94101271  1
  Zn  Zn159  1  0.93597946  0.18680808  0.43778457  1
  Zn  Zn160  1  0.94538577  0.19310539  0.93328980  1
  Zn  Zn161  1  0.92043229  0.69633812  0.40476127  1
  Zn  Zn162  1  0.93743441  0.68760074  0.93495934  1
  Zn  Zn163  1  0.05540116  0.31555988  0.07277653  1
  Zn  Zn164  1  0.06404212  0.31473235  0.57012005  1
  Zn  Zn165  1  0.05757924  0.81415744  0.05785301  1
  Zn  Zn166  1  0.06441681  0.81282655  0.56255521  1
  Zn  Zn167  1  0.56681875  0.31250084  0.05740099  1
  Zn  Zn168  1  0.56392938  0.31048166  0.56108134  1
  Zn  Zn169  1  0.56221196  0.81457820  0.06768409  1
  Zn  Zn170  1  0.56352642  0.81357752  0.56724883  1
  O  O171  1  0.13202219  0.11024242  0.11672651  1
  O  O172  1  0.13014708  0.11622418  0.61093374  1
  O  O173  1  0.12606975  0.61767454  0.11651351  1
  O  O174  1  0.11594051  0.62228881  0.61312061  1
  O  O175  1  0.62801285  0.11604711  0.11320921  1
  O  O176  1  0.62358417  0.11429151  0.62224878  1
  O  O177  1  0.61019110  0.62376232  0.13063354  1
  O  O178  1  0.62955476  0.60952852  0.62218575  1
  O  O179  1  0.38336044  0.37732267  0.37821804  1
  O  O180  1  0.38629723  0.37398472  0.88375956  1
  O  O181  1  0.35880254  0.91103648  0.30651538  1
  O  O182  1  0.38333756  0.87742565  0.88681387  1
  O  O183  1  0.86500628  0.38277428  0.38569344  1
  O  O184  1  0.86305302  0.37274208  0.89327639  1
  O  O185  1  0.87945302  0.88931688  0.37800754  1
  O  O186  1  0.86775659  0.87987051  0.89292673  1
  O  O187  1  0.24157713  0.00987261  0.36237405  1
  O  O188  1  0.25471185  0.00638676  0.86965621  1
  O  O189  1  0.25614594  0.49811811  0.36169533  1
  O  O190  1  0.25575895  0.51655870  0.85968120  1
  O  O191  1  0.75372142  0.00327122  0.36865772  1
  O  O192  1  0.74196352  0.01146617  0.86897698  1
  O  O193  1  0.75143671  0.49537702  0.36603009  1
  O  O194  1  0.74824591  0.50848149  0.86888472  1
  O  O195  1  0.24512014  0.49815316  0.13737930  1
  O  O196  1  0.25934384  0.50701693  0.63683745  1
  O  O197  1  0.24307895  0.98638219  0.14060526  1
  O  O198  1  0.24645019  0.99339686  0.62778467  1
  O  O199  1  0.74563198  0.48852853  0.13214171  1
  O  O200  1  0.74340791  0.48903286  0.63205003  1
  O  O201  1  0.74958220  1.00331391  0.13688106  1
  O  O202  1  0.74379043  0.99246056  0.63216022  1
  O  O203  1  0.00550288  0.36278680  0.24735281  1
  O  O204  1  0.00822848  0.36510391  0.74543776  1
  O  O205  1  -0.00077346  0.87384830  0.26291501  1
  O  O206  1  0.01016807  0.86562158  0.74340877  1
  O  O207  1  0.51256227  0.37943362  0.25297015  1
  O  O208  1  0.50722615  0.36874160  0.75534785  1
  O  O209  1  0.51172019  0.86034621  0.24365776  1
  O  O210  1  0.50821893  0.86860189  0.76058280  1
  O  O211  1  0.48689872  0.12970422  0.25362247  1
  O  O212  1  0.49482127  0.12850480  0.74615864  1
  O  O213  1  0.49067917  0.62527742  0.24388478  1
  O  O214  1  0.50411751  0.63859989  0.75753072  1
  O  O215  1  0.99949802  0.14119771  0.25088355  1
  O  O216  1  1.00132251  0.13694641  0.74943496  1
  O  O217  1  0.99049143  0.63025449  0.24709299  1
  O  O218  1  0.99581365  0.63123055  0.74191970  1
  O  O219  1  0.38641613  0.26091863  0.01210430  1
  O  O220  1  0.37316724  0.25117668  0.50557056  1
  O  O221  1  0.36659251  0.76164624  0.00787146  1
  O  O222  1  0.35569025  0.77821137  0.44791830  1
  O  O223  1  0.87829965  0.25477178  0.01134756  1
  O  O224  1  0.87178338  0.25773920  0.50270558  1
  O  O225  1  0.86848132  0.75971016  -0.00665289  1
  O  O226  1  0.85842363  0.74167527  0.49653045  1
  O  O227  1  0.13424611  0.24044399  0.49828564  1
  O  O228  1  0.10892803  0.23008128  1.00813833  1
  O  O229  1  0.13155184  0.74319040  0.49471441  1
  O  O230  1  0.13131008  0.74936356  0.98816007  1
  O  O231  1  0.62798475  0.24070219  0.49232835  1
  O  O232  1  0.62383999  0.23515724  0.99379070  1
  O  O233  1  0.62551239  0.73985756  0.49940192  1
  O  O234  1  0.63303038  0.75479700  0.99062917  1
  O  O235  1  0.49575488  0.25084986  0.12680559  1
  O  O236  1  0.49593954  0.24157569  0.63017525  1
  O  O237  1  0.49077530  0.74124060  0.12356897  1
  O  O238  1  0.50442902  0.75201104  0.64522324  1
  O  O239  1  0.98217549  0.25180282  0.13638112  1
  O  O240  1  1.00195738  0.24822495  0.63449912  1
  O  O241  1  1.00902580  0.74809088  0.12949794  1
  O  O242  1  1.00409095  0.73890102  0.63132179  1
  O  O243  1  -0.00086796  0.24992501  0.36249946  1
  O  O244  1  0.00260114  0.26084454  0.86110381  1
  O  O245  1  0.01167580  0.76380491  0.38616002  1
  O  O246  1  0.01398418  0.74538005  0.86417711  1
  O  O247  1  0.51206896  0.25283037  0.37945860  1
  O  O248  1  0.51090876  0.25361317  0.86960277  1
  O  O249  1  0.51295358  0.73961733  0.38419677  1
  O  O250  1  0.50835134  0.75729231  0.87065411  1
  O  O251  1  0.24630007  0.12865814  0.48752970  1
  O  O252  1  0.23865774  0.11436125  0.99551091  1
  O  O253  1  0.23506116  0.63160810  0.49120328  1
  O  O254  1  0.24222951  0.63333821  0.99378848  1
  O  O255  1  0.74299578  0.12132381  0.48835813  1
  O  O256  1  0.74035601  0.11787434  0.98799443  1
  O  O257  1  0.73912681  0.63284483  0.50627705  1
  O  O258  1  0.75701284  0.63074429  0.98839766  1
  O  O259  1  0.26957162  0.38251484  -0.00124514  1
  O  O260  1  0.27013551  0.36175074  0.48812837  1
  O  O261  1  0.25266098  0.87141501  0.00793690  1
  O  O262  1  0.24160055  0.86640308  0.50996559  1
  O  O263  1  0.75455131  0.37426214  0.01273144  1
  O  O264  1  0.75777133  0.37370633  0.51008168  1
  O  O265  1  0.75798676  0.86438716  0.00198784  1
  O  O266  1  0.74739077  0.86061016  0.51114242  1
  O  O267  1  0.12875792  0.49558046  0.24636315  1
  O  O268  1  0.14991408  0.50777304  0.74307148  1
  O  O269  1  0.11798655  0.98842074  0.24426177  1
  O  O270  1  0.13223130  0.99348865  0.74524915  1
  O  O271  1  0.63065961  0.49028277  0.24916800  1
  O  O272  1  0.63051536  0.49243057  0.74456996  1
  O  O273  1  0.63050932  1.00280558  0.23714469  1
  O  O274  1  0.63376011  0.99431630  0.74297418  1
  O  O275  1  0.36678825  0.03069902  0.22300353  1
  O  O276  1  0.37032333  0.00731700  0.75157132  1
  O  O277  1  0.36804380  0.50759043  0.25082268  1
  O  O278  1  0.36499619  0.50081529  0.75254950  1
  O  O279  1  0.86760250  0.00143162  0.25702045  1
  O  O280  1  0.86332782  0.00258369  0.75051477  1
  O  O281  1  0.86410339  0.49118327  0.25789047  1
  O  O282  1  0.87082641  0.50636257  0.75346776  1
  O  O283  1  0.12901734  0.37399096  0.36369536  1
  O  O284  1  0.14183129  0.35520453  0.92776052  1
  O  O285  1  0.11568941  0.87405408  0.36645561  1
  O  O286  1  0.13367898  0.86687110  0.86082994  1
  O  O287  1  0.62110908  0.36488944  0.36814637  1
  O  O288  1  0.62325499  0.36461764  0.87313347  1
  O  O289  1  0.62612606  0.85904865  0.38189945  1
  O  O290  1  0.62029008  0.86882842  0.87381500  1
  O  O291  1  0.36811957  0.14802170  0.12833068  1
  O  O292  1  0.38025500  0.13393861  0.63007142  1
  O  O293  1  0.37941312  0.63032346  0.13293091  1
  O  O294  1  0.36515648  0.67313291  0.55224977  1
  O  O295  1  0.86894941  0.13805317  0.12462708  1
  O  O296  1  0.87686128  0.12863247  0.63059378  1
  O  O297  1  0.87360138  0.62567517  0.12621066  1
  O  O298  1  0.88050833  0.62090492  0.63862702  1
  O  O299  1  0.23477692  0.26281479  0.08930123  1
  O  O300  1  0.25999153  0.24128136  0.61051150  1
  O  O301  1  0.25110922  0.76021874  0.12186892  1
  O  O302  1  0.25211302  0.75871950  0.61429913  1
  O  O303  1  0.76601674  0.25773344  0.13440773  1
  O  O304  1  0.74715526  0.26228180  0.62535514  1
  O  O305  1  0.74011456  0.74816880  0.11380341  1
  O  O306  1  0.74361507  0.75669510  0.61589354  1
  O  O307  1  0.24777213  0.24268123  0.38384924  1
  O  O308  1  0.25647052  0.24200320  0.89582100  1
  O  O309  1  0.23239995  0.74848023  0.37646259  1
  O  O310  1  0.24310844  0.74539010  0.87596459  1
  O  O311  1  0.74100636  0.24017443  0.37589536  1
  O  O312  1  0.73777803  0.23580290  0.86934877  1
  O  O313  1  0.73611927  0.74702916  0.39421210  1
  O  O314  1  0.74377776  0.74228030  0.88286160  1
  O  O315  1  0.00492130  0.10958496  -0.00901704  1
  O  O316  1  0.00947275  0.11865824  0.50022527  1
  O  O317  1  0.01667753  0.63052876  -0.00423717  1
  O  O318  1  -0.00100957  0.62263544  0.50554884  1
  O  O319  1  0.51331010  0.12173456  -0.00517510  1
  O  O320  1  0.50689325  0.11672731  0.50704126  1
  O  O321  1  0.49338314  0.61885711  0.00880796  1
  O  O322  1  0.51099593  0.60772430  0.49917813  1
  O  O323  1  0.49337817  0.37956780  0.49410942  1
  O  O324  1  0.49531131  0.38335714  0.99612589  1
  O  O325  1  0.50250809  0.88785836  0.50647712  1
  O  O326  1  0.49026532  0.86911580  0.99349305  1
  O  O327  1  0.98476120  0.38456963  0.50386016  1
  O  O328  1  0.98447456  0.37132191  0.99959061  1
  O  O329  1  1.00692484  0.88632243  0.49049216  1
  O  O330  1  0.99085954  0.88533500  0.99564791  1
  O  O331  1  0.49457288  0.49126942  0.38332110  1
  O  O332  1  0.49978420  0.49607439  0.88060833  1
  O  O333  1  0.50550714  0.99995982  0.38951180  1
  O  O334  1  0.50039931  0.98661161  0.87222981  1
  O  O335  1  0.98850422  0.50099799  0.38676205  1
  O  O336  1  1.01019191  0.48479809  0.86729284  1
  O  O337  1  0.99147669  0.99706607  0.38096199  1
  O  O338  1  1.00453035  0.99745750  0.87938613  1
  O  O339  1  0.00656935  -0.00299255  0.12200985  1
  O  O340  1  0.00781287  0.00163692  0.61767114  1
  O  O341  1  0.01024535  0.50301374  0.12831245  1
  O  O342  1  0.00191889  0.51095684  0.61371369  1
  O  O343  1  0.50951399  -0.00313944  0.13038738  1
  O  O344  1  0.50997446  0.00375069  0.62367856  1
  O  O345  1  0.49998587  0.50953801  0.11675647  1
  O  O346  1  0.50922850  0.49102568  0.61697702  1
  O  O347  1  0.24142980  0.38134881  0.24676507  1
  O  O348  1  0.25416612  0.38442467  0.75061783  1
  O  O349  1  0.23203847  0.87367045  0.24180961  1
  O  O350  1  0.24529299  0.87979015  0.74221601  1
  O  O351  1  0.73985221  0.37986899  0.24217972  1
  O  O352  1  0.74563637  0.37779417  0.74569773  1
  O  O353  1  0.74212756  0.88314780  0.24933409  1
  O  O354  1  0.74579320  0.87990386  0.74753396  1
  O  O355  1  0.24719782  0.13515107  0.25654354  1
  O  O356  1  0.25522074  0.12106208  0.75947314  1
  O  O357  1  0.25447511  0.61788172  0.25022972  1
  O  O358  1  0.25329038  0.63705036  0.75706063  1
  O  O359  1  0.75099734  0.11738264  0.26094509  1
  O  O360  1  0.74914573  0.11524059  0.76332727  1
  O  O361  1  0.74883781  0.60900270  0.25304565  1
  O  O362  1  0.75938182  0.62213761  0.75731602  1
  O  O363  1  0.36660767  0.13303714  0.35515812  1
  O  O364  1  0.36620848  0.12396208  0.87384228  1
  O  O365  1  0.37320461  0.61499223  0.36758124  1
  O  O366  1  0.35947476  0.63088660  0.88190477  1
  O  O367  1  0.86688075  0.11468712  0.37364024  1
  O  O368  1  0.85977684  0.13159232  0.87806641  1
  O  O369  1  0.86223721  0.60110053  0.38075619  1
  O  O370  1  0.87102044  0.62045233  0.86531473  1
  O  O371  1  0.12421162  0.38604626  0.13559347  1
  O  O372  1  0.13754344  0.39542880  0.57109385  1
  O  O373  1  0.12761574  0.88291511  0.12857552  1
  O  O374  1  0.13321668  0.87924133  0.63466823  1
  O  O375  1  0.63206191  0.37270541  0.13054803  1
  O  O376  1  0.63135861  0.38230340  0.62850256  1
  O  O377  1  0.63139677  0.89105244  0.12133739  1
  O  O378  1  0.63289837  0.88361049  0.63271144  1
  O  O379  1  0.11279165  0.25833125  0.24716437  1
  O  O380  1  0.11616251  0.24919698  0.74679054  1
  O  O381  1  0.11985509  0.76290280  0.25813023  1
  O  O382  1  0.11772054  0.75676133  0.75253827  1
  O  O383  1  0.62958316  0.25658455  0.25759076  1
  O  O384  1  0.62039467  0.25298050  0.75717876  1
  O  O385  1  0.62710239  0.74432093  0.27388018  1
  O  O386  1  0.61939231  0.75461174  0.76207804  1
  O  O387  1  0.36983945  0.24619721  0.23389377  1
  O  O388  1  0.37884737  0.24479769  0.74403554  1
  O  O389  1  0.37335559  0.73569072  0.25024727  1
  O  O390  1  0.39268190  0.75220837  0.75373305  1
  O  O391  1  0.88305070  0.24886107  0.24580217  1
  O  O392  1  0.88857174  0.24942801  0.74729861  1
  O  O393  1  0.87962367  0.73716267  0.29405163  1
  O  O394  1  0.88747169  0.74363212  0.75730445  1
  O  O395  1  0.38204199  0.49094592  0.49894559  1
  O  O396  1  0.38570116  0.49413625  0.99753496  1
  O  O397  1  0.39029210  1.00302066  0.50230269  1
  O  O398  1  0.36880968  0.98817987  1.00681733  1
  O  O399  1  0.87853953  0.49222781  0.49720976  1
  O  O400  1  0.87224222  0.48482810  0.99594393  1
  O  O401  1  0.88672713  1.00549244  0.49440838  1
  O  O402  1  0.88879821  0.99489932  0.99695020  1
  O  O403  1  0.11113898  0.00195251  0.00584546  1
  O  O404  1  0.11624021  0.00641749  0.50115902  1
  O  O405  1  0.13389659  0.51214622  0.01284162  1
  O  O406  1  0.11140373  0.52092668  0.48359927  1
  O  O407  1  0.62610259  0.00862558  0.01320017  1
  O  O408  1  0.62104927  0.00371585  0.50991212  1
  O  O409  1  0.61132551  0.49553802  0.00146490  1
  O  O410  1  0.61998587  0.50184926  0.50782192  1
  O  O411  1  0.37558496  0.36412093  0.12030589  1
  O  O412  1  0.38328391  0.35930338  0.61662327  1
  O  O413  1  0.36518114  0.86977812  0.12355797  1
  O  O414  1  0.36425162  0.87107702  0.62956453  1
  O  O415  1  0.86868023  0.36803806  0.11446510  1
  O  O416  1  0.86654616  0.37565961  0.61859271  1
  O  O417  1  0.86919787  0.87986884  0.10495639  1
  O  O418  1  0.86389303  0.87750269  0.63017824  1
  O  O419  1  0.13110305  0.12786484  0.38305340  1
  O  O420  1  0.13920870  0.12077008  0.88532836  1
  O  O421  1  0.11986397  0.63737424  0.37719001  1
  O  O422  1  0.13856602  0.63333558  0.87819245  1
  O  O423  1  0.63045644  0.12929046  0.37693179  1
  O  O424  1  0.63027647  0.12831941  0.88561264  1
  O  O425  1  0.62737810  0.62783202  0.38939878  1
  O  O426  1  0.63808580  0.63475960  0.87215386  1
