# generated using pymatgen
data_V85Zn86O256
_symmetry_space_group_name_H-M   'P 1'
_cell_length_a   16.92472069
_cell_length_b   16.94660142
_cell_length_c   16.94401685
_cell_angle_alpha   89.97656816
_cell_angle_beta   90.05128524
_cell_angle_gamma   89.94080284
_symmetry_Int_Tables_number   1
_chemical_formula_structural   V85Zn86O256
_chemical_formula_sum   'V85 Zn86 O256'
_cell_volume   4859.81858616
_cell_formula_units_Z   1
loop_
 _symmetry_equiv_pos_site_id
 _symmetry_equiv_pos_as_xyz
  1  'x, y, z'
loop_
 _atom_site_type_symbol
 _atom_site_label
 _atom_site_symmetry_multiplicity
 _atom_site_fract_x
 _atom_site_fract_y
 _atom_site_fract_z
 _atom_site_occupancy
  V  V0  1  0.63608112  0.88289720  0.74411881  1
  V  V1  1  0.87604229  0.87709798  -0.00030699  1
  V  V2  1  -0.00321400  0.87545319  0.37478651  1
  V  V3  1  0.12792634  0.00524441  0.12898705  1
  V  V4  1  -0.00416856  0.87286019  0.87499873  1
  V  V5  1  0.50257383  0.25081134  0.24525797  1
  V  V6  1  0.50791270  0.37056106  0.37431608  1
  V  V7  1  0.62496184  0.25008153  0.87330979  1
  V  V8  1  0.00141847  0.37475238  0.37444845  1
  V  V9  1  0.48811867  0.24956396  0.74492732  1
  V  V10  1  0.25740320  0.12050624  0.37713377  1
  V  V11  1  0.24686820  0.24780358  -0.00661213  1
  V  V12  1  -0.00825985  0.12768066  0.12031672  1
  V  V13  1  0.25192983  0.62479811  0.37818180  1
  V  V14  1  0.87518625  0.49691072  0.87622616  1
  V  V15  1  0.37067023  0.86893766  -0.00831990  1
  V  V16  1  0.49515868  0.38065124  0.87336091  1
  V  V17  1  0.87652785  0.75149701  0.12549835  1
  V  V18  1  0.86789782  0.13188814  0.74884058  1
  V  V19  1  0.74827493  0.25176004  0.01463701  1
  V  V20  1  0.37726743  0.37551261  0.50431815  1
  V  V21  1  0.62012116  0.87142360  0.26519386  1
  V  V22  1  0.73826786  0.13233364  0.37756020  1
  V  V23  1  0.25477819  0.50321060  0.24826850  1
  V  V24  1  -0.00088080  0.75031023  0.25128016  1
  V  V25  1  0.00017809  0.13373391  0.62916960  1
  V  V26  1  0.18235925  0.07974670  -0.05776756  1
  V  V27  1  0.49443081  -0.01147486  0.49281942  1
  V  V28  1  -0.00030209  0.00345615  -0.00144187  1
  V  V29  1  0.49413430  0.50117935  -0.00237410  1
  V  V30  1  0.49394710  -0.00617958  -0.01769052  1
  V  V31  1  0.00092104  0.50144820  0.50000154  1
  V  V32  1  0.73265401  0.25164890  0.49575802  1
  V  V33  1  0.62589152  0.73062510  0.37815631  1
  V  V34  1  0.74939217  0.75063618  0.00240172  1
  V  V35  1  0.00113270  0.62338365  0.12494181  1
  V  V36  1  0.37418313  0.13165939  0.24470359  1
  V  V37  1  0.87001066  0.37003343  0.01214162  1
  V  V38  1  0.86668940  -0.00045399  0.86705754  1
  V  V39  1  0.12584738  0.12473256  0.50032943  1
  V  V40  1  0.25498220  0.75749275  0.50090540  1
  V  V41  1  0.26368280  0.62079671  0.87345449  1
  V  V42  1  -0.00377453  0.36413774  0.87160415  1
  V  V43  1  0.12564913  0.49619369  0.12298296  1
  V  V44  1  0.12454871  0.87459606  0.74724506  1
  V  V45  1  0.12814474  0.00011915  0.62541596  1
  V  V46  1  0.62460973  0.37718530  0.75021271  1
  V  V47  1  0.74910586  0.62593892  0.87812492  1
  V  V48  1  0.74851225  0.50048538  0.75054766  1
  V  V49  1  0.62617669  0.49331299  0.12511588  1
  V  V50  1  0.75034911  0.37421148  0.62404341  1
  V  V51  1  0.87250948  0.63112843  0.74787749  1
  V  V52  1  0.37688918  0.74206147  0.63461596  1
  V  V53  1  0.62613364  0.50968095  0.61758948  1
  V  V54  1  0.25991926  -0.00459597  0.25321936  1
  V  V55  1  0.74855710  0.00114289  0.25539403  1
  V  V56  1  0.74641546  0.87484611  0.12810393  1
  V  V57  1  -0.00401265  0.75007050  0.74655474  1
  V  V58  1  0.12674720  0.87693867  0.25228741  1
  V  V59  1  0.86677811  0.87040837  0.51108546  1
  V  V60  1  0.26266776  0.50179574  0.75255719  1
  V  V61  1  0.25532354  0.25111951  0.50666783  1
  V  V62  1  0.74825844  0.73888482  0.50451739  1
  V  V63  1  0.26282025  0.88096601  0.62523138  1
  V  V64  1  0.62319840  0.12324460  0.00028104  1
  V  V65  1  0.12340975  0.74057188  0.87328549  1
  V  V66  1  0.37733003  0.50230571  0.37223964  1
  V  V67  1  0.50136342  0.12606579  0.61545248  1
  V  V68  1  0.37797320  0.36734935  0.00264774  1
  V  V69  1  0.12151772  0.37026110  0.75086103  1
  V  V70  1  0.75033329  0.49298386  0.24576896  1
  V  V71  1  0.62204553  0.62797067  0.00132501  1
  V  V72  1  0.12804466  0.50099250  0.62761920  1
  V  V73  1  0.48446599  0.63080210  0.13102389  1
  V  V74  1  0.87650967  0.37022122  0.49943974  1
  V  V75  1  0.86971367  0.50472229  0.37638653  1
  V  V76  1  0.86569838  0.62729879  0.25242655  1
  V  V77  1  -0.00304937  0.62992214  0.62425115  1
  V  V78  1  0.12666858  0.37227982  0.24949256  1
  V  V79  1  -0.00660053  0.24854479  0.24534882  1
  V  V80  1  -0.00068186  0.00026771  0.50017862  1
  V  V81  1  0.12658212  0.24930277  0.37489280  1
  V  V82  1  0.37379386  0.11174545  0.75652696  1
  V  V83  1  0.61747904  -0.00278490  0.12713984  1
  V  V84  1  0.25580303  0.36370961  0.12710938  1
  Zn  Zn85  1  0.30522551  0.81566126  0.15416458  1
  Zn  Zn86  1  0.87251293  0.00423876  0.37615843  1
  Zn  Zn87  1  -0.00073610  0.49541396  0.00029973  1
  Zn  Zn88  1  0.50253239  0.75226870  0.76054823  1
  Zn  Zn89  1  0.49987557  0.62772132  0.62475176  1
  Zn  Zn90  1  0.74500926  0.12362461  0.86950178  1
  Zn  Zn91  1  0.62005197  0.76787000  0.87622460  1
  Zn  Zn92  1  0.12459665  0.61944321  -0.00394447  1
  Zn  Zn93  1  0.63308850  0.36673613  0.24996315  1
  Zn  Zn94  1  0.63421844  0.00352936  0.62354804  1
  Zn  Zn95  1  0.25550666  0.74222044  0.00392930  1
  Zn  Zn96  1  0.12576194  0.62715779  0.50065626  1
  Zn  Zn97  1  0.25089522  0.00238954  0.76563378  1
  Zn  Zn98  1  0.49369326  0.12850014  0.12128519  1
  Zn  Zn99  1  0.87019188  0.13027466  0.24870392  1
  Zn  Zn100  1  0.48526991  0.87232041  0.37620739  1
  Zn  Zn101  1  0.50854359  0.50782686  0.49223714  1
  Zn  Zn102  1  0.87799232  0.25494241  0.62868455  1
  Zn  Zn103  1  0.12420390  0.24560726  0.87286281  1
  Zn  Zn104  1  0.47526444  0.74952804  0.25090713  1
  Zn  Zn105  1  0.25654188  0.37251211  0.62966248  1
  Zn  Zn106  1  0.12324740  0.74852112  0.37855061  1
  Zn  Zn107  1  0.18454023  0.18404104  0.18639836  1
  Zn  Zn108  1  0.19212118  0.18668067  0.69028886  1
  Zn  Zn109  1  0.18797674  0.68284614  0.19205623  1
  Zn  Zn110  1  0.19089243  0.68678912  0.68809216  1
  Zn  Zn111  1  0.68083536  0.18339431  0.18976310  1
  Zn  Zn112  1  0.68465832  0.18964415  0.68338194  1
  Zn  Zn113  1  0.68162817  0.68635500  0.18884747  1
  Zn  Zn114  1  0.68569432  0.69444656  0.68882696  1
  Zn  Zn115  1  0.31772260  0.31145451  0.31712778  1
  Zn  Zn116  1  0.31161719  0.31513818  0.81610102  1
  Zn  Zn117  1  0.31365644  0.80462737  0.31752103  1
  Zn  Zn118  1  0.31215242  0.81550013  0.81416612  1
  Zn  Zn119  1  0.81309403  0.31262296  0.31401768  1
  Zn  Zn120  1  0.80962275  0.30935072  0.81537894  1
  Zn  Zn121  1  0.80714854  0.81381270  0.32051099  1
  Zn  Zn122  1  0.80241127  0.81306011  0.81008497  1
  Zn  Zn123  1  0.18917369  0.43809426  0.43922910  1
  Zn  Zn124  1  0.18844097  0.43486061  0.93577090  1
  Zn  Zn125  1  0.31351809  0.94232304  0.44366767  1
  Zn  Zn126  1  0.18413622  0.91656407  0.94017161  1
  Zn  Zn127  1  0.69058292  0.43945825  0.43464181  1
  Zn  Zn128  1  0.68610606  0.43732939  0.93996398  1
  Zn  Zn129  1  0.69759516  0.95848004  0.46891170  1
  Zn  Zn130  1  0.68612688  0.93853668  0.93667303  1
  Zn  Zn131  1  0.31964873  0.04988348  0.06936850  1
  Zn  Zn132  1  0.31959429  0.07161197  0.57390555  1
  Zn  Zn133  1  0.31141759  0.55567484  0.05606459  1
  Zn  Zn134  1  0.31614919  0.56380939  0.55965970  1
  Zn  Zn135  1  0.80950622  0.06264981  0.06295178  1
  Zn  Zn136  1  0.81382446  0.06833581  0.56269001  1
  Zn  Zn137  1  0.81207179  0.56010804  0.06452781  1
  Zn  Zn138  1  0.81101172  0.56482452  0.56291961  1
  Zn  Zn139  1  0.43893092  0.43775271  0.18642703  1
  Zn  Zn140  1  0.44134115  0.43997765  0.68583893  1
  Zn  Zn141  1  0.43830627  0.93545569  0.18724399  1
  Zn  Zn142  1  0.45091003  0.93699824  0.69250913  1
  Zn  Zn143  1  0.93798729  0.43724713  0.18938637  1
  Zn  Zn144  1  0.93839670  0.44077513  0.68833057  1
  Zn  Zn145  1  0.93670324  0.94030114  0.18613089  1
  Zn  Zn146  1  0.93360493  0.94141324  0.68631575  1
  Zn  Zn147  1  0.06404111  0.06362296  0.31335580  1
  Zn  Zn148  1  0.05104095  0.05955213  0.80516616  1
  Zn  Zn149  1  0.06305186  0.56230378  0.31129424  1
  Zn  Zn150  1  0.06096341  0.55693296  0.81015474  1
  Zn  Zn151  1  0.55900385  0.06157013  0.31941172  1
  Zn  Zn152  1  0.56564642  0.06168177  0.80457279  1
  Zn  Zn153  1  0.55968235  0.56126975  0.30706566  1
  Zn  Zn154  1  0.55596968  0.57428209  0.81198453  1
  Zn  Zn155  1  0.43699287  0.19072785  0.43312108  1
  Zn  Zn156  1  0.43812042  0.18804062  0.93581744  1
  Zn  Zn157  1  0.44000412  0.68902978  0.44305912  1
  Zn  Zn158  1  0.43773020  0.69163726  0.94059328  1
  Zn  Zn159  1  0.93320700  0.18518891  0.43269500  1
  Zn  Zn160  1  0.93422669  0.18730639  0.93782612  1
  Zn  Zn161  1  0.93359124  0.68922213  0.43883835  1
  Zn  Zn162  1  0.93837161  0.68616448  0.93905985  1
  Zn  Zn163  1  0.06235988  0.30978446  0.05903179  1
  Zn  Zn164  1  0.06681995  0.31382787  0.56296237  1
  Zn  Zn165  1  0.09949141  0.79688089  0.08147811  1
  Zn  Zn166  1  0.06667811  0.81370499  0.56002918  1
  Zn  Zn167  1  0.56199152  0.31098903  0.06550047  1
  Zn  Zn168  1  0.55820947  0.31788163  0.56613447  1
  Zn  Zn169  1  0.55705806  0.81358778  0.06271471  1
  Zn  Zn170  1  0.56598117  0.81451185  0.56296099  1
  O  O171  1  0.11175946  0.11214582  0.13130112  1
  O  O172  1  0.11902655  0.12035058  0.62240508  1
  O  O173  1  0.11718811  0.61279838  0.12463996  1
  O  O174  1  0.11872800  0.61431804  0.62735348  1
  O  O175  1  0.62046027  0.11562592  0.11635789  1
  O  O176  1  0.60670773  0.12401315  0.63259418  1
  O  O177  1  0.61986563  0.61580673  0.11513122  1
  O  O178  1  0.63427980  0.61037960  0.62506071  1
  O  O179  1  0.38385856  0.38275923  0.38246476  1
  O  O180  1  0.38883209  0.37324761  0.88295197  1
  O  O181  1  0.37166667  0.87301013  0.37951761  1
  O  O182  1  0.37156424  0.87696946  0.89040971  1
  O  O183  1  0.88212601  0.38300366  0.38136139  1
  O  O184  1  0.87907341  0.38051882  0.87862322  1
  O  O185  1  0.88540486  0.87957486  0.37914415  1
  O  O186  1  0.87662942  0.88166919  0.87659262  1
  O  O187  1  0.24820425  0.01064320  0.36771372  1
  O  O188  1  0.23189037  0.00876647  0.88412766  1
  O  O189  1  0.25467453  0.50352530  0.36690233  1
  O  O190  1  0.24598980  0.50898218  0.86401328  1
  O  O191  1  0.74826344  0.01186154  0.37158582  1
  O  O192  1  0.76415006  0.00619257  0.88319993  1
  O  O193  1  0.76376299  0.49958510  0.36762381  1
  O  O194  1  0.75942141  0.50329195  0.87242481  1
  O  O195  1  0.24447579  0.49115563  0.13055894  1
  O  O196  1  0.24421076  0.50063464  0.63579234  1
  O  O197  1  0.23853691  1.00622607  0.13819922  1
  O  O198  1  0.24147599  0.99643726  0.62396228  1
  O  O199  1  0.74086131  0.50304299  0.13388529  1
  O  O200  1  0.74408269  0.49412253  0.62890234  1
  O  O201  1  0.73758534  0.99677915  0.13304012  1
  O  O202  1  0.73663684  0.99359312  0.57417534  1
  O  O203  1  0.00652567  0.36849798  0.25377510  1
  O  O204  1  0.00744101  0.38080758  0.75875611  1
  O  O205  1  0.00007002  0.87170626  0.25665319  1
  O  O206  1  0.00208936  0.86893873  0.75293723  1
  O  O207  1  0.49888638  0.36433709  0.25481604  1
  O  O208  1  0.50409486  0.37096104  0.75678838  1
  O  O209  1  0.50657785  0.86937957  0.25164219  1
  O  O210  1  0.51677851  0.86852223  0.74914318  1
  O  O211  1  0.49247367  0.13513624  0.25304981  1
  O  O212  1  0.49316541  0.13329919  0.74537817  1
  O  O213  1  0.49768396  0.62571772  0.23452976  1
  O  O214  1  0.50645964  0.63665713  0.73728405  1
  O  O215  1  0.99810419  0.13288347  0.24437080  1
  O  O216  1  0.98666510  0.12561108  0.73851861  1
  O  O217  1  0.99240745  0.62705091  0.24008654  1
  O  O218  1  0.99176517  0.62802342  0.74375293  1
  O  O219  1  0.36873982  0.25980473  -0.00224835  1
  O  O220  1  0.36560343  0.26171176  0.49220874  1
  O  O221  1  0.37413003  0.76238344  0.00475637  1
  O  O222  1  0.35970508  0.74694356  0.51136600  1
  O  O223  1  0.86353183  0.26144038  -0.00436128  1
  O  O224  1  0.87434249  0.26393450  0.49862829  1
  O  O225  1  0.87058665  0.75597424  0.00644584  1
  O  O226  1  0.86622238  0.76227469  0.49424411  1
  O  O227  1  0.13130422  0.24445425  0.49372714  1
  O  O228  1  0.13898976  0.25201864  0.99640813  1
  O  O229  1  0.13748995  0.74737219  0.49974989  1
  O  O230  1  0.12026543  0.74525954  0.98112211  1
  O  O231  1  0.63389086  0.26026592  0.50029987  1
  O  O232  1  0.62644630  0.24303158  0.99470563  1
  O  O233  1  0.63491075  0.75331695  0.48747163  1
  O  O234  1  0.63165244  0.74266283  1.00314546  1
  O  O235  1  0.49884833  0.24799547  0.13909332  1
  O  O236  1  0.50506137  0.24329032  0.63535925  1
  O  O237  1  0.50358377  0.73314958  0.12509673  1
  O  O238  1  0.48083234  0.75398195  0.61862079  1
  O  O239  1  1.00751011  0.24003307  0.13271919  1
  O  O240  1  0.99921676  0.23754175  0.61669258  1
  O  O241  1  1.00019578  0.74089909  0.13085547  1
  O  O242  1  1.00647973  0.73703434  0.62917367  1
  O  O243  1  0.00673056  0.25498543  0.36861244  1
  O  O244  1  0.00068104  0.26116140  0.87767847  1
  O  O245  1  0.00052467  0.75742673  0.36963418  1
  O  O246  1  0.00327942  0.75128954  0.86623486  1
  O  O247  1  0.49636004  0.26061108  0.36303204  1
  O  O248  1  0.50998679  0.25853887  0.86982986  1
  O  O249  1  0.51154397  0.75060544  0.37298517  1
  O  O250  1  0.51252722  0.73560834  0.87575749  1
  O  O251  1  0.24813253  0.13183500  0.49542511  1
  O  O252  1  0.25266033  0.12961967  1.00372612  1
  O  O253  1  0.24669562  0.63024356  0.49287400  1
  O  O254  1  0.24549083  0.62143100  0.98660956  1
  O  O255  1  0.75711590  0.14089852  0.48566231  1
  O  O256  1  0.73774270  0.13121719  0.99856558  1
  O  O257  1  0.76441310  0.63991642  0.49163556  1
  O  O258  1  0.74386659  0.63054204  0.99998682  1
  O  O259  1  0.25823752  0.36853060  0.00587218  1
  O  O260  1  0.25757373  0.36768738  0.50040325  1
  O  O261  1  0.26242967  0.86649788  0.00017852  1
  O  O262  1  0.24775208  0.86972940  0.51284306  1
  O  O263  1  0.76091816  0.36764379  -0.00301349  1
  O  O264  1  0.75906234  0.36961124  0.50113151  1
  O  O265  1  0.75468259  0.87078961  0.00861561  1
  O  O266  1  0.76507827  0.86294343  0.48747054  1
  O  O267  1  0.13086872  0.49204147  0.24040216  1
  O  O268  1  0.13118825  0.49086113  0.74345614  1
  O  O269  1  0.13307692  0.99619623  0.24668743  1
  O  O270  1  0.12393176  0.99678591  0.73865931  1
  O  O271  1  0.63491172  0.50106748  0.24225901  1
  O  O272  1  0.63275298  0.49553443  0.74362743  1
  O  O273  1  0.63024244  0.99457306  0.24589728  1
  O  O274  1  0.62696963  0.99217017  0.74217481  1
  O  O275  1  0.36385770  0.00694428  0.24770768  1
  O  O276  1  0.37477385  0.00821545  0.75098035  1
  O  O277  1  0.36649581  0.49275686  0.26088887  1
  O  O278  1  0.36150933  0.49567550  0.74741070  1
  O  O279  1  0.85660099  -0.00221088  0.24955341  1
  O  O280  1  0.87789330  0.01271089  0.75697126  1
  O  O281  1  0.87018803  0.50622684  0.25530973  1
  O  O282  1  0.86931108  0.50838311  0.75818845  1
  O  O283  1  0.12036515  0.37129642  0.36977960  1
  O  O284  1  0.11327224  0.37705200  0.86817151  1
  O  O285  1  0.10890853  0.87483709  0.36094311  1
  O  O286  1  0.11526883  0.86426009  0.86599787  1
  O  O287  1  0.61154582  0.38525271  0.36995303  1
  O  O288  1  0.61662915  0.36992861  0.87153565  1
  O  O289  1  0.62131812  0.87794331  0.36584242  1
  O  O290  1  0.63334289  0.88067620  0.85902027  1
  O  O291  1  0.37569473  0.12221024  0.13982121  1
  O  O292  1  0.38962661  0.13155364  0.64224449  1
  O  O293  1  0.38633271  0.61841055  0.11696907  1
  O  O294  1  0.36555359  0.64038097  0.63003876  1
  O  O295  1  0.88620375  0.11973908  0.12997822  1
  O  O296  1  0.88088032  0.12801729  0.63306348  1
  O  O297  1  0.88207637  0.63018514  0.13141458  1
  O  O298  1  0.88454657  0.61747122  0.63646123  1
  O  O299  1  0.24404046  0.26018538  0.11977300  1
  O  O300  1  0.24417475  0.25356531  0.61078008  1
  O  O301  1  0.21405417  0.75753437  0.11264735  1
  O  O302  1  0.25554494  0.75978194  0.62260676  1
  O  O303  1  0.74112920  0.24728470  0.11412409  1
  O  O304  1  0.75294790  0.25695655  0.61410481  1
  O  O305  1  0.75470905  0.75413116  0.12128813  1
  O  O306  1  0.74567067  0.74422877  0.60426475  1
  O  O307  1  0.24387085  0.24426902  0.38266105  1
  O  O308  1  0.24653836  0.25252201  0.88657601  1
  O  O309  1  0.24475329  0.74004012  0.38411233  1
  O  O310  1  0.24190314  0.73458258  0.87210146  1
  O  O311  1  0.75054374  0.24206439  0.37916123  1
  O  O312  1  0.73541480  0.24934877  0.88293596  1
  O  O313  1  0.73276736  0.74990198  0.37868419  1
  O  O314  1  0.74849863  0.74241414  0.88750884  1
  O  O315  1  -0.00582736  0.11832581  0.00759971  1
  O  O316  1  0.00213022  0.11716797  0.50391792  1
  O  O317  1  -0.00100577  0.61938223  0.01352876  1
  O  O318  1  0.00006582  0.61993448  0.50768143  1
  O  O319  1  0.50735775  0.11693680  0.00053685  1
  O  O320  1  0.49290543  0.13272152  0.51373923  1
  O  O321  1  0.50540268  0.61649017  0.00761055  1
  O  O322  1  0.48925382  0.61647627  0.51206702  1
  O  O323  1  0.49394156  0.38023970  0.49118383  1
  O  O324  1  0.49553635  0.37881253  0.99505246  1
  O  O325  1  0.49708340  0.88570830  0.49940025  1
  O  O326  1  0.49342206  0.88767123  1.00094703  1
  O  O327  1  0.99491393  0.38164942  0.49632885  1
  O  O328  1  0.98685522  0.37408991  0.99296855  1
  O  O329  1  0.99462698  0.87917656  0.49300514  1
  O  O330  1  0.99285435  0.88284144  0.99057094  1
  O  O331  1  0.49150141  0.49397552  0.37194767  1
  O  O332  1  0.50858654  0.49217737  0.88499797  1
  O  O333  1  0.49291183  0.99892593  0.38748521  1
  O  O334  1  0.50520247  1.00322288  0.88578836  1
  O  O335  1  0.99266342  0.49430681  0.37852043  1
  O  O336  1  0.98701203  0.49334785  0.87764922  1
  O  O337  1  0.99985331  0.99445225  0.38342029  1
  O  O338  1  0.98893796  0.99440724  0.87966382  1
  O  O339  1  0.00454811  0.00764149  0.11805769  1
  O  O340  1  0.00534015  0.00943712  0.61898469  1
  O  O341  1  0.00789414  0.50495192  0.12565198  1
  O  O342  1  0.00734268  0.50966344  0.62129719  1
  O  O343  1  0.51097474  0.00349852  0.12226919  1
  O  O344  1  0.49639671  0.01490051  0.61617467  1
  O  O345  1  0.50621443  0.50819359  0.11876137  1
  O  O346  1  0.51908256  0.49729405  0.62496088  1
  O  O347  1  0.24789068  0.38062530  0.24415180  1
  O  O348  1  0.24457735  0.38698835  0.75084390  1
  O  O349  1  0.24010276  0.88216831  0.25061653  1
  O  O350  1  0.24147194  0.88263870  0.74585305  1
  O  O351  1  0.75097515  0.38743441  0.25328392  1
  O  O352  1  0.74679559  0.38070337  0.74579109  1
  O  O353  1  0.74128349  0.88189712  0.24736898  1
  O  O354  1  0.73966695  0.87538717  0.74285248  1
  O  O355  1  0.25509008  0.12104675  0.25779827  1
  O  O356  1  0.26709629  0.12059208  0.74477368  1
  O  O357  1  0.24525849  0.60889155  0.25671921  1
  O  O358  1  0.24579287  0.61153468  0.76076397  1
  O  O359  1  0.74866540  0.11952379  0.25838580  1
  O  O360  1  0.76238088  0.12862694  0.74814482  1
  O  O361  1  0.76204041  0.61706240  0.24412809  1
  O  O362  1  0.75591742  0.62068284  0.75620533  1
  O  O363  1  0.36288402  0.13074436  0.36514934  1
  O  O364  1  0.38115097  0.13179257  0.85515451  1
  O  O365  1  0.36150618  0.61682432  0.37760926  1
  O  O366  1  0.36188920  0.62388540  0.88025898  1
  O  O367  1  0.86415121  0.12218548  0.36754675  1
  O  O368  1  0.87388602  0.12036512  0.86249379  1
  O  O369  1  0.88535340  0.61563693  0.36324436  1
  O  O370  1  0.87009846  0.61586320  0.87161883  1
  O  O371  1  0.13166052  0.37964874  0.12938516  1
  O  O372  1  0.12606393  0.38631680  0.63168941  1
  O  O373  1  0.11071035  0.89325536  0.14129392  1
  O  O374  1  0.13060959  0.88370091  0.62994303  1
  O  O375  1  0.61897393  0.38907506  0.12831670  1
  O  O376  1  0.63269411  0.38262755  0.63244168  1
  O  O377  1  0.62788278  0.88047682  0.13312091  1
  O  O378  1  0.62082896  0.88047321  0.63563646  1
  O  O379  1  0.11808822  0.25446239  0.25560397  1
  O  O380  1  0.13340639  0.26571641  0.75123082  1
  O  O381  1  0.11633189  0.75888869  0.25259988  1
  O  O382  1  0.11925228  0.75224788  0.75751019  1
  O  O383  1  0.60942658  0.25094913  0.24931202  1
  O  O384  1  0.61945432  0.25765186  0.75783973  1
  O  O385  1  0.62497899  0.75542937  0.26296203  1
  O  O386  1  0.62957026  0.76283961  0.75490644  1
  O  O387  1  0.38470107  0.24296777  0.25231147  1
  O  O388  1  0.38630394  0.25483702  0.75185292  1
  O  O389  1  0.36167767  0.75366845  0.23175087  1
  O  O390  1  0.37242342  0.75523579  0.73691509  1
  O  O391  1  0.88975252  0.25357097  0.25145529  1
  O  O392  1  0.87346455  0.23757910  0.74905133  1
  O  O393  1  0.87792904  0.74377758  0.24672977  1
  O  O394  1  0.87680963  0.73691435  0.75661652  1
  O  O395  1  0.37023319  0.49178762  0.48598135  1
  O  O396  1  0.38743602  0.48661923  1.00115363  1
  O  O397  1  0.38521123  1.00871293  0.50500469  1
  O  O398  1  0.38931389  0.99867322  0.99490328  1
  O  O399  1  0.87882584  0.49218773  0.49295638  1
  O  O400  1  0.87298570  0.48799725  0.99345496  1
  O  O401  1  0.88791474  0.99014293  0.49851763  1
  O  O402  1  0.87858068  0.99468071  0.99409098  1
  O  O403  1  0.12539845  0.00519730  0.00445993  1
  O  O404  1  0.11236806  0.00721006  0.51312383  1
  O  O405  1  0.12308746  0.49610417  0.01195888  1
  O  O406  1  0.11940638  0.50062965  0.50976112  1
  O  O407  1  0.61720095  0.00493689  0.00699527  1
  O  O408  1  0.59720178  0.00686950  0.50090889  1
  O  O409  1  0.61670579  0.50405512  0.00761468  1
  O  O410  1  0.62930672  0.49544432  0.51384727  1
  O  O411  1  0.36623640  0.37892526  0.11644938  1
  O  O412  1  0.37594589  0.38249388  0.60917825  1
  O  O413  1  0.37185229  0.89310713  0.10510582  1
  O  O414  1  0.36439168  0.87256627  0.63206065  1
  O  O415  1  0.87814979  0.37781398  0.11048271  1
  O  O416  1  0.87064421  0.37703944  0.61683192  1
  O  O417  1  0.86868430  0.86909402  0.12130271  1
  O  O418  1  0.87946722  0.87487970  0.60953864  1
  O  O419  1  0.13456604  0.12929912  0.38214613  1
  O  O420  1  0.11710192  0.12623503  0.87564116  1
  O  O421  1  0.13631327  0.62298447  0.37627271  1
  O  O422  1  0.12594164  0.62770656  0.87438879  1
  O  O423  1  0.63904803  0.12598404  0.37217314  1
  O  O424  1  0.62418268  0.13308870  0.88080813  1
  O  O425  1  0.62304900  0.63211178  0.37312713  1
  O  O426  1  0.63454095  0.61567747  0.89227645  1
