# generated using pymatgen
data_V85Zn86O256
_symmetry_space_group_name_H-M   'P 1'
_cell_length_a   16.91931819
_cell_length_b   16.92862447
_cell_length_c   16.93111218
_cell_angle_alpha   89.98283229
_cell_angle_beta   90.10588082
_cell_angle_gamma   90.03675914
_symmetry_Int_Tables_number   1
_chemical_formula_structural   V85Zn86O256
_chemical_formula_sum   'V85 Zn86 O256'
_cell_volume   4849.41293017
_cell_formula_units_Z   1
loop_
 _symmetry_equiv_pos_site_id
 _symmetry_equiv_pos_as_xyz
  1  'x, y, z'
loop_
 _atom_site_type_symbol
 _atom_site_label
 _atom_site_symmetry_multiplicity
 _atom_site_fract_x
 _atom_site_fract_y
 _atom_site_fract_z
 _atom_site_occupancy
  V  V0  1  0.24423528  -0.00485734  0.74797881  1
  V  V1  1  0.11700139  -0.00104907  0.11462214  1
  V  V2  1  0.50960450  0.62979521  0.61923466  1
  V  V3  1  0.75456274  0.87997107  0.62506981  1
  V  V4  1  0.49831527  0.61824518  0.12752391  1
  V  V5  1  0.62834666  0.37590042  0.25036089  1
  V  V6  1  0.37473508  0.87138948  0.50689659  1
  V  V7  1  0.00367027  0.87774457  0.85602201  1
  V  V8  1  0.00021118  0.62385162  0.12477454  1
  V  V9  1  0.12331211  0.37260173  0.24965604  1
  V  V10  1  0.75098335  0.11416124  0.87058561  1
  V  V11  1  0.37382066  0.25007688  0.12042980  1
  V  V12  1  0.87404893  0.74710782  0.12540108  1
  V  V13  1  0.00297443  0.64354823  0.62591999  1
  V  V14  1  0.62149222  0.62145437  -0.00252869  1
  V  V15  1  0.24717061  0.87126719  0.62656901  1
  V  V16  1  0.75106150  0.74661856  -0.00931564  1
  V  V17  1  0.63241470  0.12702923  0.00154696  1
  V  V18  1  0.12409308  0.75572224  0.87027290  1
  V  V19  1  0.74947908  0.74515810  0.50298517  1
  V  V20  1  0.49881974  0.24962936  0.25193974  1
  V  V21  1  0.11788278  0.12425037  0.50130884  1
  V  V22  1  -0.00476901  0.12617788  0.11839798  1
  V  V23  1  0.63063997  0.38291882  0.75263701  1
  V  V24  1  0.38014388  0.74858880  0.12704002  1
  V  V25  1  0.11342442  -0.00176954  0.62515025  1
  V  V26  1  0.37612618  0.62812973  0.26526492  1
  V  V27  1  0.62530165  -0.00259059  0.12796646  1
  V  V28  1  0.75389020  0.37717500  0.62876558  1
  V  V29  1  0.24981313  0.74419693  0.50038350  1
  V  V30  1  0.25295391  0.50569853  0.26254757  1
  V  V31  1  0.38353357  0.50466075  0.87484030  1
  V  V32  1  0.50092769  -0.00114209  0.00029315  1
  V  V33  1  0.87759196  0.62938136  0.76229343  1
  V  V34  1  0.50269088  0.87364200  0.87322188  1
  V  V35  1  0.11802576  0.49949657  0.62600099  1
  V  V36  1  0.01310212  0.24503458  0.75422253  1
  V  V37  1  0.12049038  0.87596913  0.25676074  1
  V  V38  1  0.25186116  0.63324588  0.88283852  1
  V  V39  1  0.37071024  0.86851610  -0.00121323  1
  V  V40  1  0.36701282  0.38511591  0.49364336  1
  V  V41  1  0.24734699  0.24986862  0.49957842  1
  V  V42  1  0.49283088  0.38181655  0.37471480  1
  V  V43  1  0.37584269  -0.00149237  0.37455558  1
  V  V44  1  0.12832034  0.50150154  0.11842843  1
  V  V45  1  0.37360610  -0.00013607  0.87448267  1
  V  V46  1  0.75636977  0.11988807  0.37766571  1
  V  V47  1  0.13005646  0.74244105  0.37386414  1
  V  V48  1  0.37725465  0.38022062  -0.00087661  1
  V  V49  1  0.88589266  0.88038467  0.00194750  1
  V  V50  1  0.37785296  0.63359009  0.73933117  1
  V  V51  1  0.87470840  0.12077814  0.74813142  1
  V  V52  1  0.37400419  0.12409368  0.24862259  1
  V  V53  1  0.86294756  0.25286886  0.11979887  1
  V  V54  1  0.37693509  0.25314325  0.62259792  1
  V  V55  1  0.25174577  0.37737485  0.12229719  1
  V  V56  1  0.75832993  -0.00393268  0.25508175  1
  V  V57  1  -0.01178751  0.50101694  -0.00923744  1
  V  V58  1  0.49983228  0.37303130  0.87865507  1
  V  V59  1  0.50238793  0.25090626  0.74837441  1
  V  V60  1  0.88077037  0.38858314  0.49605770  1
  V  V61  1  0.88271390  0.24593151  0.62735870  1
  V  V62  1  0.24810569  -0.00080817  0.24760736  1
  V  V63  1  0.37561101  0.12436566  0.74946284  1
  V  V64  1  0.24197522  0.12980787  0.87620593  1
  V  V65  1  0.62358636  0.74088619  0.37766615  1
  V  V66  1  0.75183881  0.24934983  0.50054217  1
  V  V67  1  0.87540456  0.61217015  0.25658171  1
  V  V68  1  0.24856838  0.12463915  0.37401818  1
  V  V69  1  -0.00343064  0.75144702  0.26143831  1
  V  V70  1  0.49935525  0.12388781  0.12409832  1
  V  V71  1  -0.00530252  -0.00068930  0.48035002  1
  V  V72  1  0.62294096  0.86847957  0.25038291  1
  V  V73  1  0.50058028  -0.00012430  0.50150018  1
  V  V74  1  0.75265666  0.61522102  0.38203596  1
  V  V75  1  0.50032267  0.86948213  0.37251576  1
  V  V76  1  0.63419003  0.87552519  0.75056127  1
  V  V77  1  0.00767270  0.37242960  0.86926845  1
  V  V78  1  0.24624189  0.86800672  0.12172392  1
  V  V79  1  0.24718760  0.49869423  0.75373264  1
  V  V80  1  0.50171805  0.12867783  0.62332104  1
  V  V81  1  0.63689967  0.25063112  0.87820269  1
  V  V82  1  0.24473141  0.37455950  0.62970292  1
  V  V83  1  0.62886309  0.00286585  0.62935063  1
  V  V84  1  0.87662665  0.87606980  0.48457661  1
  Zn  Zn85  1  0.12055916  0.62012594  0.49399671  1
  Zn  Zn86  1  0.74371474  0.37766182  0.11079779  1
  Zn  Zn87  1  -0.00379653  0.25043660  0.24872452  1
  Zn  Zn88  1  0.49918509  0.75331338  0.74489871  1
  Zn  Zn89  1  0.63338506  0.51023753  0.61461323  1
  Zn  Zn90  1  -0.01156884  0.38289109  0.37045765  1
  Zn  Zn91  1  0.76638192  0.50468357  0.76106932  1
  Zn  Zn92  1  0.62434596  0.50012966  0.12601282  1
  Zn  Zn93  1  0.88048824  0.75696202  0.63005022  1
  Zn  Zn94  1  0.87697510  0.12477937  0.25209509  1
  Zn  Zn95  1  0.74962194  0.87325095  0.12353023  1
  Zn  Zn96  1  0.11772462  0.24804825  0.37188899  1
  Zn  Zn97  1  0.75059961  0.49565406  0.25240288  1
  Zn  Zn98  1  0.88120460  0.00212613  0.87739655  1
  Zn  Zn99  1  0.62901053  0.74965188  0.87323918  1
  Zn  Zn100  1  0.24024252  0.25711582  -0.00914106  1
  Zn  Zn101  1  0.86556341  0.37161067  -0.01114337  1
  Zn  Zn102  1  0.12894261  0.63309385  0.00085592  1
  Zn  Zn103  1  0.49828455  0.50588284  0.49806176  1
  Zn  Zn104  1  0.62443547  0.24749604  0.37721715  1
  Zn  Zn105  1  0.62612775  0.12645352  0.50002146  1
  Zn  Zn106  1  0.11432621  0.12941107  -0.00589235  1
  Zn  Zn107  1  0.18405094  0.18887486  0.17768393  1
  Zn  Zn108  1  0.18862647  0.18118461  0.68416948  1
  Zn  Zn109  1  0.18982542  0.68714915  0.18786341  1
  Zn  Zn110  1  0.18810784  0.68719090  0.69111635  1
  Zn  Zn111  1  0.68806396  0.18587694  0.19142317  1
  Zn  Zn112  1  0.69123096  0.19149100  0.68900469  1
  Zn  Zn113  1  0.68988644  0.68516205  0.18955544  1
  Zn  Zn114  1  0.69309640  0.69164246  0.69264153  1
  Zn  Zn115  1  0.30630650  0.31367871  0.31147132  1
  Zn  Zn116  1  0.31291029  0.31245258  0.80995173  1
  Zn  Zn117  1  0.31125175  0.81090623  0.31288443  1
  Zn  Zn118  1  0.30867121  0.81135725  0.81295521  1
  Zn  Zn119  1  0.81470497  0.30797182  0.31397241  1
  Zn  Zn120  1  0.81974028  0.31208597  0.81589047  1
  Zn  Zn121  1  0.80765949  0.80569615  0.31201522  1
  Zn  Zn122  1  0.81948763  0.81008161  0.81138952  1
  Zn  Zn123  1  0.14835455  0.45293863  0.42520144  1
  Zn  Zn124  1  0.18737223  0.44064418  0.93557211  1
  Zn  Zn125  1  0.18568016  0.93576702  0.43759854  1
  Zn  Zn126  1  0.18528397  0.93596000  0.93590027  1
  Zn  Zn127  1  0.68266103  0.43211470  0.43990107  1
  Zn  Zn128  1  0.69506440  0.44745055  0.93597545  1
  Zn  Zn129  1  0.68729975  0.93581438  0.43971689  1
  Zn  Zn130  1  0.69199401  0.93502953  0.94160249  1
  Zn  Zn131  1  0.30934881  0.05740281  0.06029435  1
  Zn  Zn132  1  0.31079796  0.06075560  0.56286980  1
  Zn  Zn133  1  0.31686533  0.56141407  0.06198077  1
  Zn  Zn134  1  0.30786142  0.56014062  0.56380873  1
  Zn  Zn135  1  0.81134962  0.06134816  0.06537126  1
  Zn  Zn136  1  0.81759533  0.06284068  0.56204887  1
  Zn  Zn137  1  0.80594155  0.56151310  0.06651296  1
  Zn  Zn138  1  0.81730825  0.56447591  0.57246884  1
  Zn  Zn139  1  0.43503517  0.44059626  0.19130506  1
  Zn  Zn140  1  0.43806664  0.44252068  0.68766839  1
  Zn  Zn141  1  0.43808057  0.93477808  0.18852678  1
  Zn  Zn142  1  0.43839888  0.93790521  0.68790080  1
  Zn  Zn143  1  0.93803806  0.43487358  0.17982966  1
  Zn  Zn144  1  0.93827557  0.43707755  0.69404579  1
  Zn  Zn145  1  0.93923169  0.93581955  0.18718921  1
  Zn  Zn146  1  0.93484502  0.94255899  0.68250243  1
  Zn  Zn147  1  0.06207528  0.06594092  0.30587119  1
  Zn  Zn148  1  0.05975287  0.05872078  0.81067402  1
  Zn  Zn149  1  0.06074491  0.55908332  0.31031556  1
  Zn  Zn150  1  0.06250775  0.56798734  0.81017220  1
  Zn  Zn151  1  0.56847303  0.06088418  0.31535603  1
  Zn  Zn152  1  0.56440991  0.06119785  0.81131150  1
  Zn  Zn153  1  0.55891515  0.56169807  0.31200597  1
  Zn  Zn154  1  0.58398292  0.54957493  0.82040221  1
  Zn  Zn155  1  0.43568036  0.19035193  0.43786313  1
  Zn  Zn156  1  0.43703149  0.18875410  0.93709613  1
  Zn  Zn157  1  0.43748408  0.69171886  0.44318312  1
  Zn  Zn158  1  0.44122044  0.68846077  0.93867668  1
  Zn  Zn159  1  0.93821065  0.19276714  0.43462461  1
  Zn  Zn160  1  0.93719327  0.19084887  0.93764214  1
  Zn  Zn161  1  0.93597134  0.68299070  0.44403380  1
  Zn  Zn162  1  0.94534485  0.69326283  0.93761713  1
  Zn  Zn163  1  0.05884265  0.31108433  0.05942948  1
  Zn  Zn164  1  0.06181325  0.31280688  0.56622785  1
  Zn  Zn165  1  0.06445948  0.80644017  0.06144585  1
  Zn  Zn166  1  0.06476284  0.81906832  0.55542780  1
  Zn  Zn167  1  0.56416625  0.31192573  0.06165966  1
  Zn  Zn168  1  0.56970856  0.33328262  0.55512656  1
  Zn  Zn169  1  0.56069998  0.80752982  0.06367214  1
  Zn  Zn170  1  0.56430925  0.80919954  0.56362820  1
  O  O171  1  0.11550944  0.11300764  0.12548813  1
  O  O172  1  0.13267161  0.11360547  0.60811156  1
  O  O173  1  0.12032386  0.61900550  0.12353699  1
  O  O174  1  0.11538972  0.61905985  0.62954072  1
  O  O175  1  0.61954629  0.12087832  0.11822476  1
  O  O176  1  0.62235871  0.11869382  0.62544953  1
  O  O177  1  0.61392932  0.62921684  0.12241438  1
  O  O178  1  0.61357391  0.62539616  0.63129938  1
  O  O179  1  0.37797473  0.36925213  0.38241172  1
  O  O180  1  0.38060391  0.38066525  0.87968482  1
  O  O181  1  0.38272193  0.87926795  0.37977999  1
  O  O182  1  0.37981308  0.87984121  0.88131224  1
  O  O183  1  0.87063351  0.37624834  0.39098527  1
  O  O184  1  0.89429121  0.37288451  0.87632323  1
  O  O185  1  0.86767827  0.87087650  0.38532165  1
  O  O186  1  0.88810383  0.87436273  0.88376006  1
  O  O187  1  0.25405723  0.00542717  0.36906917  1
  O  O188  1  0.25396558  0.00451073  0.86603241  1
  O  O189  1  0.24154646  0.49985864  0.35971436  1
  O  O190  1  0.26160739  0.50588473  0.86972381  1
  O  O191  1  0.74278932  0.00623909  0.36758497  1
  O  O192  1  0.75123548  0.01099782  0.87660270  1
  O  O193  1  0.73858345  0.51258504  0.37815105  1
  O  O194  1  0.69131178  0.50690086  0.84431414  1
  O  O195  1  0.24453884  0.49583907  0.12618541  1
  O  O196  1  0.24842858  0.49233882  0.63730853  1
  O  O197  1  0.24390716  0.98950291  0.13056580  1
  O  O198  1  0.24274649  0.99325702  0.63054571  1
  O  O199  1  0.74413460  0.49543181  0.13430825  1
  O  O200  1  0.74812355  0.49073586  0.63191684  1
  O  O201  1  0.74111738  0.99647718  0.13433782  1
  O  O202  1  0.74290039  0.98917589  0.61809079  1
  O  O203  1  0.01165928  0.37774215  0.24873206  1
  O  O204  1  0.00079798  0.36280113  0.75966161  1
  O  O205  1  0.00866432  0.86341719  0.24422217  1
  O  O206  1  -0.00461172  0.87679606  0.75779563  1
  O  O207  1  0.50082305  0.36749237  0.25606430  1
  O  O208  1  0.49968810  0.36589280  0.75867023  1
  O  O209  1  0.50772607  0.87825890  0.26190853  1
  O  O210  1  0.50931233  0.87570877  0.75631624  1
  O  O211  1  0.49514596  0.13006555  0.24639454  1
  O  O212  1  0.49680749  0.13152611  0.74428931  1
  O  O213  1  0.48340327  0.62284321  0.24572861  1
  O  O214  1  0.48740605  0.62681940  0.74226885  1
  O  O215  1  0.99568227  0.12620861  0.23698854  1
  O  O216  1  0.99256117  0.13811000  0.75894933  1
  O  O217  1  0.99393236  0.63030836  0.24628272  1
  O  O218  1  0.99444038  0.62387047  0.73561546  1
  O  O219  1  0.37226990  0.26169198  0.00301050  1
  O  O220  1  0.36413261  0.25203881  0.50694421  1
  O  O221  1  0.37826930  0.76230538  0.00756399  1
  O  O222  1  0.36617031  0.76437978  0.49660481  1
  O  O223  1  0.87647713  0.25058588  0.01540276  1
  O  O224  1  0.86726877  0.25192878  0.50991933  1
  O  O225  1  0.87076318  0.75432985  0.00730251  1
  O  O226  1  0.86727754  0.75948311  0.50387162  1
  O  O227  1  0.12911078  0.24090780  0.50043310  1
  O  O228  1  0.13081655  0.24100146  1.01170552  1
  O  O229  1  0.13184866  0.75146676  0.48940692  1
  O  O230  1  0.12403726  0.74831935  0.98496796  1
  O  O231  1  0.64110405  0.25206070  0.50287744  1
  O  O232  1  0.61624458  0.23796157  0.98957592  1
  O  O233  1  0.63826881  0.75761866  0.49034090  1
  O  O234  1  0.63595553  0.74689634  1.00116629  1
  O  O235  1  0.49313353  0.24306771  0.13102372  1
  O  O236  1  0.49763425  0.24824226  0.62896944  1
  O  O237  1  0.48501573  0.74722556  0.12941105  1
  O  O238  1  0.49897525  0.73681763  0.62582701  1
  O  O239  1  0.98847672  0.24202543  0.12720641  1
  O  O240  1  0.99110574  0.25508173  0.63908216  1
  O  O241  1  0.99100485  0.74266869  0.13237010  1
  O  O242  1  1.00670236  0.74573721  0.62518048  1
  O  O243  1  0.00125989  0.26073174  0.36852403  1
  O  O244  1  0.00231291  0.25759237  0.86439704  1
  O  O245  1  0.00505967  0.74604858  0.36512935  1
  O  O246  1  0.01139791  0.76490681  0.87523424  1
  O  O247  1  0.49878348  0.25475312  0.36499749  1
  O  O248  1  0.50589254  0.25449482  0.86736934  1
  O  O249  1  0.50818532  0.76131724  0.38231461  1
  O  O250  1  0.49964399  0.76656240  0.87410459  1
  O  O251  1  0.24380629  0.12825723  0.49282117  1
  O  O252  1  0.25498851  0.12306933  0.98222439  1
  O  O253  1  0.25014857  0.64168997  0.50764720  1
  O  O254  1  0.25289184  0.61956642  0.98592895  1
  O  O255  1  0.74980405  0.13074615  0.49548196  1
  O  O256  1  0.73701886  0.12041274  0.99431201  1
  O  O257  1  0.75724426  0.63458080  0.49787162  1
  O  O258  1  0.73388018  0.63349787  1.00687000  1
  O  O259  1  0.25925348  0.37622194  0.00340935  1
  O  O260  1  0.25405609  0.36491635  0.50744360  1
  O  O261  1  0.25959300  0.88207213  0.00876949  1
  O  O262  1  0.25667438  0.87192036  0.50723790  1
  O  O263  1  0.75136126  0.37748742  -0.00392672  1
  O  O264  1  0.76004509  0.36772988  0.50918349  1
  O  O265  1  0.76087008  0.86447282  0.00318153  1
  O  O266  1  0.75746227  0.86972012  0.50598851  1
  O  O267  1  0.13723547  0.49732659  0.23643533  1
  O  O268  1  0.14010784  0.50728915  0.74333065  1
  O  O269  1  0.12918942  0.99129949  0.24239785  1
  O  O270  1  0.13300442  1.00648505  0.73766452  1
  O  O271  1  0.62216509  0.48855965  0.24937858  1
  O  O272  1  0.59877239  0.47719520  0.72626983  1
  O  O273  1  0.63039766  0.98790007  0.24669344  1
  O  O274  1  0.62188691  0.99309906  0.73693563  1
  O  O275  1  0.36922224  0.00338738  0.25502757  1
  O  O276  1  0.36804102  0.00591691  0.75407207  1
  O  O277  1  0.36243510  0.51212292  0.24892584  1
  O  O278  1  0.36789247  0.51043068  0.75724321  1
  O  O279  1  0.86119598  -0.00246675  0.24627723  1
  O  O280  1  0.88125353  0.01607497  0.75258443  1
  O  O281  1  0.87727344  0.50911264  0.24911778  1
  O  O282  1  0.87942969  0.51844656  0.74687365  1
  O  O283  1  0.14706737  0.36278416  0.35355558  1
  O  O284  1  0.10894522  0.37785721  0.88137887  1
  O  O285  1  0.12832150  0.86775830  0.36113915  1
  O  O286  1  0.11445424  0.86948579  0.87523541  1
  O  O287  1  0.61244595  0.36726260  0.36663484  1
  O  O288  1  0.61592960  0.36494401  0.86984107  1
  O  O289  1  0.61828467  0.86759929  0.37016017  1
  O  O290  1  0.61970777  0.87846707  0.86742082  1
  O  O291  1  0.37861586  0.12771492  0.12845320  1
  O  O292  1  0.37994969  0.13051747  0.62987762  1
  O  O293  1  0.38018464  0.63248132  0.12804087  1
  O  O294  1  0.37322776  0.62715538  0.63747304  1
  O  O295  1  0.87771094  0.13239406  0.12651186  1
  O  O296  1  0.87222896  0.13437598  0.63394898  1
  O  O297  1  0.87915756  0.63050985  0.13426518  1
  O  O298  1  0.89315500  0.63206883  0.62650083  1
  O  O299  1  0.26120834  0.25925291  0.12590443  1
  O  O300  1  0.25435634  0.25620509  0.62225132  1
  O  O301  1  0.25766444  0.76207102  0.12783729  1
  O  O302  1  0.24142525  0.76422985  0.61963367  1
  O  O303  1  0.75927044  0.24969221  0.12718499  1
  O  O304  1  0.76357553  0.25446285  0.62106441  1
  O  O305  1  0.76362303  0.74956665  0.12194418  1
  O  O306  1  0.74872434  0.76338308  0.61716225  1
  O  O307  1  0.25106398  0.23701374  0.37998273  1
  O  O308  1  0.25513750  0.23358472  0.87112222  1
  O  O309  1  0.24105634  0.75739966  0.38598963  1
  O  O310  1  0.24220803  0.74484506  0.87715445  1
  O  O311  1  0.74853729  0.24224224  0.38524726  1
  O  O312  1  0.73967511  0.24128156  0.87178629  1
  O  O313  1  0.74267939  0.73896332  0.38355276  1
  O  O314  1  0.75077812  0.75307438  0.88727688  1
  O  O315  1  -0.00326498  0.12348637  0.01155617  1
  O  O316  1  0.00630975  0.11351082  0.49308953  1
  O  O317  1  0.00276805  0.61497342  0.00421777  1
  O  O318  1  0.00493816  0.62760399  0.51834813  1
  O  O319  1  0.50686222  0.11757752  0.00329432  1
  O  O320  1  0.50163646  0.12035317  0.50592098  1
  O  O321  1  0.51071307  0.63719483  0.01511012  1
  O  O322  1  0.49746947  0.62511895  0.51343867  1
  O  O323  1  0.48040636  0.36349632  0.48824222  1
  O  O324  1  0.49434965  0.36947534  0.98619640  1
  O  O325  1  0.49260554  0.87899416  0.49666959  1
  O  O326  1  0.49493814  0.88027035  0.99365112  1
  O  O327  1  0.98218730  0.36883356  0.50441994  1
  O  O328  1  0.99599944  0.38776596  0.99416088  1
  O  O329  1  0.99181495  0.88880921  0.49833253  1
  O  O330  1  0.98713053  0.87026208  1.00016561  1
  O  O331  1  0.49944271  0.48614343  0.37807209  1
  O  O332  1  0.49014867  0.49018424  0.86694798  1
  O  O333  1  0.49798742  0.99031706  0.38190855  1
  O  O334  1  0.49489319  0.99137705  0.87806618  1
  O  O335  1  1.04162786  0.48221658  0.38727340  1
  O  O336  1  1.00650620  0.49552929  0.88627930  1
  O  O337  1  1.00285879  0.99935470  0.38185357  1
  O  O338  1  1.00132554  0.98308097  0.87532629  1
  O  O339  1  0.00780904  0.00683606  0.12823515  1
  O  O340  1  0.01094996  -0.00124160  0.61564343  1
  O  O341  1  0.00790816  0.50466668  0.11487384  1
  O  O342  1  0.01670291  0.49651652  0.62991433  1
  O  O343  1  0.50482239  0.00519021  0.12159064  1
  O  O344  1  0.50658688  0.00761416  0.62048852  1
  O  O345  1  0.49798938  0.51451744  0.12813454  1
  O  O346  1  0.48962618  0.52093473  0.62118840  1
  O  O347  1  0.25146425  0.38860688  0.23940562  1
  O  O348  1  0.25617517  0.38459321  0.74238866  1
  O  O349  1  0.24277722  0.87937402  0.24214856  1
  O  O350  1  0.25638872  0.88708878  0.74227190  1
  O  O351  1  0.73491271  0.37226096  0.25603790  1
  O  O352  1  0.74716696  0.37661286  0.74772036  1
  O  O353  1  0.74176675  0.87949750  0.24933010  1
  O  O354  1  0.74278456  0.87279958  0.74299278  1
  O  O355  1  0.25442429  0.11972178  0.25311623  1
  O  O356  1  0.25477563  0.11554480  0.75747424  1
  O  O357  1  0.26033284  0.61406826  0.24561271  1
  O  O358  1  0.26208149  0.62032848  0.75934546  1
  O  O359  1  0.74820133  0.11326082  0.25887530  1
  O  O360  1  0.75956307  0.12949336  0.75968659  1
  O  O361  1  0.75941852  0.62355763  0.26190155  1
  O  O362  1  0.77099961  0.62557092  0.74204759  1
  O  O363  1  0.37024884  0.11768670  0.36858490  1
  O  O364  1  0.36972104  0.11778238  0.86863440  1
  O  O365  1  0.37769849  0.63128643  0.36393836  1
  O  O366  1  0.37394980  0.62005899  0.87039527  1
  O  O367  1  0.86112387  0.12866118  0.37279688  1
  O  O368  1  0.86679936  0.12438527  0.87120651  1
  O  O369  1  0.86624025  0.62867499  0.36884612  1
  O  O370  1  0.88537572  0.63106624  0.86196990  1
  O  O371  1  0.13087476  0.38332087  0.13097229  1
  O  O372  1  0.13724847  0.38268732  0.62268958  1
  O  O373  1  0.13020908  0.87843930  0.13053766  1
  O  O374  1  0.13508267  0.88718193  0.61800507  1
  O  O375  1  0.62214355  0.37535504  0.13534093  1
  O  O376  1  0.64600121  0.35651151  0.63978970  1
  O  O377  1  0.62366032  0.87698887  0.13452071  1
  O  O378  1  0.63066449  0.88180154  0.63232765  1
  O  O379  1  0.12306360  0.25972041  0.24473620  1
  O  O380  1  0.11171193  0.24160453  0.74346649  1
  O  O381  1  0.11913514  0.75567812  0.25412136  1
  O  O382  1  0.13198014  0.74911931  0.76918333  1
  O  O383  1  0.61114070  0.25417739  0.24882171  1
  O  O384  1  0.62031688  0.25724418  0.75942016  1
  O  O385  1  0.63198848  0.76150248  0.25992680  1
  O  O386  1  0.62234591  0.76081865  0.75393909  1
  O  O387  1  0.38300385  0.24568272  0.24315484  1
  O  O388  1  0.38187076  0.24377367  0.74286431  1
  O  O389  1  0.36604686  0.73572939  0.24344420  1
  O  O390  1  0.37621154  0.73688001  0.75499284  1
  O  O391  1  0.87448719  0.24742875  0.23715513  1
  O  O392  1  0.88280640  0.24150408  0.74416057  1
  O  O393  1  0.88118489  0.74374065  0.24431459  1
  O  O394  1  0.87747573  0.73897906  0.74511251  1
  O  O395  1  0.37198757  0.48799454  0.50021298  1
  O  O396  1  0.37613648  0.48879456  0.99081492  1
  O  O397  1  0.37913722  0.99185196  0.49365019  1
  O  O398  1  0.38132865  0.98930429  0.99558078  1
  O  O399  1  0.87341141  0.48654124  0.50699577  1
  O  O400  1  0.88689420  0.50332305  1.00357259  1
  O  O401  1  0.88842370  0.99520709  0.49980278  1
  O  O402  1  0.86835044  0.98293997  0.99971815  1
  O  O403  1  0.13038578  0.00324023  0.01231437  1
  O  O404  1  0.11399952  0.00412324  0.50106950  1
  O  O405  1  0.12017922  0.50335146  0.00988953  1
  O  O406  1  0.14745722  0.50965370  0.52296332  1
  O  O407  1  0.62010228  0.00449771  0.00711710  1
  O  O408  1  0.61810371  -0.00118397  0.51283618  1
  O  O409  1  0.62244103  0.51869116  0.00498443  1
  O  O410  1  0.60504360  0.45790265  0.51772318  1
  O  O411  1  0.37442634  0.37274708  0.11584291  1
  O  O412  1  0.36621049  0.37137427  0.61826775  1
  O  O413  1  0.36852846  0.86910852  0.12007647  1
  O  O414  1  0.36563459  0.88282826  0.61560392  1
  O  O415  1  0.87039808  0.36243730  0.12228993  1
  O  O416  1  0.86819541  0.36831353  0.62316975  1
  O  O417  1  0.87565783  0.86618961  0.11574304  1
  O  O418  1  0.86744663  0.87661947  0.61682562  1
  O  O419  1  0.13137709  0.12517364  0.38267898  1
  O  O420  1  0.13920885  0.11679086  0.87545275  1
  O  O421  1  0.12477186  0.63876354  0.37286915  1
  O  O422  1  0.13427450  0.63426172  0.87601466  1
  O  O423  1  0.63566456  0.12852372  0.37962177  1
  O  O424  1  0.63074824  0.12927069  0.88021019  1
  O  O425  1  0.62813896  0.63595932  0.37065491  1
  O  O426  1  0.60481995  0.63621610  0.89469113  1
