# generated using pymatgen
data_V85Zn86O256
_symmetry_space_group_name_H-M   'P 1'
_cell_length_a   16.92450905
_cell_length_b   16.92558632
_cell_length_c   16.92912314
_cell_angle_alpha   89.93442525
_cell_angle_beta   89.99287185
_cell_angle_gamma   90.08018853
_symmetry_Int_Tables_number   1
_chemical_formula_structural   V85Zn86O256
_chemical_formula_sum   'V85 Zn86 O256'
_cell_volume   4849.46190743
_cell_formula_units_Z   1
loop_
 _symmetry_equiv_pos_site_id
 _symmetry_equiv_pos_as_xyz
  1  'x, y, z'
loop_
 _atom_site_type_symbol
 _atom_site_label
 _atom_site_symmetry_multiplicity
 _atom_site_fract_x
 _atom_site_fract_y
 _atom_site_fract_z
 _atom_site_occupancy
  V  V0  1  0.87568727  0.75348916  0.12058121  1
  V  V1  1  0.62481260  0.74565710  0.37353637  1
  V  V2  1  0.12715384  0.37628095  0.24920163  1
  V  V3  1  0.87253365  0.25216239  0.12329927  1
  V  V4  1  -0.00089668  0.50431078  -0.00400905  1
  V  V5  1  -0.00106720  0.24879793  0.25289990  1
  V  V6  1  0.25247524  0.25084419  0.50010961  1
  V  V7  1  0.50290480  0.87882800  0.87353070  1
  V  V8  1  0.25867357  0.87260924  0.63035442  1
  V  V9  1  0.00975293  0.74779968  0.75934314  1
  V  V10  1  0.37820545  0.11879356  0.75286814  1
  V  V11  1  0.12612706  0.87698705  0.24473192  1
  V  V12  1  0.24531229  0.62960453  0.86905925  1
  V  V13  1  0.87741181  0.50148058  0.37433530  1
  V  V14  1  0.13013063  0.25266261  0.87771443  1
  V  V15  1  0.00043856  0.12584507  0.63505045  1
  V  V16  1  0.37993232  0.00632675  0.37604506  1
  V  V17  1  0.12397186  0.37710620  0.74863031  1
  V  V18  1  0.24003841  0.74351390  -0.00205518  1
  V  V19  1  0.25476901  0.37512164  0.10834021  1
  V  V20  1  0.50014687  0.25551731  0.75738017  1
  V  V21  1  0.37730763  0.49184725  0.88248815  1
  V  V22  1  0.12290502  0.62891974  0.50637346  1
  V  V23  1  0.86106850  0.12240113  0.25370438  1
  V  V24  1  0.63013836  0.37639360  0.75716332  1
  V  V25  1  0.50850215  0.38052373  0.37452893  1
  V  V26  1  0.61869695  0.61637744  0.50284260  1
  V  V27  1  0.26122946  0.50345678  0.74824228  1
  V  V28  1  0.00427331  0.63074810  0.11617110  1
  V  V29  1  0.62572281  0.49811951  0.62825546  1
  V  V30  1  0.12944842  0.13232241  0.00246642  1
  V  V31  1  0.75249735  0.74143564  0.50360172  1
  V  V32  1  0.37396147  0.62634980  0.24919508  1
  V  V33  1  0.12523397  0.00492910  0.12571988  1
  V  V34  1  0.73633642  0.24258398  -0.00015596  1
  V  V35  1  0.12300211  0.50275188  0.12141028  1
  V  V36  1  0.86186586  0.49899598  0.87166001  1
  V  V37  1  0.50111665  0.75024626  0.24761441  1
  V  V38  1  -0.00618660  0.00499404  -0.00936717  1
  V  V39  1  0.25815386  0.75281607  0.50262308  1
  V  V40  1  0.88699755  0.74381447  0.62377094  1
  V  V41  1  0.87341775  0.25053612  0.63206448  1
  V  V42  1  0.25034855  0.49999613  0.24836754  1
  V  V43  1  0.74191055  0.75177261  -0.00558971  1
  V  V44  1  0.62925069  0.00966394  0.12190062  1
  V  V45  1  0.12651213  0.25034951  0.37623354  1
  V  V46  1  0.87529853  0.62080972  0.74622880  1
  V  V47  1  0.69280953  0.07791935  0.43772972  1
  V  V48  1  0.87125552  0.88443071  -0.01134142  1
  V  V49  1  0.37765836  0.24737607  0.62507346  1
  V  V50  1  0.12740944  -0.00681953  0.63116566  1
  V  V51  1  0.00228877  0.37705096  0.37607247  1
  V  V52  1  0.37571685  0.87949137  -0.00857415  1
  V  V53  1  0.25100589  0.37472859  0.62494055  1
  V  V54  1  0.00095702  -0.00077266  0.50270071  1
  V  V55  1  0.48707338  0.62789042  0.62451242  1
  V  V56  1  0.37717126  0.75143809  0.11877621  1
  V  V57  1  -0.00019730  0.12791935  0.12722902  1
  V  V58  1  0.48851029  0.12327304  0.12434384  1
  V  V59  1  0.25751506  0.12710500  0.37333084  1
  V  V60  1  0.62826604  0.87109140  0.75253053  1
  V  V61  1  0.00058619  0.50444021  0.50865262  1
  V  V62  1  0.49787448  0.87482157  0.37727343  1
  V  V63  1  0.74198231  0.62706758  0.87053676  1
  V  V64  1  0.12848787  0.12411280  0.50117672  1
  V  V65  1  0.74808159  0.87825289  0.13270764  1
  V  V66  1  0.51555664  0.11940353  0.62292747  1
  V  V67  1  0.74594384  0.87662158  0.62324182  1
  V  V68  1  0.00142901  0.75199729  0.24403318  1
  V  V69  1  0.75596047  0.11691301  0.86793442  1
  V  V70  1  0.49063623  0.74364380  0.75474232  1
  V  V71  1  0.24810909  0.62765445  0.37377681  1
  V  V72  1  0.25623007  0.12496116  0.87955635  1
  V  V73  1  0.74791801  0.49021638  0.25022570  1
  V  V74  1  0.24990241  -0.00553174  0.75721752  1
  V  V75  1  0.25646500  0.00515094  0.24957225  1
  V  V76  1  0.62131556  0.49652023  0.12672874  1
  V  V77  1  0.74938420  0.62372663  0.37112085  1
  V  V78  1  0.74507498  0.25199944  0.49979738  1
  V  V79  1  -0.00287084  0.37556891  0.87639713  1
  V  V80  1  0.62954316  0.25242897  0.36550078  1
  V  V81  1  0.00036356  0.87704419  0.37243569  1
  V  V82  1  0.87460504  0.00602868  0.37540303  1
  V  V83  1  0.37730074  0.49848170  0.38174706  1
  V  V84  1  0.37132739  0.25365021  0.11899342  1
  Zn  Zn85  1  0.49019157  0.24838854  0.25218585  1
  Zn  Zn86  1  0.00972443  0.87864499  0.86523955  1
  Zn  Zn87  1  0.87494140  0.62430465  0.24426077  1
  Zn  Zn88  1  0.75643849  -0.00322156  0.75656138  1
  Zn  Zn89  1  0.61969405  0.62651203  -0.00254368  1
  Zn  Zn90  1  0.87489726  0.37480543  0.50114630  1
  Zn  Zn91  1  0.49135125  0.49367725  -0.00069798  1
  Zn  Zn92  1  0.86614935  0.37461581  -0.00242135  1
  Zn  Zn93  1  0.51002996  0.00202480  0.50408700  1
  Zn  Zn94  1  0.87734653  0.87147925  0.49923153  1
  Zn  Zn95  1  0.38233205  0.87433919  0.50659702  1
  Zn  Zn96  1  0.49969214  0.00984499  -0.01020696  1
  Zn  Zn97  1  0.75149558  0.38065353  0.62560024  1
  Zn  Zn98  1  0.50111000  0.62507118  0.11749899  1
  Zn  Zn99  1  0.12563845  0.75231063  0.37448434  1
  Zn  Zn100  1  0.74521674  0.37081324  0.12784937  1
  Zn  Zn101  1  0.38178296  0.37796836  0.50263938  1
  Zn  Zn102  1  0.12257071  0.50420758  0.62883742  1
  Zn  Zn103  1  0.62688101  0.87956575  0.24928149  1
  Zn  Zn104  1  0.25275881  0.87712724  0.12107542  1
  Zn  Zn105  1  -0.00503185  0.24726306  0.75490001  1
  Zn  Zn106  1  0.61783059  0.23975926  0.87996432  1
  Zn  Zn107  1  0.19311543  0.19182432  0.18885429  1
  Zn  Zn108  1  0.18816413  0.18632902  0.69113447  1
  Zn  Zn109  1  0.18693611  0.68972886  0.18165109  1
  Zn  Zn110  1  0.19085665  0.68822570  0.68668494  1
  Zn  Zn111  1  0.68356932  0.18398463  0.18630481  1
  Zn  Zn112  1  0.69027651  0.18999527  0.69176330  1
  Zn  Zn113  1  0.68795535  0.68495949  0.18494627  1
  Zn  Zn114  1  0.68421655  0.68983089  0.69036403  1
  Zn  Zn115  1  0.31700002  0.31477477  0.30791626  1
  Zn  Zn116  1  0.31201774  0.31151356  0.81273293  1
  Zn  Zn117  1  0.31346591  0.81531706  0.31222741  1
  Zn  Zn118  1  0.31470862  0.81004686  0.81406439  1
  Zn  Zn119  1  0.81391752  0.31086812  0.31682992  1
  Zn  Zn120  1  0.80654082  0.30957263  0.81431972  1
  Zn  Zn121  1  0.81544997  0.81335130  0.31177630  1
  Zn  Zn122  1  0.81662685  0.80873379  0.81058597  1
  Zn  Zn123  1  0.18889621  0.43990037  0.43927828  1
  Zn  Zn124  1  0.18360135  0.44720430  0.93321584  1
  Zn  Zn125  1  0.18963943  0.93613638  0.43737532  1
  Zn  Zn126  1  0.18640688  0.93822075  0.93655593  1
  Zn  Zn127  1  0.68733886  0.43647285  0.44059437  1
  Zn  Zn128  1  0.65050410  0.41361865  0.96087158  1
  Zn  Zn129  1  0.68761292  0.91839188  0.43813576  1
  Zn  Zn130  1  0.68276687  0.94082873  0.93749457  1
  Zn  Zn131  1  0.31502173  0.06289111  0.06112542  1
  Zn  Zn132  1  0.31714424  0.06039968  0.56290254  1
  Zn  Zn133  1  0.31423334  0.56454880  0.05924397  1
  Zn  Zn134  1  0.30846662  0.56318068  0.56136498  1
  Zn  Zn135  1  0.81010676  0.06684555  0.06232575  1
  Zn  Zn136  1  0.82973775  0.04606029  0.59731894  1
  Zn  Zn137  1  0.81026931  0.56315324  0.05965905  1
  Zn  Zn138  1  0.81125338  0.56111793  0.56396779  1
  Zn  Zn139  1  0.43804872  0.43395063  0.19227983  1
  Zn  Zn140  1  0.44311600  0.43877164  0.68720241  1
  Zn  Zn141  1  0.43840128  0.93785106  0.18664382  1
  Zn  Zn142  1  0.44080529  0.93921177  0.69173705  1
  Zn  Zn143  1  0.93636268  0.43806621  0.18710197  1
  Zn  Zn144  1  0.93515580  0.43547843  0.68962781  1
  Zn  Zn145  1  0.93517854  0.94113517  0.18353924  1
  Zn  Zn146  1  0.93422505  0.92780817  0.69028825  1
  Zn  Zn147  1  0.06306895  0.06466406  0.31327853  1
  Zn  Zn148  1  0.06748201  0.06303760  0.81419199  1
  Zn  Zn149  1  0.06261122  0.56692529  0.31105333  1
  Zn  Zn150  1  0.06183506  0.56569738  0.81246211  1
  Zn  Zn151  1  0.56013896  0.06245660  0.30187083  1
  Zn  Zn152  1  0.57384393  0.05946438  0.81029183  1
  Zn  Zn153  1  0.56208050  0.56138848  0.30839505  1
  Zn  Zn154  1  0.55975426  0.56040704  0.80966567  1
  Zn  Zn155  1  0.44419842  0.18937966  0.44001063  1
  Zn  Zn156  1  0.43522902  0.19203780  0.94330241  1
  Zn  Zn157  1  0.43669794  0.68582789  0.43861301  1
  Zn  Zn158  1  0.43455799  0.67969978  0.93176394  1
  Zn  Zn159  1  0.93432958  0.18624191  0.44509835  1
  Zn  Zn160  1  0.93416524  0.18888474  0.93753237  1
  Zn  Zn161  1  0.94037285  0.68633013  0.43332694  1
  Zn  Zn162  1  0.93088877  0.68795455  0.93567758  1
  Zn  Zn163  1  0.06184916  0.31600983  0.06130881  1
  Zn  Zn164  1  0.06138373  0.31376851  0.56301618  1
  Zn  Zn165  1  0.07288171  0.82864706  0.03312330  1
  Zn  Zn166  1  0.06758126  0.81295725  0.56481618  1
  Zn  Zn167  1  0.55418756  0.31609810  0.06853639  1
  Zn  Zn168  1  0.56331979  0.31113868  0.55960752  1
  Zn  Zn169  1  0.56326517  0.81722297  0.06057381  1
  Zn  Zn170  1  0.56297154  0.80585972  0.56480256  1
  O  O171  1  0.12198813  0.12721092  0.11943329  1
  O  O172  1  0.12137976  0.11712653  0.62022650  1
  O  O173  1  0.11125736  0.61900733  0.12866970  1
  O  O174  1  0.13019794  0.62291106  0.61043732  1
  O  O175  1  0.61723402  0.11398163  0.12251589  1
  O  O176  1  0.61364967  0.12652367  0.63029772  1
  O  O177  1  0.62102243  0.61581422  0.12511716  1
  O  O178  1  0.61951943  0.62073232  0.61859956  1
  O  O179  1  0.38152235  0.38379262  0.37773911  1
  O  O180  1  0.36503566  0.39193867  0.87090836  1
  O  O181  1  0.38734539  0.88058264  0.37715608  1
  O  O182  1  0.38544264  0.87122882  0.88195701  1
  O  O183  1  0.88272899  0.38696710  0.37658177  1
  O  O184  1  0.87917803  0.38171999  0.87232870  1
  O  O185  1  0.87993143  0.88710527  0.37684403  1
  O  O186  1  0.88107934  0.87345879  0.88671548  1
  O  O187  1  0.25840860  0.00537962  0.36940609  1
  O  O188  1  0.24320422  0.00919152  0.86726127  1
  O  O189  1  0.25640204  0.50633239  0.36796865  1
  O  O190  1  0.25528104  0.50643528  0.86605174  1
  O  O191  1  0.75457162  0.00761968  0.38848430  1
  O  O192  1  0.75132831  0.01023137  0.87641647  1
  O  O193  1  0.75711478  0.50384137  0.37045469  1
  O  O194  1  0.76147367  0.50747762  0.87996973  1
  O  O195  1  0.24575868  0.49377020  0.12760464  1
  O  O196  1  0.24770551  0.49380919  0.63129543  1
  O  O197  1  0.24560059  1.00010829  0.13331996  1
  O  O198  1  0.24494090  0.99668436  0.63394956  1
  O  O199  1  0.74974381  0.49975993  0.13696222  1
  O  O200  1  0.73220567  0.50124027  0.62095554  1
  O  O201  1  0.73785125  0.99518302  0.12006060  1
  O  O202  1  0.74009010  0.97451670  0.60102931  1
  O  O203  1  0.00642743  0.36989967  0.25599844  1
  O  O204  1  0.00833763  0.37420597  0.75861093  1
  O  O205  1  0.00717173  0.87212244  0.24971947  1
  O  O206  1  -0.00233985  0.85750802  0.75089317  1
  O  O207  1  0.49508009  0.36901125  0.26881263  1
  O  O208  1  0.51031275  0.36423341  0.74390755  1
  O  O209  1  0.49864037  0.86333932  0.25675384  1
  O  O210  1  0.50785054  0.86760013  0.75336640  1
  O  O211  1  0.50358636  0.13124609  0.23090422  1
  O  O212  1  0.49379455  0.12832206  0.74214272  1
  O  O213  1  0.49208158  0.63801632  0.25182252  1
  O  O214  1  0.50316495  0.63661605  0.74131265  1
  O  O215  1  0.99612623  0.13264448  0.24551240  1
  O  O216  1  1.00700235  0.12655309  0.73875509  1
  O  O217  1  0.99786590  0.63617908  0.24104931  1
  O  O218  1  0.98892391  0.63419624  0.75243972  1
  O  O219  1  0.37307060  0.25347159  0.01639274  1
  O  O220  1  0.36949766  0.24979477  0.50983463  1
  O  O221  1  0.37094684  0.75509108  0.00548072  1
  O  O222  1  0.36222589  0.75288726  0.49676780  1
  O  O223  1  0.86785644  0.25223271  0.01073464  1
  O  O224  1  0.86364664  0.25320495  0.50485755  1
  O  O225  1  0.86938719  0.76114798  0.00836669  1
  O  O226  1  0.86992296  0.74364847  0.50561151  1
  O  O227  1  0.13191935  0.24549705  0.49507261  1
  O  O228  1  0.12073763  0.24048109  0.99407875  1
  O  O229  1  0.13327252  0.74481847  0.49630898  1
  O  O230  1  0.14293451  0.73934024  1.01642024  1
  O  O231  1  0.63778160  0.25042748  0.49151085  1
  O  O232  1  0.63436370  0.24713313  1.00492502  1
  O  O233  1  0.63323975  0.73814703  0.49388568  1
  O  O234  1  0.63869175  0.74800648  1.00531466  1
  O  O235  1  0.49130604  0.24335355  0.12780707  1
  O  O236  1  0.49309292  0.24037858  0.63142868  1
  O  O237  1  0.49442687  0.75030664  0.13171695  1
  O  O238  1  0.50139586  0.73577717  0.63348856  1
  O  O239  1  0.99294585  0.24670590  0.13062499  1
  O  O240  1  0.99553770  0.24249767  0.62636652  1
  O  O241  1  0.99468476  0.74640603  0.12248502  1
  O  O242  1  0.99046807  0.75233871  0.62753670  1
  O  O243  1  0.00539180  0.25584992  0.37404865  1
  O  O244  1  0.00975476  0.25596990  0.87508983  1
  O  O245  1  0.00084163  0.75923486  0.36450638  1
  O  O246  1  -0.00406657  0.74870838  0.86235391  1
  O  O247  1  0.51085822  0.25587273  0.37295399  1
  O  O248  1  0.49875371  0.24265868  0.86146830  1
  O  O249  1  0.50225352  0.75617833  0.36933581  1
  O  O250  1  0.49643106  0.75463983  0.86102397  1
  O  O251  1  0.24702242  0.13032580  0.49514454  1
  O  O252  1  0.24168893  0.12051299  0.99170054  1
  O  O253  1  0.24375184  0.63320892  0.49396389  1
  O  O254  1  0.25534227  0.63780711  0.99127447  1
  O  O255  1  0.74970813  0.12939848  0.50407979  1
  O  O256  1  0.75146462  0.13747132  0.99438428  1
  O  O257  1  0.74338574  0.62845978  0.49257549  1
  O  O258  1  0.75429082  0.63690715  0.98967933  1
  O  O259  1  0.24080932  0.38074189  0.01105326  1
  O  O260  1  0.25212795  0.36933904  0.50839811  1
  O  O261  1  0.25910205  0.86133950  -0.00192183  1
  O  O262  1  0.25181785  0.86838197  0.50801623  1
  O  O263  1  0.74769849  0.35868469  0.00517599  1
  O  O264  1  0.75270724  0.36702752  0.50485169  1
  O  O265  1  0.75541379  0.87056287  0.00599779  1
  O  O266  1  0.75318768  0.85357368  0.50253020  1
  O  O267  1  0.12921061  0.49669847  0.24261142  1
  O  O268  1  0.13087936  0.48971951  0.74998004  1
  O  O269  1  0.13092721  0.99562914  0.24518634  1
  O  O270  1  0.13581824  1.00346268  0.74231025  1
  O  O271  1  0.63677113  0.50686106  0.24077663  1
  O  O272  1  0.62023767  0.48450571  0.74484523  1
  O  O273  1  0.61885064  0.99522264  0.22916216  1
  O  O274  1  0.63250585  0.97834699  0.74761227  1
  O  O275  1  0.36736030  -0.00557941  0.26223844  1
  O  O276  1  0.36752954  0.01268186  0.74861346  1
  O  O277  1  0.36929778  0.50658986  0.25788004  1
  O  O278  1  0.36367588  0.49638804  0.75155622  1
  O  O279  1  0.88063421  0.00937423  0.26193214  1
  O  O280  1  0.85710327  0.00434495  0.70452965  1
  O  O281  1  0.87020441  0.50253158  0.25817869  1
  O  O282  1  0.87979105  0.50977418  0.75763873  1
  O  O283  1  0.12188552  0.37127403  0.36966044  1
  O  O284  1  0.12059211  0.36955903  0.86978539  1
  O  O285  1  0.11959321  0.87804517  0.36075159  1
  O  O286  1  0.10465661  0.86590677  0.92459041  1
  O  O287  1  0.61595542  0.37051410  0.37670512  1
  O  O288  1  0.63192964  0.36436256  0.85841250  1
  O  O289  1  0.61397437  0.86601085  0.36916423  1
  O  O290  1  0.61994879  0.87131264  0.86405176  1
  O  O291  1  0.38092164  0.13240835  0.12529421  1
  O  O292  1  0.37542250  0.13407754  0.63498372  1
  O  O293  1  0.37718786  0.63533014  0.12999509  1
  O  O294  1  0.38830979  0.62056240  0.62036224  1
  O  O295  1  0.87931985  0.13465325  0.13365986  1
  O  O296  1  0.89288102  0.13915524  0.61160165  1
  O  O297  1  0.88387650  0.63596784  0.12264957  1
  O  O298  1  0.87034864  0.63027878  0.63436853  1
  O  O299  1  0.25204537  0.26799506  0.12664598  1
  O  O300  1  0.25772875  0.25413845  0.62284251  1
  O  O301  1  0.26017335  0.75094331  0.11466734  1
  O  O302  1  0.24588181  0.76148403  0.61778802  1
  O  O303  1  0.75517529  0.24682674  0.11794611  1
  O  O304  1  0.75818731  0.24861969  0.61747581  1
  O  O305  1  0.75813819  0.75732249  0.11884915  1
  O  O306  1  0.75755110  0.74876201  0.61596469  1
  O  O307  1  0.24737967  0.24657112  0.37889794  1
  O  O308  1  0.23766526  0.24200011  0.87051329  1
  O  O309  1  0.24850512  0.74605022  0.38101589  1
  O  O310  1  0.25162918  0.73971853  0.88271351  1
  O  O311  1  0.74305025  0.25245695  0.38434538  1
  O  O312  1  0.74652474  0.24368792  0.88837640  1
  O  O313  1  0.74763635  0.74331420  0.38022096  1
  O  O314  1  0.75755579  0.74177144  0.88408442  1
  O  O315  1  0.00464735  0.12239562  0.00677592  1
  O  O316  1  0.00954540  0.11496587  0.50547440  1
  O  O317  1  -0.00647117  0.61828287  0.00554017  1
  O  O318  1  0.01085394  0.61686204  0.49194707  1
  O  O319  1  0.49566393  0.12474292  0.01543336  1
  O  O320  1  0.49836773  0.12415060  0.51831191  1
  O  O321  1  0.50226014  0.61520250  -0.00107902  1
  O  O322  1  0.50680176  0.63173550  0.51254752  1
  O  O323  1  0.49712386  0.36869118  0.48226728  1
  O  O324  1  0.53821211  0.39171885  0.99015163  1
  O  O325  1  0.50321030  0.87834337  0.49320445  1
  O  O326  1  0.49259558  0.87083927  0.98822663  1
  O  O327  1  1.00197054  0.38503380  0.49097007  1
  O  O328  1  0.99496355  0.38200180  0.99140395  1
  O  O329  1  1.00346230  0.88482813  0.49467039  1
  O  O330  1  0.98100344  0.89452742  1.01736767  1
  O  O331  1  0.49373008  0.49011428  0.37060925  1
  O  O332  1  0.47927103  0.50456693  0.86865975  1
  O  O333  1  0.49570728  0.99395095  0.37390995  1
  O  O334  1  0.50512920  0.98558299  0.87270520  1
  O  O335  1  0.99400588  0.49724199  0.37899119  1
  O  O336  1  0.99320814  0.49568125  0.88090678  1
  O  O337  1  0.99471460  0.99675562  0.38257311  1
  O  O338  1  1.00249055  1.00169284  0.88676865  1
  O  O339  1  0.00597646  0.01284103  0.12205395  1
  O  O340  1  0.00958929  0.00440650  0.61979586  1
  O  O341  1  0.00002631  0.50880398  0.11730220  1
  O  O342  1  0.00068421  0.49589398  0.61162264  1
  O  O343  1  0.50127714  0.01091679  0.12285968  1
  O  O344  1  0.49754377  0.01461592  0.62434493  1
  O  O345  1  0.51102120  0.50122396  0.12969557  1
  O  O346  1  0.51027618  0.51679545  0.63144845  1
  O  O347  1  0.24295208  0.38528931  0.24598551  1
  O  O348  1  0.24291429  0.38117750  0.74335553  1
  O  O349  1  0.24296091  0.88632422  0.24885728  1
  O  O350  1  0.25437621  0.88464639  0.74684391  1
  O  O351  1  0.75532826  0.38713230  0.25171973  1
  O  O352  1  0.73434940  0.36716658  0.74227548  1
  O  O353  1  0.74991810  0.87204862  0.23699012  1
  O  O354  1  0.74393941  0.86913231  0.74241706  1
  O  O355  1  0.24462420  0.11247202  0.25685718  1
  O  O356  1  0.25680506  0.11743000  0.75826476  1
  O  O357  1  0.25338917  0.62063567  0.25290626  1
  O  O358  1  0.24779702  0.61843629  0.75804594  1
  O  O359  1  0.76188658  0.12568983  0.24884754  1
  O  O360  1  0.74955044  0.12310727  0.76264734  1
  O  O361  1  0.75474488  0.61949092  0.25741255  1
  O  O362  1  0.76107200  0.63323743  0.75893620  1
  O  O363  1  0.37046377  0.11909094  0.37843728  1
  O  O364  1  0.36356797  0.13173206  0.86914513  1
  O  O365  1  0.36868495  0.61909936  0.36973465  1
  O  O366  1  0.35687999  0.61127880  0.87596831  1
  O  O367  1  0.88187462  0.11398764  0.36984070  1
  O  O368  1  0.85673212  0.13206721  0.87762710  1
  O  O369  1  0.87103491  0.61416746  0.37183090  1
  O  O370  1  0.86776340  0.61765672  0.86650755  1
  O  O371  1  0.13272518  0.38123276  0.13015824  1
  O  O372  1  0.13059915  0.37625896  0.63349037  1
  O  O373  1  0.12758633  0.88331319  0.13213235  1
  O  O374  1  0.13660549  0.88825824  0.62151208  1
  O  O375  1  0.62821621  0.39121245  0.13288800  1
  O  O376  1  0.62214547  0.38365496  0.62978889  1
  O  O377  1  0.63339375  0.88033304  0.12743133  1
  O  O378  1  0.63471212  0.86202060  0.63520898  1
  O  O379  1  0.12014016  0.25539628  0.25757532  1
  O  O380  1  0.12413120  0.26121106  0.75769807  1
  O  O381  1  0.12102373  0.76104158  0.24791182  1
  O  O382  1  0.10814615  0.74136851  0.74559970  1
  O  O383  1  0.62865485  0.24908580  0.26297694  1
  O  O384  1  0.61486538  0.25948039  0.74700602  1
  O  O385  1  0.61663994  0.74965452  0.25550003  1
  O  O386  1  0.61300224  0.76114447  0.74800268  1
  O  O387  1  0.37230868  0.25352944  0.23189891  1
  O  O388  1  0.38011659  0.24202402  0.74404593  1
  O  O389  1  0.37950142  0.74735805  0.24145720  1
  O  O390  1  0.39182170  0.75676187  0.74530496  1
  O  O391  1  0.88023282  0.24295193  0.24707097  1
  O  O392  1  0.87563934  0.25366516  0.73668075  1
  O  O393  1  0.88199921  0.75243357  0.23566247  1
  O  O394  1  0.88294607  0.74109087  0.74066849  1
  O  O395  1  0.36945423  0.50037715  0.48532005  1
  O  O396  1  0.37227136  0.49614833  0.98834357  1
  O  O397  1  0.37804096  0.99683920  0.48665684  1
  O  O398  1  0.37667013  0.98319553  1.00470783  1
  O  O399  1  0.88318975  0.50131595  0.49222059  1
  O  O400  1  0.88240500  0.49623300  0.99253565  1
  O  O401  1  0.88781372  0.99838333  0.49724345  1
  O  O402  1  0.88133488  0.99735522  1.00488215  1
  O  O403  1  0.11725956  0.01597501  0.00837305  1
  O  O404  1  0.12089174  0.00415456  0.50650881  1
  O  O405  1  0.10791393  0.49660576  0.00610932  1
  O  O406  1  0.11753007  0.50912392  0.49987111  1
  O  O407  1  0.61521939  -0.01055936  0.01781095  1
  O  O408  1  0.63038170  0.01112977  0.48442373  1
  O  O409  1  0.64350640  0.51051930  0.02338817  1
  O  O410  1  0.62411295  0.51150378  0.50428605  1
  O  O411  1  0.36098781  0.37512771  0.12515381  1
  O  O412  1  0.37243831  0.36409147  0.62474534  1
  O  O413  1  0.37476606  0.86418645  0.11879770  1
  O  O414  1  0.36296008  0.88468328  0.62354503  1
  O  O415  1  0.87322718  0.36111315  0.12724247  1
  O  O416  1  0.87444488  0.36635694  0.62116269  1
  O  O417  1  0.86508636  0.87163049  0.11975991  1
  O  O418  1  0.86557144  0.85792036  0.61843594  1
  O  O419  1  0.13445351  0.13011050  0.38120386  1
  O  O420  1  0.13235716  0.13360888  0.88258998  1
  O  O421  1  0.13357710  0.62760542  0.38171962  1
  O  O422  1  0.14525406  0.61287499  0.87763980  1
  O  O423  1  0.62911349  0.13052962  0.37336373  1
  O  O424  1  0.64024575  0.12651104  0.87373034  1
  O  O425  1  0.62756608  0.62742692  0.38205756  1
  O  O426  1  0.63857410  0.61683476  0.87418315  1
