# generated using pymatgen
data_V85Zn86O256
_symmetry_space_group_name_H-M   'P 1'
_cell_length_a   16.94475145
_cell_length_b   16.94635029
_cell_length_c   16.94615695
_cell_angle_alpha   90.04692292
_cell_angle_beta   90.07085271
_cell_angle_gamma   90.08876292
_symmetry_Int_Tables_number   1
_chemical_formula_structural   V85Zn86O256
_chemical_formula_sum   'V85 Zn86 O256'
_cell_volume   4866.10647177
_cell_formula_units_Z   1
loop_
 _symmetry_equiv_pos_site_id
 _symmetry_equiv_pos_as_xyz
  1  'x, y, z'
loop_
 _atom_site_type_symbol
 _atom_site_label
 _atom_site_symmetry_multiplicity
 _atom_site_fract_x
 _atom_site_fract_y
 _atom_site_fract_z
 _atom_site_occupancy
  V  V0  1  0.87583961  0.74948354  0.12313537  1
  V  V1  1  0.49819552  0.25152480  0.74716386  1
  V  V2  1  0.12475350  0.62525271  -0.00273744  1
  V  V3  1  0.75412593  0.63034087  0.37314730  1
  V  V4  1  0.62703126  0.87895156  0.75539136  1
  V  V5  1  0.49260771  0.37561873  0.89144322  1
  V  V6  1  0.87725345  0.50077328  0.87550000  1
  V  V7  1  0.38130061  0.62357268  0.73770850  1
  V  V8  1  0.24895032  0.50548243  0.75060432  1
  V  V9  1  0.75307814  0.49199310  0.24539392  1
  V  V10  1  0.62298402  0.14046980  0.49281352  1
  V  V11  1  0.35426625  0.23411620  0.60993424  1
  V  V12  1  0.87434103  0.25094835  0.11729947  1
  V  V13  1  0.00238179  0.38053656  0.38243885  1
  V  V14  1  0.12919243  0.49787943  0.12361657  1
  V  V15  1  -0.01120818  0.74467198  0.74761807  1
  V  V16  1  0.00778700  0.75504689  0.24761628  1
  V  V17  1  0.87471369  0.00263656  0.37792124  1
  V  V18  1  -0.00376102  0.87506817  0.87510309  1
  V  V19  1  0.87456858  0.12631959  0.25045271  1
  V  V20  1  0.63346426  0.12549114  0.00590115  1
  V  V21  1  0.75469151  0.50487477  0.74925694  1
  V  V22  1  0.24001300  -0.00288266  0.25697737  1
  V  V23  1  0.87771292  0.62286479  0.24772608  1
  V  V24  1  0.61260578  0.49728433  0.12010363  1
  V  V25  1  0.87299507  0.00124802  0.87434539  1
  V  V26  1  0.74265540  0.74926870  -0.00586551  1
  V  V27  1  0.12634882  0.24611079  0.87471685  1
  V  V28  1  0.74546123  0.87408275  0.12886128  1
  V  V29  1  0.61802067  0.50647984  0.62874013  1
  V  V30  1  0.50251523  -0.00231181  0.00220633  1
  V  V31  1  0.25340242  0.75421209  0.00096358  1
  V  V32  1  0.12668406  0.12279285  -0.00082377  1
  V  V33  1  -0.00126395  0.12543495  0.61611454  1
  V  V34  1  0.75077720  0.12932445  0.87616630  1
  V  V35  1  0.50729634  0.12725087  0.62312026  1
  V  V36  1  0.61373988  0.87430589  0.25701072  1
  V  V37  1  0.00251329  -0.00199257  0.00568165  1
  V  V38  1  0.87203822  0.87393786  0.00011956  1
  V  V39  1  0.25142655  0.76244016  0.50840247  1
  V  V40  1  0.76146979  0.88429002  0.61619583  1
  V  V41  1  0.37431380  0.37158565  0.49652774  1
  V  V42  1  0.38030199  -0.00960886  0.38592465  1
  V  V43  1  0.00239040  0.24779314  0.74742419  1
  V  V44  1  -0.00301672  0.87674295  0.37199517  1
  V  V45  1  0.87227425  0.74772729  0.61482725  1
  V  V46  1  0.75137202  0.62816572  0.87307223  1
  V  V47  1  0.00135154  -0.00139320  0.49799121  1
  V  V48  1  0.49923283  0.12325202  0.13086994  1
  V  V49  1  0.12999759  -0.00285933  0.62112831  1
  V  V50  1  0.49449429  0.50618733  0.50436429  1
  V  V51  1  0.00585316  0.12474035  0.12629689  1
  V  V52  1  0.37037527  -0.00316266  0.88052512  1
  V  V53  1  0.23847801  0.87723563  0.13218066  1
  V  V54  1  0.50880741  0.25441555  0.25626270  1
  V  V55  1  0.37437258  0.50122905  0.36529943  1
  V  V56  1  0.87502963  0.12477906  0.74827157  1
  V  V57  1  0.25392299  0.63304213  0.87103556  1
  V  V58  1  0.12171714  0.87558015  0.74534326  1
  V  V59  1  0.36896051  0.12421641  0.26011597  1
  V  V60  1  0.24924188  -0.00258049  0.75160625  1
  V  V61  1  0.12615301  0.37306651  0.74968153  1
  V  V62  1  0.11786851  0.50098883  0.61752187  1
  V  V63  1  0.50603930  0.74254053  0.74933729  1
  V  V64  1  0.25151375  0.37852024  0.62097799  1
  V  V65  1  0.12867463  0.37292936  0.25110002  1
  V  V66  1  0.12652771  0.75491473  0.37497269  1
  V  V67  1  0.62369034  0.37578955  0.75226529  1
  V  V68  1  0.50455329  0.86932848  0.87756619  1
  V  V69  1  0.62618789  0.62710092  0.50370201  1
  V  V70  1  0.00329781  0.62355560  0.12270655  1
  V  V71  1  0.75011506  0.37457975  0.11325857  1
  V  V72  1  0.13867060  0.24547853  0.38296046  1
  V  V73  1  0.62944400  0.25192558  0.88072568  1
  V  V74  1  0.12267048  0.75194079  0.87204368  1
  V  V75  1  0.25186538  0.36220166  0.11357223  1
  V  V76  1  0.56811779  0.69268785  0.32114841  1
  V  V77  1  0.38182795  0.74235766  0.14459848  1
  V  V78  1  -0.00831810  0.62011514  0.61928612  1
  V  V79  1  0.29316773  0.18028327  0.93634915  1
  V  V80  1  0.25284002  0.62712663  0.37189922  1
  V  V81  1  0.56989227  -0.04785012  0.56811017  1
  V  V82  1  0.36949228  0.12659156  0.75304248  1
  V  V83  1  0.74891574  0.37283215  0.62286289  1
  V  V84  1  0.61133900  0.62400404  -0.00096494  1
  Zn  Zn85  1  0.87819003  0.37045427  -0.00494236  1
  Zn  Zn86  1  0.88076456  0.38027512  0.50591890  1
  Zn  Zn87  1  0.37169594  0.24719071  0.11719349  1
  Zn  Zn88  1  0.00269313  0.25102385  0.25183814  1
  Zn  Zn89  1  0.37431373  0.76894794  0.62258891  1
  Zn  Zn90  1  0.50224735  0.87017136  0.38660828  1
  Zn  Zn91  1  0.00479622  0.49471914  -0.00447590  1
  Zn  Zn92  1  0.74906171  0.75732325  0.49172698  1
  Zn  Zn93  1  0.74414610  0.13237491  0.36903546  1
  Zn  Zn94  1  0.75296452  0.25885376  0.48312188  1
  Zn  Zn95  1  0.37758902  0.87292948  0.00845553  1
  Zn  Zn96  1  0.00171048  0.37483386  0.87485316  1
  Zn  Zn97  1  0.74344329  0.00501421  0.74419824  1
  Zn  Zn98  1  0.51755983  0.36527512  0.38224282  1
  Zn  Zn99  1  0.12142660  0.62415342  0.49769178  1
  Zn  Zn100  1  0.25454945  0.50460063  0.24513308  1
  Zn  Zn101  1  0.16014439  0.13249530  0.50314717  1
  Zn  Zn102  1  0.88345691  0.50285786  0.38246483  1
  Zn  Zn103  1  0.87280135  0.25122670  0.62077383  1
  Zn  Zn104  1  0.62443055  -0.00212375  0.12994947  1
  Zn  Zn105  1  0.74875619  -0.00226045  0.25253059  1
  Zn  Zn106  1  0.38855892  0.50483851  0.88532624  1
  Zn  Zn107  1  0.18582383  0.18429885  0.19205270  1
  Zn  Zn108  1  0.19219399  0.18054154  0.67358072  1
  Zn  Zn109  1  0.19165029  0.68791978  0.18764187  1
  Zn  Zn110  1  0.18147085  0.68769665  0.68543076  1
  Zn  Zn111  1  0.69135299  0.19126956  0.18928284  1
  Zn  Zn112  1  0.68602370  0.18858406  0.68812735  1
  Zn  Zn113  1  0.68752782  0.68173614  0.17965624  1
  Zn  Zn114  1  0.69077087  0.69152884  0.68812092  1
  Zn  Zn115  1  0.31529777  0.31434978  0.30821840  1
  Zn  Zn116  1  0.31451230  0.31693751  0.80469856  1
  Zn  Zn117  1  0.31313156  0.81579768  0.31553514  1
  Zn  Zn118  1  0.32512969  0.82657015  0.78369123  1
  Zn  Zn119  1  0.81599934  0.31054096  0.30928827  1
  Zn  Zn120  1  0.81385179  0.31410931  0.80919615  1
  Zn  Zn121  1  0.81614905  0.81320036  0.30980955  1
  Zn  Zn122  1  0.80904384  0.81312127  0.80819820  1
  Zn  Zn123  1  0.18998453  0.43690559  0.43684818  1
  Zn  Zn124  1  0.22491970  0.45523049  0.95452268  1
  Zn  Zn125  1  0.18471097  0.93755874  0.43366105  1
  Zn  Zn126  1  0.18718452  0.93723272  0.93858102  1
  Zn  Zn127  1  0.69138569  0.44209821  0.43589224  1
  Zn  Zn128  1  0.68695715  0.44034324  0.93895966  1
  Zn  Zn129  1  0.69014466  0.93947153  0.42986577  1
  Zn  Zn130  1  0.68700873  0.94048538  0.93744282  1
  Zn  Zn131  1  0.31633922  0.05416869  0.07385967  1
  Zn  Zn132  1  0.31399284  0.05727431  0.56764915  1
  Zn  Zn133  1  0.31833550  0.56487812  0.06083967  1
  Zn  Zn134  1  0.30666458  0.56643865  0.55676156  1
  Zn  Zn135  1  0.81422775  0.06114059  0.06487845  1
  Zn  Zn136  1  0.81088447  0.06733473  0.55610910  1
  Zn  Zn137  1  0.81254369  0.56173551  0.05836213  1
  Zn  Zn138  1  0.81328657  0.55935501  0.56029478  1
  Zn  Zn139  1  0.43230438  0.43168245  0.18274370  1
  Zn  Zn140  1  0.43404720  0.43594155  0.68847606  1
  Zn  Zn141  1  0.43057881  0.93422011  0.19040012  1
  Zn  Zn142  1  0.43628153  0.93599312  0.69485963  1
  Zn  Zn143  1  0.94225894  0.43527633  0.18667098  1
  Zn  Zn144  1  0.93575532  0.43744476  0.69070774  1
  Zn  Zn145  1  0.93740751  0.93813127  0.18880129  1
  Zn  Zn146  1  0.93715098  0.93918390  0.68647785  1
  Zn  Zn147  1  0.06434827  0.07102567  0.31782787  1
  Zn  Zn148  1  0.06224547  0.06409310  0.81398607  1
  Zn  Zn149  1  0.06795012  0.56352106  0.31001995  1
  Zn  Zn150  1  0.06222678  0.56453202  0.80647141  1
  Zn  Zn151  1  0.55841129  0.05742531  0.31446765  1
  Zn  Zn152  1  0.56205579  0.06040029  0.81352160  1
  Zn  Zn153  1  0.57316816  0.51560434  0.31625181  1
  Zn  Zn154  1  0.56597741  0.56147317  0.81856915  1
  Zn  Zn155  1  0.43893140  0.18415935  0.43526596  1
  Zn  Zn156  1  0.45681434  0.18767051  0.93967102  1
  Zn  Zn157  1  0.42919042  0.68400517  0.44658743  1
  Zn  Zn158  1  0.43386236  0.69173724  0.93197199  1
  Zn  Zn159  1  0.93840556  0.19716879  0.43612650  1
  Zn  Zn160  1  0.94037187  0.18754694  0.93736002  1
  Zn  Zn161  1  0.93767293  0.68756555  0.43749706  1
  Zn  Zn162  1  0.93398811  0.68446479  0.93609288  1
  Zn  Zn163  1  0.06395565  0.31086365  0.05852831  1
  Zn  Zn164  1  0.06590051  0.31161346  0.56052952  1
  Zn  Zn165  1  0.06458406  0.81249669  0.06168847  1
  Zn  Zn166  1  0.06048453  0.81249172  0.55897226  1
  Zn  Zn167  1  0.56431463  0.30890814  0.06991849  1
  Zn  Zn168  1  0.55837095  0.31621997  0.56573771  1
  Zn  Zn169  1  0.56040295  0.80706871  0.06719699  1
  Zn  Zn170  1  0.56570878  0.79117645  0.57177101  1
  O  O171  1  0.11332816  0.12774004  0.11788148  1
  O  O172  1  0.11239024  0.11328890  0.62337385  1
  O  O173  1  0.12447952  0.61753206  0.11931505  1
  O  O174  1  0.11406079  0.61656154  0.62372648  1
  O  O175  1  0.62117073  0.12341670  0.12013517  1
  O  O176  1  0.61430797  0.12806485  0.61967380  1
  O  O177  1  0.62684438  0.61432638  0.10775943  1
  O  O178  1  0.63283498  0.61574550  0.61871551  1
  O  O179  1  0.37344829  0.38337413  0.38362282  1
  O  O180  1  0.39149751  0.37114673  0.87071815  1
  O  O181  1  0.38266802  0.88490842  0.37546731  1
  O  O182  1  0.38452279  0.88390356  0.87491827  1
  O  O183  1  0.89566948  0.37707084  0.36637435  1
  O  O184  1  0.87689084  0.38477510  0.87407648  1
  O  O185  1  0.88744497  0.88473131  0.37020055  1
  O  O186  1  0.87688758  0.87980726  0.88021069  1
  O  O187  1  0.25934218  -0.00903614  0.36259407  1
  O  O188  1  0.26297664  -0.00377391  0.87158243  1
  O  O189  1  0.25669213  0.50835439  0.37486107  1
  O  O190  1  0.23434804  0.51867188  0.85739016  1
  O  O191  1  0.76140048  0.00940940  0.37357272  1
  O  O192  1  0.75463897  0.01288070  0.87311623  1
  O  O193  1  0.75569897  0.51397023  0.36021550  1
  O  O194  1  0.75541529  0.50615604  0.86852632  1
  O  O195  1  0.24009872  0.48953743  0.12493380  1
  O  O196  1  0.24408865  0.49674609  0.63343159  1
  O  O197  1  0.25357780  0.98515240  0.13933810  1
  O  O198  1  0.23603098  0.99762183  0.63369551  1
  O  O199  1  0.74987461  0.49241611  0.12620839  1
  O  O200  1  0.74088209  0.49348526  0.63383323  1
  O  O201  1  0.75067265  0.98383109  0.12513536  1
  O  O202  1  0.75945419  0.98852118  0.62588932  1
  O  O203  1  0.01547022  0.37349540  0.25400307  1
  O  O204  1  0.00783597  0.36403789  0.74969797  1
  O  O205  1  -0.00287650  0.86546170  0.25562115  1
  O  O206  1  0.00465336  0.87052559  0.75584977  1
  O  O207  1  0.49053810  0.35545733  0.24750255  1
  O  O208  1  0.50377967  0.36271356  0.75089934  1
  O  O209  1  0.51174797  0.87613444  0.24977248  1
  O  O210  1  0.50996308  0.86921974  0.75963985  1
  O  O211  1  0.49115519  0.12845796  0.24660083  1
  O  O212  1  0.49566604  0.13546346  0.74925040  1
  O  O213  1  0.52074131  0.62196391  0.27249828  1
  O  O214  1  0.49579100  0.63111457  0.75982898  1
  O  O215  1  0.99367704  0.12362172  0.24132357  1
  O  O216  1  0.99539570  0.12942758  0.74053583  1
  O  O217  1  0.99546860  0.63122475  0.24284664  1
  O  O218  1  1.00299770  0.63757003  0.73743091  1
  O  O219  1  0.36495377  0.23021961  -0.00424833  1
  O  O220  1  0.38263598  0.26284297  0.50038701  1
  O  O221  1  0.36029043  0.75294855  -0.00289945  1
  O  O222  1  0.35893428  0.75136905  0.50693430  1
  O  O223  1  0.87790927  0.24634550  0.01279582  1
  O  O224  1  0.87155678  0.26073130  0.50362288  1
  O  O225  1  0.86667454  0.75514511  0.00455127  1
  O  O226  1  0.87200087  0.75011417  0.51053409  1
  O  O227  1  0.12810461  0.24956262  0.48813249  1
  O  O228  1  0.12075292  0.23330421  0.98952794  1
  O  O229  1  0.13087192  0.74907940  0.49176006  1
  O  O230  1  0.13410624  0.74712419  0.99301326  1
  O  O231  1  0.62245638  0.24284645  0.50130445  1
  O  O232  1  0.62030397  0.24045531  0.98905054  1
  O  O233  1  0.63096500  0.73325996  0.50344924  1
  O  O234  1  0.63325786  0.73744135  1.00573531  1
  O  O235  1  0.49433525  0.23737759  0.13096696  1
  O  O236  1  0.49120190  0.24260565  0.63151463  1
  O  O237  1  0.48029417  0.75022419  0.12305781  1
  O  O238  1  0.49095075  0.75059315  0.64328917  1
  O  O239  1  0.99523887  0.24032825  0.12659061  1
  O  O240  1  1.00174399  0.24123365  0.62968341  1
  O  O241  1  0.99797558  0.74575010  0.13060053  1
  O  O242  1  0.99072563  0.74626479  0.62902998  1
  O  O243  1  0.01267976  0.26257850  0.37188526  1
  O  O244  1  0.00836734  0.24671477  0.86405655  1
  O  O245  1  0.00348673  0.75776326  0.36848403  1
  O  O246  1  0.00003373  0.75355682  0.86597654  1
  O  O247  1  0.49901783  0.25089830  0.36211886  1
  O  O248  1  0.50904442  0.25834212  0.86694514  1
  O  O249  1  0.50217046  0.74718631  0.38000361  1
  O  O250  1  0.49921707  0.76322406  0.86810663  1
  O  O251  1  0.25952458  0.15564112  0.56236384  1
  O  O252  1  0.24248663  0.11440264  1.00395467  1
  O  O253  1  0.24306597  0.63471093  0.48853056  1
  O  O254  1  0.24250632  0.63675736  0.98987564  1
  O  O255  1  0.73286867  0.13271520  0.50328784  1
  O  O256  1  0.74041181  0.12074702  0.99500932  1
  O  O257  1  0.74246611  0.62313990  0.48855379  1
  O  O258  1  0.74571446  0.63428639  0.99410980  1
  O  O259  1  0.23125963  0.35921529  0.01599907  1
  O  O260  1  0.25948735  0.38029933  0.51094260  1
  O  O261  1  0.25012154  0.87117919  0.01136817  1
  O  O262  1  0.24277801  0.86094976  0.49734447  1
  O  O263  1  0.75579446  0.37792101  0.00909482  1
  O  O264  1  0.74401144  0.37588664  0.51154548  1
  O  O265  1  0.75056419  0.86669122  0.00493124  1
  O  O266  1  0.74350407  0.87537030  0.51328902  1
  O  O267  1  0.12911680  0.49265636  0.23995476  1
  O  O268  1  0.13080455  0.49605602  0.73854395  1
  O  O269  1  0.14141863  1.00854953  0.25829050  1
  O  O270  1  0.12502790  0.99489699  0.74332424  1
  O  O271  1  0.64271484  0.51370964  0.22468994  1
  O  O272  1  0.63179190  0.49658238  0.74531422  1
  O  O273  1  0.62853601  0.99058557  0.24945775  1
  O  O274  1  0.62553910  0.98726423  0.75223744  1
  O  O275  1  0.36822207  0.00715378  0.25931129  1
  O  O276  1  0.37505655  0.01182698  0.76397506  1
  O  O277  1  0.37399984  0.49449618  0.26126553  1
  O  O278  1  0.36679979  0.50617963  0.75557684  1
  O  O279  1  0.87611919  0.00731177  0.26001528  1
  O  O280  1  0.87504982  0.00805484  0.75758628  1
  O  O281  1  0.87308913  0.51225184  0.24546402  1
  O  O282  1  0.86146277  0.49841435  0.75870796  1
  O  O283  1  0.12114542  0.37048371  0.36957856  1
  O  O284  1  0.12656221  0.35643242  0.86544335  1
  O  O285  1  0.11278774  0.86387698  0.37521774  1
  O  O286  1  0.11269471  0.87025985  0.87225245  1
  O  O287  1  0.61510909  0.41670071  0.35934369  1
  O  O288  1  0.61947636  0.36768119  0.87280052  1
  O  O289  1  0.62078625  0.87445815  0.36750329  1
  O  O290  1  0.61791578  0.87856987  0.86860837  1
  O  O291  1  0.38375794  0.12397729  0.13719124  1
  O  O292  1  0.39149993  0.12067118  0.63761509  1
  O  O293  1  0.36062770  0.64339494  0.12629027  1
  O  O294  1  0.37016986  0.62445401  0.63686186  1
  O  O295  1  0.88463909  0.12860928  0.12935959  1
  O  O296  1  0.88267305  0.12624143  0.62960153  1
  O  O297  1  0.88191315  0.63031503  0.12788305  1
  O  O298  1  0.87849937  0.63394765  0.62515454  1
  O  O299  1  0.24968282  0.25886580  0.13153785  1
  O  O300  1  0.25202406  0.27654396  0.64999868  1
  O  O301  1  0.25188664  0.76049489  0.11891915  1
  O  O302  1  0.24422646  0.74679845  0.61071574  1
  O  O303  1  0.75959739  0.26272877  0.13051140  1
  O  O304  1  0.74811770  0.26521854  0.62962171  1
  O  O305  1  0.75438163  0.75798933  0.11648983  1
  O  O306  1  0.75770776  0.76261289  0.62334539  1
  O  O307  1  0.23712450  0.25763577  0.37270067  1
  O  O308  1  0.24578300  0.24671888  0.86896992  1
  O  O309  1  0.24265745  0.74750126  0.38085844  1
  O  O310  1  0.24428437  0.74462093  0.87795441  1
  O  O311  1  0.75032347  0.24592961  0.36957394  1
  O  O312  1  0.74349663  0.23949816  0.86993435  1
  O  O313  1  0.75998423  0.73645609  0.37441601  1
  O  O314  1  0.75427370  0.74388662  0.88403704  1
  O  O315  1  0.00568792  0.11617984  0.00564998  1
  O  O316  1  -0.00171977  0.11838494  0.50794642  1
  O  O317  1  0.00825991  0.62560658  0.00525246  1
  O  O318  1  0.00196470  0.63031625  0.51442528  1
  O  O319  1  0.51296072  0.11821812  0.01012499  1
  O  O320  1  0.51065458  0.12789789  0.50958542  1
  O  O321  1  0.51280248  0.62876576  -0.01206272  1
  O  O322  1  0.50726277  0.61418326  0.50134635  1
  O  O323  1  0.49303605  0.38608516  0.49990189  1
  O  O324  1  0.49953586  0.36449620  0.98968636  1
  O  O325  1  0.51683940  0.88408844  0.51309743  1
  O  O326  1  0.50099303  0.87877533  0.99424867  1
  O  O327  1  1.00439664  0.37502990  0.48577765  1
  O  O328  1  0.99820286  0.37673826  0.99305969  1
  O  O329  1  1.00442600  0.89081272  0.49116897  1
  O  O330  1  0.99442954  0.88034891  0.99657663  1
  O  O331  1  0.48418619  0.50122743  0.38966279  1
  O  O332  1  0.50309152  0.48035970  0.87407391  1
  O  O333  1  0.48463076  0.99506306  0.37688581  1
  O  O334  1  0.49153101  0.99382323  0.88182823  1
  O  O335  1  1.00580405  0.48538631  0.36839778  1
  O  O336  1  0.99083362  0.50114754  0.87046855  1
  O  O337  1  0.99884946  0.99560194  0.37927886  1
  O  O338  1  0.99276818  0.99643707  0.88478361  1
  O  O339  1  -0.00547789  0.00546471  0.11244442  1
  O  O340  1  0.00475716  0.00517656  0.61565134  1
  O  O341  1  0.01333681  0.50482317  0.12156561  1
  O  O342  1  0.00551186  0.50871750  0.63330214  1
  O  O343  1  0.49933719  0.00885459  0.12250255  1
  O  O344  1  0.50275557  0.00451265  0.62784811  1
  O  O345  1  0.51380302  0.49227204  0.12855291  1
  O  O346  1  0.51016439  0.49547211  0.62258831  1
  O  O347  1  0.23987123  0.37767773  0.24221670  1
  O  O348  1  0.24542760  0.39062596  0.74772308  1
  O  O349  1  0.24870922  0.88411000  0.24297440  1
  O  O350  1  0.22535479  0.88264134  0.76590817  1
  O  O351  1  0.76150836  0.38925556  0.23864655  1
  O  O352  1  0.74156807  0.38406037  0.74648868  1
  O  O353  1  0.74220870  0.87264384  0.24286933  1
  O  O354  1  0.74270624  0.87773995  0.73677598  1
  O  O355  1  0.26179535  0.11145523  0.24330462  1
  O  O356  1  0.26338892  0.11700317  0.74495414  1
  O  O357  1  0.24253273  0.62317952  0.26624681  1
  O  O358  1  0.25611366  0.62496831  0.75302217  1
  O  O359  1  0.76403956  0.11982422  0.24483407  1
  O  O360  1  0.75542510  0.12447635  0.75689743  1
  O  O361  1  0.76161838  0.62221753  0.25067055  1
  O  O362  1  0.74218360  0.61725758  0.76006329  1
  O  O363  1  0.37670352  0.11490045  0.36460302  1
  O  O364  1  0.37085614  0.12388712  0.87487472  1
  O  O365  1  0.36393328  0.61441364  0.38203456  1
  O  O366  1  0.36520965  0.62218443  0.86737980  1
  O  O367  1  0.88092394  0.12082578  0.36436441  1
  O  O368  1  0.86753475  0.12324971  0.87105613  1
  O  O369  1  0.87357959  0.62327030  0.36423532  1
  O  O370  1  0.86108145  0.61753304  0.87664563  1
  O  O371  1  0.12929858  0.37918108  0.13175351  1
  O  O372  1  0.13066456  0.38187978  0.62949399  1
  O  O373  1  0.13907477  0.87245405  0.12462768  1
  O  O374  1  0.11313335  0.88485088  0.63411662  1
  O  O375  1  0.63400493  0.38774983  0.11721445  1
  O  O376  1  0.62877695  0.38336696  0.63331970  1
  O  O377  1  0.63160109  0.87267447  0.13294356  1
  O  O378  1  0.62847997  0.88448107  0.62663834  1
  O  O379  1  0.12461727  0.25519466  0.26099405  1
  O  O380  1  0.11641966  0.24679766  0.75210663  1
  O  O381  1  0.11372759  0.74563499  0.25589187  1
  O  O382  1  0.11324138  0.75831996  0.75196815  1
  O  O383  1  0.60721819  0.24426684  0.24509314  1
  O  O384  1  0.61710205  0.25334524  0.76028346  1
  O  O385  1  0.62330250  0.74930571  0.25257794  1
  O  O386  1  0.61867203  0.76396811  0.74322904  1
  O  O387  1  0.37839223  0.23405911  0.24999600  1
  O  O388  1  0.37991163  0.24089769  0.74232379  1
  O  O389  1  0.37308132  0.74977012  0.24435665  1
  O  O390  1  0.38792742  0.73380243  0.75793425  1
  O  O391  1  0.88193478  0.24107260  0.23736112  1
  O  O392  1  0.88783225  0.24379115  0.74794086  1
  O  O393  1  0.88529283  0.74080351  0.24280339  1
  O  O394  1  0.88433161  0.75789179  0.73906112  1
  O  O395  1  0.38018379  0.49286448  0.50017587  1
  O  O396  1  0.33302555  0.49151192  0.98139390  1
  O  O397  1  0.36543402  1.00331357  0.48438313  1
  O  O398  1  0.38244970  0.99693109  0.99569992  1
  O  O399  1  0.87183853  0.49267376  0.49481970  1
  O  O400  1  0.87874499  0.50078617  0.98536359  1
  O  O401  1  0.88504088  1.00794028  0.48599270  1
  O  O402  1  0.88073787  0.99335962  0.99448209  1
  O  O403  1  0.11467052  0.01085214  -0.00803028  1
  O  O404  1  0.12334377  0.00844527  0.50518222  1
  O  O405  1  0.12874055  0.50862271  0.00533626  1
  O  O406  1  0.13022210  0.50078362  0.51430467  1
  O  O407  1  0.61967239  0.00786115  0.00464565  1
  O  O408  1  0.62670208  0.00857648  0.50581140  1
  O  O409  1  0.62730933  0.51098729  0.00910648  1
  O  O410  1  0.61756114  0.50941369  0.51033051  1
  O  O411  1  0.35699881  0.36918010  0.12228798  1
  O  O412  1  0.36751264  0.36859028  0.61695665  1
  O  O413  1  0.36283343  0.86306321  0.12654241  1
  O  O414  1  0.35323072  0.86703410  0.67543042  1
  O  O415  1  0.87179936  0.36710457  0.12157552  1
  O  O416  1  0.86291043  0.37419366  0.62902817  1
  O  O417  1  0.86793765  0.86843068  0.12006638  1
  O  O418  1  0.86553578  0.86979353  0.62571451  1
  O  O419  1  0.12959788  0.13945363  0.38383298  1
  O  O420  1  0.12662288  0.13375086  0.88122260  1
  O  O421  1  0.12646694  0.63818703  0.37734801  1
  O  O422  1  0.12923353  0.63498843  0.87574655  1
  O  O423  1  0.62164334  0.11973578  0.39106365  1
  O  O424  1  0.63128653  0.13085136  0.88174832  1
  O  O425  1  0.63337966  0.62822196  0.38019020  1
  O  O426  1  0.63846595  0.61770787  0.88997041  1
