# generated using pymatgen
data_V85Zn86O256
_symmetry_space_group_name_H-M   'P 1'
_cell_length_a   16.93713968
_cell_length_b   16.93035331
_cell_length_c   16.93279227
_cell_angle_alpha   89.95433882
_cell_angle_beta   89.92053504
_cell_angle_gamma   89.97426165
_symmetry_Int_Tables_number   1
_chemical_formula_structural   V85Zn86O256
_chemical_formula_sum   'V85 Zn86 O256'
_cell_volume   4855.50126983
_cell_formula_units_Z   1
loop_
 _symmetry_equiv_pos_site_id
 _symmetry_equiv_pos_as_xyz
  1  'x, y, z'
loop_
 _atom_site_type_symbol
 _atom_site_label
 _atom_site_symmetry_multiplicity
 _atom_site_fract_x
 _atom_site_fract_y
 _atom_site_fract_z
 _atom_site_occupancy
  V  V0  1  0.12357841  0.24694162  0.38222294  1
  V  V1  1  0.62572887  0.75460386  0.86258560  1
  V  V2  1  0.00088780  0.00892133  0.00041822  1
  V  V3  1  0.25677376  0.37779698  0.62833023  1
  V  V4  1  0.25281448  0.24960331  0.00103452  1
  V  V5  1  0.37585983  0.87385596  -0.00297049  1
  V  V6  1  0.62558923  0.48034477  0.62709215  1
  V  V7  1  0.38343937  0.24214188  0.12425270  1
  V  V8  1  0.12251592  0.87463236  0.24940467  1
  V  V9  1  -0.01224893  0.63594844  0.62081222  1
  V  V10  1  0.24813088  0.12355354  0.37987694  1
  V  V11  1  0.87761157  0.87486858  -0.00191046  1
  V  V12  1  0.38579880  0.49733381  0.37439206  1
  V  V13  1  0.61973494  0.12724795  0.00374131  1
  V  V14  1  0.75278110  0.74420711  0.51006370  1
  V  V15  1  0.37903864  -0.00390157  0.39046894  1
  V  V16  1  0.12616876  0.37348172  0.25168762  1
  V  V17  1  0.50465604  0.38307732  0.86998210  1
  V  V18  1  0.50433925  0.62655749  0.62619545  1
  V  V19  1  0.74602028  0.12778232  0.39090597  1
  V  V20  1  0.12606319  0.37452522  0.75264036  1
  V  V21  1  0.62532914  0.25236291  0.86581175  1
  V  V22  1  0.62339014  0.49798436  0.12076264  1
  V  V23  1  0.74853782  0.74617938  -0.00557747  1
  V  V24  1  0.73953894  0.49255794  0.75779136  1
  V  V25  1  0.37671261  0.00207125  0.87312260  1
  V  V26  1  0.87069083  0.50402523  0.87522024  1
  V  V27  1  -0.00135169  0.24069557  0.23898452  1
  V  V28  1  0.25149216  0.12731006  0.87428458  1
  V  V29  1  0.87720050  -0.00116096  0.87102822  1
  V  V30  1  -0.00034099  0.49618612  -0.00445938  1
  V  V31  1  0.12430752  0.00776123  0.12448105  1
  V  V32  1  0.62110592  0.87420589  0.25078060  1
  V  V33  1  -0.00270707  0.87333379  0.37237994  1
  V  V34  1  0.38334304  0.38394305  0.00043205  1
  V  V35  1  0.74996043  0.12617706  0.87384713  1
  V  V36  1  0.25250282  0.62384654  0.37570854  1
  V  V37  1  0.86853535  0.26658614  0.61697039  1
  V  V38  1  0.12726463  0.62975037  0.50071167  1
  V  V39  1  0.38444797  0.62583841  0.75704783  1
  V  V40  1  0.24308421  0.74615452  -0.01661947  1
  V  V41  1  0.12438100  0.50348587  0.12430550  1
  V  V42  1  0.76481674  0.62460807  0.37024972  1
  V  V43  1  0.87819918  0.36998743  0.00077583  1
  V  V44  1  0.62038401  0.37580167  0.25225915  1
  V  V45  1  0.62541242  0.62265097  -0.00759443  1
  V  V46  1  0.50325754  0.24327485  0.25079912  1
  V  V47  1  0.20182374  0.55927852  0.80790440  1
  V  V48  1  -0.00397372  0.49593300  0.49781678  1
  V  V49  1  0.24698991  -0.00052589  0.74788912  1
  V  V50  1  0.12891663  0.50267635  0.62348324  1
  V  V51  1  0.74494487  0.00487630  0.25320650  1
  V  V52  1  0.38358026  0.75752736  0.62345466  1
  V  V53  1  0.74706034  0.87399316  0.12544473  1
  V  V54  1  0.25048337  0.87612463  0.61567745  1
  V  V55  1  0.87328399  0.00181468  0.37808815  1
  V  V56  1  0.25466243  0.37409746  0.12655666  1
  V  V57  1  0.75366871  0.24839484  0.00845945  1
  V  V58  1  0.12067564  0.25366970  0.87675162  1
  V  V59  1  -0.00502230  0.37503466  0.37556540  1
  V  V60  1  0.50493061  0.12743412  0.61028842  1
  V  V61  1  0.76120145  0.50169577  0.24865533  1
  V  V62  1  0.61877540  0.00109366  0.12541839  1
  V  V63  1  0.25133002  0.24706324  0.50800855  1
  V  V64  1  0.25155775  0.49930051  0.25081479  1
  V  V65  1  0.37789892  0.37347458  0.49826231  1
  V  V66  1  0.62564334  0.74487916  0.37701405  1
  V  V67  1  0.87420420  0.74309029  0.12830764  1
  V  V68  1  0.87517802  0.86878185  0.50901374  1
  V  V69  1  0.49944256  0.75065284  0.24843991  1
  V  V70  1  -0.00316662  0.25334184  0.75074695  1
  V  V71  1  0.49970473  0.62189984  0.11827290  1
  V  V72  1  0.87598322  0.12548901  0.74407414  1
  V  V73  1  0.25516886  -0.00095502  0.25003414  1
  V  V74  1  -0.00479997  0.75225731  0.76268839  1
  V  V75  1  0.24970076  0.87166661  0.12383413  1
  V  V76  1  0.62290250  -0.00235679  0.60588413  1
  V  V77  1  0.73913357  -0.00540653  0.74856635  1
  V  V78  1  0.62115223  0.25101482  0.38432722  1
  V  V79  1  0.38027778  0.13488958  0.74515261  1
  V  V80  1  0.50351364  0.87455956  0.86060245  1
  V  V81  1  0.49647298  0.87491262  0.38918092  1
  V  V82  1  0.37312846  0.74783986  0.12283652  1
  V  V83  1  -0.00371303  0.74318096  0.24992283  1
  V  V84  1  0.49903537  0.00189131  0.00303236  1
  Zn  Zn85  1  0.50208856  0.25365658  0.74495386  1
  Zn  Zn86  1  0.12708512  0.74976864  0.37390157  1
  Zn  Zn87  1  0.12561444  0.62703651  -0.01132574  1
  Zn  Zn88  1  0.87274691  0.13162654  0.24002271  1
  Zn  Zn89  1  0.37574730  0.50577486  0.87763433  1
  Zn  Zn90  1  0.00924458  0.12875968  0.61044857  1
  Zn  Zn91  1  0.49737246  0.49911676  0.50273229  1
  Zn  Zn92  1  0.74681999  0.86773297  0.63177641  1
  Zn  Zn93  1  0.12573574  0.00841363  0.61482277  1
  Zn  Zn94  1  0.75348974  0.37091150  0.12689326  1
  Zn  Zn95  1  0.00741006  0.00431832  0.50002173  1
  Zn  Zn96  1  0.13076154  0.86506388  0.75233238  1
  Zn  Zn97  1  0.86532377  0.62804479  0.75126211  1
  Zn  Zn98  1  0.75155059  0.27968970  0.50242765  1
  Zn  Zn99  1  0.37634958  0.62377901  0.24894140  1
  Zn  Zn100  1  -0.00244324  0.62168592  0.12598168  1
  Zn  Zn101  1  0.62430415  0.62114523  0.50106551  1
  Zn  Zn102  1  0.38171204  0.12107838  0.24786317  1
  Zn  Zn103  1  0.12196425  0.13029370  0.00407642  1
  Zn  Zn104  1  0.25708567  0.75277528  0.49739836  1
  Zn  Zn105  1  0.01295074  0.87341104  0.87862123  1
  Zn  Zn106  1  0.83127667  0.44565545  0.42605059  1
  Zn  Zn107  1  0.19053150  0.18745199  0.19251045  1
  Zn  Zn108  1  0.18885254  0.18859904  0.68815774  1
  Zn  Zn109  1  0.18664439  0.68683547  0.18784198  1
  Zn  Zn110  1  0.18409899  0.69625043  0.68177722  1
  Zn  Zn111  1  0.68262491  0.18502151  0.18808987  1
  Zn  Zn112  1  0.68978562  0.18478447  0.67992396  1
  Zn  Zn113  1  0.68779809  0.68449007  0.18641716  1
  Zn  Zn114  1  0.69035585  0.67756401  0.69124669  1
  Zn  Zn115  1  0.31588634  0.31056089  0.31467952  1
  Zn  Zn116  1  0.31362832  0.31638560  0.81375150  1
  Zn  Zn117  1  0.31454441  0.81234793  0.31279514  1
  Zn  Zn118  1  0.31742887  0.81360070  0.80587437  1
  Zn  Zn119  1  0.80981733  0.30669603  0.30495448  1
  Zn  Zn120  1  0.81295199  0.31694524  0.81678907  1
  Zn  Zn121  1  0.81184075  0.81370546  0.31373899  1
  Zn  Zn122  1  0.81555254  0.81052120  0.81168396  1
  Zn  Zn123  1  0.18769403  0.43739167  0.43917476  1
  Zn  Zn124  1  0.18652176  0.43090078  0.94395855  1
  Zn  Zn125  1  0.18708878  0.93607756  0.43662102  1
  Zn  Zn126  1  0.18637215  0.93558963  0.93415234  1
  Zn  Zn127  1  0.67106966  0.43837073  0.43558175  1
  Zn  Zn128  1  0.68856900  0.43448957  0.93854956  1
  Zn  Zn129  1  0.68995913  0.92971515  0.43771311  1
  Zn  Zn130  1  0.68813215  0.93565429  0.93485153  1
  Zn  Zn131  1  0.31113034  0.06323334  0.06157930  1
  Zn  Zn132  1  0.31394158  0.06623674  0.56584136  1
  Zn  Zn133  1  0.30928484  0.56518394  0.05933809  1
  Zn  Zn134  1  0.31560893  0.56410721  0.56542195  1
  Zn  Zn135  1  0.81007645  0.06439573  0.06334795  1
  Zn  Zn136  1  0.82155002  0.06226547  0.56470426  1
  Zn  Zn137  1  0.80958437  0.56166543  0.06125176  1
  Zn  Zn138  1  0.80451920  0.55460228  0.56504987  1
  Zn  Zn139  1  0.44113034  0.43522889  0.18800029  1
  Zn  Zn140  1  0.43545292  0.44382244  0.69296633  1
  Zn  Zn141  1  0.43700670  0.93454971  0.18786917  1
  Zn  Zn142  1  0.43751505  0.94606569  0.68221315  1
  Zn  Zn143  1  0.93937146  0.42958638  0.18407186  1
  Zn  Zn144  1  0.94050913  0.44147928  0.69137002  1
  Zn  Zn145  1  0.92126348  0.96655190  0.17367741  1
  Zn  Zn146  1  0.94048912  0.93871324  0.68583700  1
  Zn  Zn147  1  0.06498142  0.06129874  0.31913751  1
  Zn  Zn148  1  0.06293809  0.06582491  0.80937721  1
  Zn  Zn149  1  0.06216855  0.56236153  0.31343585  1
  Zn  Zn150  1  0.03808481  0.56178208  0.80949553  1
  Zn  Zn151  1  0.56147386  0.06575420  0.32112317  1
  Zn  Zn152  1  0.56125451  0.06600773  0.81452252  1
  Zn  Zn153  1  0.56540246  0.56429380  0.30641066  1
  Zn  Zn154  1  0.56422206  0.56383030  0.81224798  1
  Zn  Zn155  1  0.43406837  0.18901877  0.43419023  1
  Zn  Zn156  1  0.43992662  0.19127826  0.93532104  1
  Zn  Zn157  1  0.43871088  0.68573326  0.44084506  1
  Zn  Zn158  1  0.44193263  0.69156109  0.93643716  1
  Zn  Zn159  1  0.93174554  0.19003989  0.43378733  1
  Zn  Zn160  1  0.93696425  0.18809594  0.93333547  1
  Zn  Zn161  1  0.93755448  0.68764916  0.43841488  1
  Zn  Zn162  1  0.93673013  0.68176975  0.94195627  1
  Zn  Zn163  1  0.06389249  0.31696859  0.06292274  1
  Zn  Zn164  1  0.06159503  0.31221998  0.56518517  1
  Zn  Zn165  1  0.06282828  0.81525870  0.06236341  1
  Zn  Zn166  1  0.06592755  0.81857143  0.56298302  1
  Zn  Zn167  1  0.56254547  0.31307519  0.06060557  1
  Zn  Zn168  1  0.55707846  0.30878586  0.56082492  1
  Zn  Zn169  1  0.56117432  0.81241548  0.05731984  1
  Zn  Zn170  1  0.56708203  0.81211492  0.56760161  1
  O  O171  1  0.13460179  0.11186554  0.12442548  1
  O  O172  1  0.12130805  0.12351711  0.63217072  1
  O  O173  1  0.12593571  0.61113560  0.12415088  1
  O  O174  1  0.11854607  0.61986535  0.61773769  1
  O  O175  1  0.62695237  0.11748311  0.11149235  1
  O  O176  1  0.61477819  0.11302765  0.62675645  1
  O  O177  1  0.61856130  0.62042776  0.11514743  1
  O  O178  1  0.61179565  0.62380810  0.62643877  1
  O  O179  1  0.36634753  0.38658178  0.38489338  1
  O  O180  1  0.38501901  0.37702825  0.88349868  1
  O  O181  1  0.38134284  0.88682688  0.37218621  1
  O  O182  1  0.38236861  0.88087476  0.87860588  1
  O  O183  1  0.89097477  0.37008289  0.36414411  1
  O  O184  1  0.86888763  0.38730254  0.89116085  1
  O  O185  1  0.88067273  0.87796697  0.38381932  1
  O  O186  1  0.87579896  0.87883833  0.88702722  1
  O  O187  1  0.26042175  0.00242515  0.36888083  1
  O  O188  1  0.25821982  0.00805311  0.87032426  1
  O  O189  1  0.25538790  0.50940720  0.37151427  1
  O  O190  1  0.25278970  0.49878614  0.87327487  1
  O  O191  1  0.74894360  0.00699861  0.37076808  1
  O  O192  1  0.75548396  0.00426930  0.86637295  1
  O  O193  1  0.74812321  0.50895014  0.36545238  1
  O  O194  1  0.75170930  0.49874984  0.86623933  1
  O  O195  1  0.24535690  0.49435395  0.12960165  1
  O  O196  1  0.23694925  0.49521606  0.62016903  1
  O  O197  1  0.24631816  0.99262583  0.13117673  1
  O  O198  1  0.25405491  0.99324425  0.63219651  1
  O  O199  1  0.73786010  0.50233685  0.13153229  1
  O  O200  1  0.73062240  0.49889026  0.63276471  1
  O  O201  1  0.73754369  0.99179787  0.13367297  1
  O  O202  1  0.73824968  1.00423337  0.63363993  1
  O  O203  1  0.00908621  0.36544765  0.25521382  1
  O  O204  1  0.01655142  0.37062509  0.74603886  1
  O  O205  1  0.00206472  0.86789286  0.26143614  1
  O  O206  1  -0.00617462  0.86016779  0.75293622  1
  O  O207  1  0.51327656  0.36428592  0.24368380  1
  O  O208  1  0.49108371  0.37115158  0.76569687  1
  O  O209  1  0.50507166  0.86879237  0.25683634  1
  O  O210  1  0.49547928  0.88454701  0.76197305  1
  O  O211  1  0.50113233  0.13713278  0.25004641  1
  O  O212  1  0.49273661  0.12672778  0.74699120  1
  O  O213  1  0.50063166  0.63240161  0.23573521  1
  O  O214  1  0.49062234  0.62594734  0.74567639  1
  O  O215  1  1.00377424  0.13899084  0.25784136  1
  O  O216  1  0.98982492  0.13633464  0.75189232  1
  O  O217  1  1.00428968  0.63866791  0.24809758  1
  O  O218  1  0.99215927  0.63357303  0.73553098  1
  O  O219  1  0.37311500  0.25693896  0.00757799  1
  O  O220  1  0.36226395  0.26009855  0.49194582  1
  O  O221  1  0.36638173  0.75352657  0.00438646  1
  O  O222  1  0.37387297  0.74258030  0.51894735  1
  O  O223  1  0.86722745  0.25613523  -0.00636799  1
  O  O224  1  0.87408380  0.25608126  0.51352725  1
  O  O225  1  0.86834298  0.75618683  0.00404296  1
  O  O226  1  0.86448081  0.75572057  0.49547835  1
  O  O227  1  0.13398221  0.25665952  0.48888292  1
  O  O228  1  0.13021138  0.25130319  0.99333285  1
  O  O229  1  0.12850038  0.73899873  0.49910869  1
  O  O230  1  0.13856797  0.74926162  1.00226987  1
  O  O231  1  0.63096472  0.26054135  0.48775917  1
  O  O232  1  0.63134329  0.24224919  0.99403109  1
  O  O233  1  0.63329665  0.74755981  0.49192780  1
  O  O234  1  0.63294941  0.74408343  0.99498884  1
  O  O235  1  0.49284762  0.25278861  0.13233659  1
  O  O236  1  0.50776499  0.23287229  0.62949949  1
  O  O237  1  0.49256797  0.74458189  0.12630739  1
  O  O238  1  0.49125355  0.74522953  0.62530197  1
  O  O239  1  1.01377740  0.24859147  0.14080214  1
  O  O240  1  0.99097356  0.25015906  0.63549151  1
  O  O241  1  0.99135260  0.75091968  0.13115936  1
  O  O242  1  0.99827438  0.73714061  0.61978204  1
  O  O243  1  0.00838140  0.25622112  0.37095934  1
  O  O244  1  0.00798952  0.24955415  0.86320791  1
  O  O245  1  0.00113762  0.75508143  0.36722780  1
  O  O246  1  -0.00235280  0.74617001  0.86542978  1
  O  O247  1  0.50941873  0.24587279  0.36666448  1
  O  O248  1  0.50985673  0.25847719  0.87181179  1
  O  O249  1  0.50464822  0.75429966  0.37034450  1
  O  O250  1  0.51461255  0.76124211  0.87846329  1
  O  O251  1  0.25825045  0.13575353  0.49295191  1
  O  O252  1  0.24866958  0.13199251  0.99158234  1
  O  O253  1  0.24360626  0.62491471  0.49356444  1
  O  O254  1  0.24645362  0.64049083  0.99874670  1
  O  O255  1  0.75719147  0.12707887  0.49089430  1
  O  O256  1  0.74458270  0.12811616  0.99394535  1
  O  O257  1  0.74695389  0.62775671  0.49057503  1
  O  O258  1  0.74141075  0.63850495  1.00378973  1
  O  O259  1  0.26049837  0.36708218  0.00674482  1
  O  O260  1  0.25553985  0.37002711  0.50812082  1
  O  O261  1  0.25633511  0.86618190  0.00465534  1
  O  O262  1  0.25102482  0.87238363  0.51117379  1
  O  O263  1  0.75525895  0.36376975  0.00317985  1
  O  O264  1  0.75656847  0.39229926  0.49112195  1
  O  O265  1  0.75511380  0.86679668  0.00494348  1
  O  O266  1  0.75729165  0.86104145  0.50076080  1
  O  O267  1  0.13064354  0.49420767  0.24378119  1
  O  O268  1  0.13037984  0.50027653  0.74853808  1
  O  O269  1  0.13488525  0.99546299  0.24536134  1
  O  O270  1  0.14220530  1.00353412  0.75244912  1
  O  O271  1  0.63010033  0.49196722  0.24232956  1
  O  O272  1  0.63118952  0.49909553  0.74369617  1
  O  O273  1  0.62736899  0.99557081  0.24849144  1
  O  O274  1  0.63826275  1.00399213  0.75347560  1
  O  O275  1  0.36427746  -0.00045313  0.25033997  1
  O  O276  1  0.36679822  0.00912425  0.75554719  1
  O  O277  1  0.36959353  0.49882776  0.25644074  1
  O  O278  1  0.37000276  0.52009223  0.75302580  1
  O  O279  1  0.85719366  -0.01631838  0.26944665  1
  O  O280  1  0.86907887  0.00870401  0.75309662  1
  O  O281  1  0.86056577  0.49293521  0.24092411  1
  O  O282  1  0.87037800  0.50132192  0.76006348  1
  O  O283  1  0.12097997  0.36709135  0.36955848  1
  O  O284  1  0.13227272  0.36247892  0.86825983  1
  O  O285  1  0.11691967  0.87115277  0.36720839  1
  O  O286  1  0.12526894  0.87548745  0.86532960  1
  O  O287  1  0.62239374  0.36616693  0.36236313  1
  O  O288  1  0.61217131  0.36771217  0.88103650  1
  O  O289  1  0.61857257  0.86357422  0.37020071  1
  O  O290  1  0.61834832  0.86350856  0.87827769  1
  O  O291  1  0.37003435  0.13838355  0.12684583  1
  O  O292  1  0.39335221  0.11539702  0.63375887  1
  O  O293  1  0.38308512  0.62857183  0.12411763  1
  O  O294  1  0.38542593  0.62991578  0.63399948  1
  O  O295  1  0.88372589  0.07567739  0.14342474  1
  O  O296  1  0.87332507  0.13598455  0.63797394  1
  O  O297  1  0.87543813  0.63988242  0.11920836  1
  O  O298  1  0.88745234  0.61782083  0.62082319  1
  O  O299  1  0.25743616  0.25618789  0.12217200  1
  O  O300  1  0.24622580  0.26120920  0.61483886  1
  O  O301  1  0.25732772  0.75448456  0.12239413  1
  O  O302  1  0.26098505  0.75871189  0.62323634  1
  O  O303  1  0.74748750  0.24517555  0.11243412  1
  O  O304  1  0.76341838  0.25211225  0.62285395  1
  O  O305  1  0.75527592  0.75604683  0.11964206  1
  O  O306  1  0.74306613  0.74700896  0.61392606  1
  O  O307  1  0.24442820  0.24114811  0.38079539  1
  O  O308  1  0.24547460  0.24604101  0.88134110  1
  O  O309  1  0.25147062  0.73767732  0.37586274  1
  O  O310  1  0.25454368  0.75477147  0.88558146  1
  O  O311  1  0.74422131  0.24289354  0.37675671  1
  O  O312  1  0.74329200  0.24581757  0.88401081  1
  O  O313  1  0.74200667  0.74291974  0.37867310  1
  O  O314  1  0.73872730  0.75699165  0.88331860  1
  O  O315  1  0.00083925  0.11316841  -0.00349211  1
  O  O316  1  -0.02336547  0.11541275  0.50091660  1
  O  O317  1  0.00706943  0.61294817  0.00335882  1
  O  O318  1  0.00777661  0.62087070  0.50614418  1
  O  O319  1  0.50836942  0.11590598  -0.00578263  1
  O  O320  1  0.49622402  0.12859545  0.51156787  1
  O  O321  1  0.50865021  0.63030124  0.01070427  1
  O  O322  1  0.50175913  0.62035653  0.51099592  1
  O  O323  1  0.48194092  0.37672589  0.50624151  1
  O  O324  1  0.49205268  0.36950911  0.98746863  1
  O  O325  1  0.50389343  0.86918235  0.48793828  1
  O  O326  1  0.49331353  0.88266635  0.99230337  1
  O  O327  1  1.00805554  0.38414354  0.49026148  1
  O  O328  1  0.99386558  0.38573381  1.00419716  1
  O  O329  1  0.99238058  0.87154454  0.48827137  1
  O  O330  1  0.99205770  0.88243493  0.99768932  1
  O  O331  1  0.48877612  0.50593124  0.37342206  1
  O  O332  1  0.49978655  0.48700523  0.87335518  1
  O  O333  1  0.48645892  0.99224591  0.37065501  1
  O  O334  1  0.49743503  0.99446369  0.88494542  1
  O  O335  1  1.00798560  0.48914687  0.38349738  1
  O  O336  1  0.98882701  0.49571528  0.88492183  1
  O  O337  1  0.98847304  0.99111283  0.37203201  1
  O  O338  1  0.99394679  0.99916112  0.88046936  1
  O  O339  1  0.01627854  -0.01170932  0.11316254  1
  O  O340  1  0.00329959  0.00482504  0.62225182  1
  O  O341  1  0.00873762  0.50007146  0.12038476  1
  O  O342  1  0.01144215  0.50762171  0.61980571  1
  O  O343  1  0.50229445  -0.00569081  0.11159382  1
  O  O344  1  0.51601399  0.00821480  0.62563818  1
  O  O345  1  0.51269045  0.50815297  0.12880586  1
  O  O346  1  0.51040782  0.50704275  0.63052199  1
  O  O347  1  0.24579097  0.37870116  0.24636109  1
  O  O348  1  0.23927849  0.36994629  0.74135587  1
  O  O349  1  0.24510286  0.88134367  0.24586281  1
  O  O350  1  0.25440497  0.88412989  0.73925860  1
  O  O351  1  0.73978279  0.38036934  0.24610956  1
  O  O352  1  0.75560231  0.39257877  0.75144395  1
  O  O353  1  0.73881430  0.88226294  0.24797554  1
  O  O354  1  0.75909550  0.89074048  0.74810650  1
  O  O355  1  0.25455779  0.11581653  0.26001013  1
  O  O356  1  0.26018817  0.12111788  0.75566224  1
  O  O357  1  0.25185059  0.61795906  0.25802406  1
  O  O358  1  0.25388523  0.62637570  0.74992496  1
  O  O359  1  0.74820182  0.11309316  0.25336785  1
  O  O360  1  0.75632680  0.11704743  0.75461007  1
  O  O361  1  0.74396055  0.61468557  0.25804811  1
  O  O362  1  0.75427794  0.60314981  0.74539497  1
  O  O363  1  0.36840503  0.11195143  0.37173428  1
  O  O364  1  0.37182521  0.12093645  0.86896959  1
  O  O365  1  0.36846605  0.61740615  0.37337611  1
  O  O366  1  0.38099309  0.62742091  0.86289045  1
  O  O367  1  0.86326229  0.11637463  0.36451757  1
  O  O368  1  0.86834092  0.12062520  0.86471441  1
  O  O369  1  0.86434167  0.62852383  0.37223978  1
  O  O370  1  0.87563617  0.60952976  0.87736762  1
  O  O371  1  0.13346064  0.38503731  0.13047932  1
  O  O372  1  0.13216245  0.38407278  0.63179613  1
  O  O373  1  0.13316123  0.88250781  0.13050514  1
  O  O374  1  0.13718529  0.87735800  0.63221490  1
  O  O375  1  0.62785143  0.38348978  0.12758736  1
  O  O376  1  0.61641075  0.38226315  0.62878607  1
  O  O377  1  0.62681870  0.87943388  0.12990748  1
  O  O378  1  0.62863949  0.89174216  0.62352517  1
  O  O379  1  0.12147870  0.25365317  0.26188961  1
  O  O380  1  0.11878817  0.25824468  0.75654529  1
  O  O381  1  0.11600147  0.75768487  0.24840653  1
  O  O382  1  0.10066668  0.74721348  0.74073726  1
  O  O383  1  0.62051909  0.25623159  0.25465885  1
  O  O384  1  0.62920627  0.24259566  0.76347841  1
  O  O385  1  0.61986263  0.75431840  0.25576204  1
  O  O386  1  0.63268862  0.74782734  0.76409608  1
  O  O387  1  0.38543164  0.25037196  0.24341367  1
  O  O388  1  0.37506217  0.23779619  0.75280279  1
  O  O389  1  0.38141809  0.74806795  0.24098561  1
  O  O390  1  0.37043205  0.73559630  0.73722080  1
  O  O391  1  0.89221977  0.24825298  0.24645750  1
  O  O392  1  0.88108457  0.24744711  0.74819664  1
  O  O393  1  0.88232452  0.75960340  0.23871209  1
  O  O394  1  0.88657682  0.74428405  0.75007365  1
  O  O395  1  0.37462939  0.49409017  0.49164777  1
  O  O396  1  0.37118829  0.48812644  0.99946422  1
  O  O397  1  0.37268708  0.99938799  0.48837707  1
  O  O398  1  0.38134361  0.99659665  0.99448254  1
  O  O399  1  0.89188075  0.50859584  0.50115258  1
  O  O400  1  0.88072238  0.49576781  0.99678841  1
  O  O401  1  0.86747023  0.98733509  0.48747781  1
  O  O402  1  0.88133500  0.99283961  0.99225786  1
  O  O403  1  0.11932490  0.00265703  0.00693428  1
  O  O404  1  0.12196909  -0.00208414  0.49901023  1
  O  O405  1  0.11862671  0.49925332  0.00669405  1
  O  O406  1  0.11883427  0.50984950  0.50653765  1
  O  O407  1  0.61793032  0.00583447  0.00236139  1
  O  O408  1  0.62965953  0.00016117  0.50741263  1
  O  O409  1  0.63243715  0.51158279  0.00663397  1
  O  O410  1  0.61648253  0.50088998  0.51547938  1
  O  O411  1  0.37395632  0.36762045  0.11823024  1
  O  O412  1  0.36178550  0.38549479  0.62111522  1
  O  O413  1  0.36963044  0.86816086  0.11756894  1
  O  O414  1  0.37340272  0.86242683  0.63115916  1
  O  O415  1  0.87076804  0.37732692  0.10821305  1
  O  O416  1  0.88040650  0.36397017  0.63091047  1
  O  O417  1  0.86741957  0.87245016  0.11287255  1
  O  O418  1  0.87003816  0.87926803  0.61147289  1
  O  O419  1  0.13944998  0.13158726  0.37299692  1
  O  O420  1  0.13205539  0.13861348  0.87483877  1
  O  O421  1  0.13378195  0.62555377  0.38308527  1
  O  O422  1  0.13315381  0.61014243  0.86422471  1
  O  O423  1  0.63467416  0.13698325  0.37255426  1
  O  O424  1  0.63030191  0.13148954  0.88571921  1
  O  O425  1  0.62660590  0.63609536  0.37508694  1
  O  O426  1  0.61683436  0.63781164  0.88542642  1
