# generated using pymatgen
data_V85Zn86O256
_symmetry_space_group_name_H-M   'P 1'
_cell_length_a   16.92367613
_cell_length_b   16.93822774
_cell_length_c   16.94152041
_cell_angle_alpha   90.06585699
_cell_angle_beta   90.00301392
_cell_angle_gamma   89.99065302
_symmetry_Int_Tables_number   1
_chemical_formula_structural   V85Zn86O256
_chemical_formula_sum   'V85 Zn86 O256'
_cell_volume   4856.40349964
_cell_formula_units_Z   1
loop_
 _symmetry_equiv_pos_site_id
 _symmetry_equiv_pos_as_xyz
  1  'x, y, z'
loop_
 _atom_site_type_symbol
 _atom_site_label
 _atom_site_symmetry_multiplicity
 _atom_site_fract_x
 _atom_site_fract_y
 _atom_site_fract_z
 _atom_site_occupancy
  V  V0  1  0.24912917  0.87791754  0.62459438  1
  V  V1  1  0.75281349  0.13192924  0.87330072  1
  V  V2  1  0.24935800  0.12271926  0.87434498  1
  V  V3  1  0.74845232  0.87586931  0.63431866  1
  V  V4  1  0.25308341  0.37933222  0.62862178  1
  V  V5  1  0.12249057  0.24842457  0.87095679  1
  V  V6  1  0.75080203  0.62366603  0.37510911  1
  V  V7  1  0.62373579  0.62338276  0.50070170  1
  V  V8  1  0.87017989  -0.00307128  0.87459165  1
  V  V9  1  0.37070385  0.48995738  0.86869875  1
  V  V10  1  0.49956650  0.49419795  -0.00789638  1
  V  V11  1  0.87086352  0.62404180  0.75366695  1
  V  V12  1  0.11959943  0.49389601  0.12251405  1
  V  V13  1  0.74983112  0.61664889  0.87335697  1
  V  V14  1  0.75069850  -0.00062813  0.26779857  1
  V  V15  1  -0.00585878  0.00241729  0.50035414  1
  V  V16  1  0.12645776  0.62215762  -0.00047176  1
  V  V17  1  0.50595546  0.12573827  0.61999963  1
  V  V18  1  0.61366638  0.38060182  0.76084615  1
  V  V19  1  -0.01606859  0.24478529  0.74823364  1
  V  V20  1  0.13091493  0.75002081  0.87521194  1
  V  V21  1  -0.01218361  0.37788629  0.87723422  1
  V  V22  1  -0.00562491  0.87440400  0.88284280  1
  V  V23  1  0.75048173  0.49912228  0.25045165  1
  V  V24  1  -0.00006604  0.24884275  0.26027885  1
  V  V25  1  0.62521183  0.75531935  0.86669994  1
  V  V26  1  0.37498262  0.50260063  0.37099452  1
  V  V27  1  0.13057737  0.38092956  0.75230825  1
  V  V28  1  0.50360520  0.87233340  0.86636070  1
  V  V29  1  0.24678315  0.24940929  0.00051713  1
  V  V30  1  0.49373797  0.75045173  0.24342467  1
  V  V31  1  0.12426292  0.87623371  0.74942952  1
  V  V32  1  0.24733799  0.37310731  0.12377738  1
  V  V33  1  0.12150189  0.36965111  0.25840454  1
  V  V34  1  0.48889610  0.62732322  0.12106594  1
  V  V35  1  -0.00470440  0.12321508  0.12693424  1
  V  V36  1  0.62660991  0.37172374  0.25053063  1
  V  V37  1  0.50349032  -0.00011583  0.00891031  1
  V  V38  1  0.61769528  0.25119281  0.87852833  1
  V  V39  1  0.50097739  0.49885483  0.49879257  1
  V  V40  1  0.87690249  0.63044917  0.24458669  1
  V  V41  1  0.00015809  0.62152088  0.62111681  1
  V  V42  1  0.12748288  -0.00530076  0.12413070  1
  V  V43  1  0.24970371  0.25067481  0.49996920  1
  V  V44  1  0.87011788  0.12207827  0.26438980  1
  V  V45  1  -0.01345146  0.49930847  -0.00531386  1
  V  V46  1  0.37710556  0.37173780  0.49803031  1
  V  V47  1  0.25079828  -0.00301344  0.24672577  1
  V  V48  1  0.50030906  0.62852582  0.63182019  1
  V  V49  1  0.37806307  0.24711600  0.12259728  1
  V  V50  1  0.24806681  0.49981714  0.24738401  1
  V  V51  1  0.12134616  0.61722039  0.49846302  1
  V  V52  1  0.37805266  -0.00375082  0.87853267  1
  V  V53  1  0.12709443  0.87329582  0.25070889  1
  V  V54  1  0.76286705  0.87948585  0.11923018  1
  V  V55  1  0.37830474  0.75210052  0.63231890  1
  V  V56  1  -0.00074635  0.75039666  0.74879136  1
  V  V57  1  0.76028467  0.75077293  0.00469585  1
  V  V58  1  0.24904531  0.00084918  0.75052528  1
  V  V59  1  0.62202842  0.75010281  0.37325083  1
  V  V60  1  0.12295074  0.12063712  -0.00019311  1
  V  V61  1  -0.00311692  0.87993321  0.37534035  1
  V  V62  1  0.50401378  0.24146188  0.24560928  1
  V  V63  1  0.50406188  0.37462970  0.37226128  1
  V  V64  1  0.25371267  0.75191132  0.01445278  1
  V  V65  1  -0.01849721  0.12643102  0.62851902  1
  V  V66  1  0.38046495  0.00080644  0.37710189  1
  V  V67  1  0.74441733  0.24677821  0.48421276  1
  V  V68  1  0.87109977  0.87713707  0.49750862  1
  V  V69  1  0.37330304  0.12539515  0.24497073  1
  V  V70  1  0.24825928  0.75245469  0.49873059  1
  V  V71  1  0.38207322  0.87884675  0.49953287  1
  V  V72  1  0.62787326  0.12952963  0.00922810  1
  V  V73  1  0.62311017  0.50297338  0.12293083  1
  V  V74  1  0.37562286  0.86872449  0.01184973  1
  V  V75  1  0.61731923  -0.00572656  0.62520314  1
  V  V76  1  0.62312927  0.49612486  0.63207818  1
  V  V77  1  0.24788339  0.13108097  0.37513789  1
  V  V78  1  0.79598392  0.44476104  0.69518578  1
  V  V79  1  0.24865704  0.62595400  0.37434113  1
  V  V80  1  0.37986816  0.12578643  0.75177216  1
  V  V81  1  0.36796290  0.62349596  0.75106207  1
  V  V82  1  0.12225845  0.12905850  0.50128705  1
  V  V83  1  0.88483018  0.49502094  0.38353551  1
  V  V84  1  0.75749957  0.37146120  0.11353370  1
  Zn  Zn85  1  0.63262230  0.12085680  0.47159412  1
  Zn  Zn86  1  0.86508094  0.24440523  0.11731431  1
  Zn  Zn87  1  -0.00826787  -0.00660593  0.00399427  1
  Zn  Zn88  1  0.38282477  0.25022376  0.62282620  1
  Zn  Zn89  1  0.50161806  0.87406275  0.37343361  1
  Zn  Zn90  1  0.62337224  0.63009403  -0.00160863  1
  Zn  Zn91  1  0.12195381  0.75092238  0.37422042  1
  Zn  Zn92  1  0.00419922  0.37168288  0.39547478  1
  Zn  Zn93  1  0.13049768  0.50140231  0.62673026  1
  Zn  Zn94  1  0.50074161  0.25100706  0.75356996  1
  Zn  Zn95  1  0.12297388  0.00349002  0.62618572  1
  Zn  Zn96  1  -0.00969797  0.75920345  0.24308378  1
  Zn  Zn97  1  0.62616954  0.87326636  0.24544130  1
  Zn  Zn98  1  -0.00500431  0.62991149  0.12126625  1
  Zn  Zn99  1  0.87013927  0.36250847  0.51931638  1
  Zn  Zn100  1  0.75003090  0.00354355  0.74874471  1
  Zn  Zn101  1  0.36863650  0.63022144  0.24233619  1
  Zn  Zn102  1  0.74872310  0.75222226  0.50127505  1
  Zn  Zn103  1  0.37947430  0.37002852  -0.00488598  1
  Zn  Zn104  1  0.62779531  -0.00211659  0.12595508  1
  Zn  Zn105  1  0.87190934  0.75086795  0.62340273  1
  Zn  Zn106  1  0.24926057  0.62032454  0.87046277  1
  Zn  Zn107  1  0.18245038  0.18753805  0.18793282  1
  Zn  Zn108  1  0.18781836  0.19033746  0.68437326  1
  Zn  Zn109  1  0.18025379  0.68532127  0.18662800  1
  Zn  Zn110  1  0.18825777  0.68883426  0.68502026  1
  Zn  Zn111  1  0.69134410  0.18836173  0.19100686  1
  Zn  Zn112  1  0.69585877  0.18909162  0.68941640  1
  Zn  Zn113  1  0.68679632  0.68954418  0.18535164  1
  Zn  Zn114  1  0.68843590  0.68880319  0.68870823  1
  Zn  Zn115  1  0.31343130  0.31238129  0.31110582  1
  Zn  Zn116  1  0.31227621  0.30893060  0.81126816  1
  Zn  Zn117  1  0.31238398  0.81315430  0.31096620  1
  Zn  Zn118  1  0.31493147  0.81354088  0.81548063  1
  Zn  Zn119  1  0.81424592  0.31107555  0.31024708  1
  Zn  Zn120  1  0.80785868  0.30851085  0.82291197  1
  Zn  Zn121  1  0.80952683  0.81536812  0.31502667  1
  Zn  Zn122  1  0.81242711  0.80956670  0.81536390  1
  Zn  Zn123  1  0.18886862  0.43717102  0.43762318  1
  Zn  Zn124  1  0.18713875  0.43507550  0.93636844  1
  Zn  Zn125  1  0.18654018  0.94312945  0.43642382  1
  Zn  Zn126  1  0.18888854  0.93300998  0.93964616  1
  Zn  Zn127  1  0.69097880  0.43220034  0.44028832  1
  Zn  Zn128  1  0.68672850  0.43805255  0.93831531  1
  Zn  Zn129  1  0.68036755  0.93590415  0.44606002  1
  Zn  Zn130  1  0.68942883  0.93754226  0.93958303  1
  Zn  Zn131  1  0.31281469  0.06042478  0.06219706  1
  Zn  Zn132  1  0.31649452  0.06418178  0.56372587  1
  Zn  Zn133  1  0.31035783  0.55901078  0.05563635  1
  Zn  Zn134  1  0.31290901  0.56235089  0.56072863  1
  Zn  Zn135  1  0.81274043  0.06082914  0.05846114  1
  Zn  Zn136  1  0.80378269  0.06478508  0.55628285  1
  Zn  Zn137  1  0.80720046  0.56323617  0.06194339  1
  Zn  Zn138  1  0.81584678  0.56892042  0.55806216  1
  Zn  Zn139  1  0.43677890  0.43610409  0.18368122  1
  Zn  Zn140  1  0.43849873  0.43730126  0.68786232  1
  Zn  Zn141  1  0.43857586  0.93475301  0.18827266  1
  Zn  Zn142  1  0.43826360  0.93945040  0.68940255  1
  Zn  Zn143  1  0.93745051  0.44078475  0.19124442  1
  Zn  Zn144  1  0.95852632  0.43422450  0.68428774  1
  Zn  Zn145  1  0.93504973  0.94157180  0.19049710  1
  Zn  Zn146  1  0.93234665  0.94145407  0.68916268  1
  Zn  Zn147  1  0.06211320  0.06210764  0.31650193  1
  Zn  Zn148  1  0.05702365  0.06077467  0.81176891  1
  Zn  Zn149  1  0.06074737  0.56221948  0.31226608  1
  Zn  Zn150  1  0.06031020  0.56207690  0.81334156  1
  Zn  Zn151  1  0.56307821  0.06012614  0.30477927  1
  Zn  Zn152  1  0.56752116  0.05848191  0.81299145  1
  Zn  Zn153  1  0.56186111  0.56450258  0.30722789  1
  Zn  Zn154  1  0.55994717  0.56802987  0.81365388  1
  Zn  Zn155  1  0.46381615  0.17635445  0.42242247  1
  Zn  Zn156  1  0.44135224  0.18291147  0.94132518  1
  Zn  Zn157  1  0.43727383  0.68853766  0.43932391  1
  Zn  Zn158  1  0.43892079  0.68670000  0.93552623  1
  Zn  Zn159  1  0.92946494  0.19401750  0.44428169  1
  Zn  Zn160  1  0.93349426  0.18535352  0.94028414  1
  Zn  Zn161  1  0.93704390  0.69348545  0.43411047  1
  Zn  Zn162  1  0.93860664  0.68474775  0.93446257  1
  Zn  Zn163  1  0.02669126  0.29585754  0.04866904  1
  Zn  Zn164  1  0.06206562  0.31125785  0.56521651  1
  Zn  Zn165  1  0.06158307  0.80893362  0.06563548  1
  Zn  Zn166  1  0.06192386  0.81215769  0.56237299  1
  Zn  Zn167  1  0.56484557  0.31401869  0.06430962  1
  Zn  Zn168  1  0.60874827  0.29014009  0.58301617  1
  Zn  Zn169  1  0.57055593  0.81362060  0.05968469  1
  Zn  Zn170  1  0.56350215  0.81149197  0.56321702  1
  O  O171  1  0.12032319  0.11229576  0.12181250  1
  O  O172  1  0.12209936  0.12532494  0.61262943  1
  O  O173  1  0.12398298  0.61079022  0.11648277  1
  O  O174  1  0.12009286  0.62514871  0.61720997  1
  O  O175  1  0.63270650  0.12295123  0.11215920  1
  O  O176  1  0.61182004  0.11593983  0.62939052  1
  O  O177  1  0.61923896  0.61306708  0.12496563  1
  O  O178  1  0.61729624  0.61795097  0.62460238  1
  O  O179  1  0.37729748  0.38818902  0.37603172  1
  O  O180  1  0.37388629  0.38588755  0.87323161  1
  O  O181  1  0.37157338  0.88212255  0.38421410  1
  O  O182  1  0.38284361  0.87970025  0.88275388  1
  O  O183  1  0.87818660  0.39155299  0.36616474  1
  O  O184  1  0.88833057  0.37193072  0.87294738  1
  O  O185  1  0.88078936  0.87389690  0.38757569  1
  O  O186  1  0.88424315  0.88017608  0.87178749  1
  O  O187  1  0.25683664  0.01113215  0.36674855  1
  O  O188  1  0.25595481  0.00422507  0.87119953  1
  O  O189  1  0.25648523  0.50564131  0.36919935  1
  O  O190  1  0.26575063  0.50156966  0.87904732  1
  O  O191  1  0.74440864  -0.00590570  0.36628805  1
  O  O192  1  0.75322767  0.00793198  0.87313782  1
  O  O193  1  0.75279125  0.51062987  0.36995028  1
  O  O194  1  0.74546744  0.51743158  0.88178580  1
  O  O195  1  0.24305916  0.49313478  0.12740972  1
  O  O196  1  0.25078708  0.48450242  0.61885158  1
  O  O197  1  0.24272965  1.00573113  0.13791691  1
  O  O198  1  0.24929379  0.99452405  0.63171915  1
  O  O199  1  0.74120169  0.49432106  0.13011920  1
  O  O200  1  0.74261919  0.50521377  0.62821885  1
  O  O201  1  0.75163873  0.98742348  0.12585146  1
  O  O202  1  0.74134436  0.99352831  0.62709416  1
  O  O203  1  0.00632938  0.36422062  0.24738736  1
  O  O204  1  0.01013324  0.36183946  0.75609063  1
  O  O205  1  0.00617429  0.87994124  0.25889979  1
  O  O206  1  0.00430272  0.86648631  0.75526579  1
  O  O207  1  0.50865906  0.37177200  0.25098623  1
  O  O208  1  0.50990755  0.37313159  0.75211810  1
  O  O209  1  0.50492312  0.86476881  0.25033637  1
  O  O210  1  0.49304132  0.87623364  0.76678407  1
  O  O211  1  0.49115063  0.13723052  0.24101505  1
  O  O212  1  0.49184958  0.12202594  0.74570880  1
  O  O213  1  0.49561924  0.63049892  0.23862863  1
  O  O214  1  0.48799884  0.62346404  0.73744962  1
  O  O215  1  0.99032646  0.12485603  0.24792572  1
  O  O216  1  1.00273052  0.13694566  0.74380312  1
  O  O217  1  0.98512806  0.62563052  0.25177917  1
  O  O218  1  0.99419450  0.63193103  0.74546550  1
  O  O219  1  0.37016253  0.24965984  0.00557299  1
  O  O220  1  0.36503945  0.25588616  0.49919416  1
  O  O221  1  0.36548866  0.75600924  -0.00675968  1
  O  O222  1  0.36447875  0.75506017  0.50774867  1
  O  O223  1  0.91780827  0.26048429  0.01929124  1
  O  O224  1  0.85526097  0.24627629  0.50813973  1
  O  O225  1  0.85976413  0.74594288  -0.00800718  1
  O  O226  1  0.87290826  0.76104995  0.50303887  1
  O  O227  1  0.13935435  0.24407945  0.50282482  1
  O  O228  1  0.12306326  0.24246501  0.98781061  1
  O  O229  1  0.13746650  0.74544829  0.50024530  1
  O  O230  1  0.13196654  0.74307447  0.99251008  1
  O  O231  1  0.63224828  0.24561613  0.48232329  1
  O  O232  1  0.61879460  0.23691257  0.99715169  1
  O  O233  1  0.62292266  0.74101139  0.48993138  1
  O  O234  1  0.63783976  0.74804170  0.99100674  1
  O  O235  1  0.48873992  0.25841767  0.13275637  1
  O  O236  1  0.50626927  0.23686722  0.63160603  1
  O  O237  1  0.50876131  0.73858036  0.13069343  1
  O  O238  1  0.49038642  0.74122671  0.61926190  1
  O  O239  1  1.01358743  0.22920869  0.14328428  1
  O  O240  1  1.00320594  0.24169888  0.64178521  1
  O  O241  1  1.00597995  0.74208713  0.13208928  1
  O  O242  1  1.00184032  0.74266309  0.63690348  1
  O  O243  1  -0.00523689  0.25087942  0.36445918  1
  O  O244  1  0.00608497  0.25182329  0.86411468  1
  O  O245  1  0.00298215  0.76580577  0.37053238  1
  O  O246  1  0.00929743  0.75384500  0.86653185  1
  O  O247  1  0.48331834  0.27143475  0.35762626  1
  O  O248  1  0.51277322  0.24427838  0.87430194  1
  O  O249  1  0.50657859  0.74737309  0.36692960  1
  O  O250  1  0.51567541  0.75657157  0.88181084  1
  O  O251  1  0.24538029  0.13090524  0.49546188  1
  O  O252  1  0.24264081  0.12886290  0.99393799  1
  O  O253  1  0.24413008  0.63338610  0.49543233  1
  O  O254  1  0.23964520  0.63076996  0.99612919  1
  O  O255  1  0.74469786  0.13481363  0.49303693  1
  O  O256  1  0.73532122  0.11994377  0.99042874  1
  O  O257  1  0.74240582  0.62799171  0.49125753  1
  O  O258  1  0.74792900  0.63572236  0.99463498  1
  O  O259  1  0.25068717  0.36588270  0.00591924  1
  O  O260  1  0.25482560  0.36783922  0.50339325  1
  O  O261  1  0.26102569  0.86325615  -0.00484372  1
  O  O262  1  0.25461706  0.86939236  0.50419503  1
  O  O263  1  0.74939739  0.38007841  0.01495212  1
  O  O264  1  0.75480890  0.36101186  0.49640315  1
  O  O265  1  0.75174727  0.86593840  0.01061533  1
  O  O266  1  0.75762291  0.87487445  0.50768898  1
  O  O267  1  0.12760501  0.49541481  0.24125189  1
  O  O268  1  0.12211733  0.48515499  0.75106990  1
  O  O269  1  0.13136113  0.99373275  0.24582819  1
  O  O270  1  0.13106792  0.99431651  0.74968556  1
  O  O271  1  0.62935062  0.49394217  0.24135467  1
  O  O272  1  0.62045376  0.49576459  0.74602042  1
  O  O273  1  0.63827269  1.00023578  0.24607358  1
  O  O274  1  0.62884192  1.00094410  0.73262588  1
  O  O275  1  0.36691582  0.00419638  0.25219249  1
  O  O276  1  0.36917323  0.00800360  0.75720937  1
  O  O277  1  0.36691461  0.50102591  0.25507706  1
  O  O278  1  0.37939458  0.50622127  0.76147649  1
  O  O279  1  0.86297159  0.01110434  0.25102878  1
  O  O280  1  0.87248443  0.00109498  0.76644267  1
  O  O281  1  0.86927712  0.51085204  0.26047753  1
  O  O282  1  0.86756971  0.50285664  0.74280778  1
  O  O283  1  0.11961848  0.38448797  0.36271579  1
  O  O284  1  0.12138167  0.36531960  0.86864632  1
  O  O285  1  0.11834335  0.87684641  0.36785722  1
  O  O286  1  0.11975216  0.86688511  0.86848248  1
  O  O287  1  0.61445282  0.38717854  0.36180685  1
  O  O288  1  0.62863136  0.36564977  0.87260914  1
  O  O289  1  0.62334640  0.86193707  0.37490068  1
  O  O290  1  0.61971991  0.86456176  0.87967282  1
  O  O291  1  0.36656425  0.13861189  0.12916396  1
  O  O292  1  0.38349441  0.12503414  0.63701319  1
  O  O293  1  0.38509678  0.61872206  0.12277001  1
  O  O294  1  0.38021028  0.63161612  0.62846637  1
  O  O295  1  0.88232606  0.12317829  0.13081066  1
  O  O296  1  0.88286609  0.11830716  0.62534734  1
  O  O297  1  0.87235757  0.61902315  0.14201182  1
  O  O298  1  0.88261121  0.62784540  0.63272127  1
  O  O299  1  0.25200640  0.25419048  0.11908707  1
  O  O300  1  0.25516833  0.25966355  0.61651867  1
  O  O301  1  0.24585046  0.74566711  0.11349832  1
  O  O302  1  0.25741332  0.75708343  0.61779353  1
  O  O303  1  0.74918316  0.26630060  0.12681032  1
  O  O304  1  0.71886902  0.25415857  0.60498456  1
  O  O305  1  0.74856563  0.75711706  0.11260577  1
  O  O306  1  0.74855278  0.75952634  0.62133452  1
  O  O307  1  0.25542704  0.23781351  0.38039122  1
  O  O308  1  0.24265594  0.24293337  0.88085263  1
  O  O309  1  0.24968128  0.74386397  0.38285723  1
  O  O310  1  0.23875428  0.74791948  0.87667342  1
  O  O311  1  0.75267305  0.25036122  0.38183723  1
  O  O312  1  0.74055159  0.23799609  0.88138370  1
  O  O313  1  0.74076168  0.73887137  0.37477746  1
  O  O314  1  0.74218558  0.74683612  0.88370216  1
  O  O315  1  0.00833100  0.11744240  0.00972020  1
  O  O316  1  0.00406720  0.12226916  0.50664196  1
  O  O317  1  0.01152748  0.61773757  -0.00353573  1
  O  O318  1  0.00956702  0.63730974  0.50862396  1
  O  O319  1  0.51512250  0.11338574  -0.00355826  1
  O  O320  1  0.48644585  0.12259737  0.52236027  1
  O  O321  1  0.50143645  0.61625644  0.00630743  1
  O  O322  1  0.50347895  0.61875063  0.50944058  1
  O  O323  1  0.49385182  0.38267545  0.48627617  1
  O  O324  1  0.49797436  0.38991636  1.00700403  1
  O  O325  1  0.48493801  0.86865607  0.49708241  1
  O  O326  1  0.49444928  0.88028770  0.99375197  1
  O  O327  1  0.98498019  0.36562620  0.50693013  1
  O  O328  1  1.01296624  0.39112145  0.98761818  1
  O  O329  1  0.99502269  0.88288089  0.49661127  1
  O  O330  1  1.00840590  0.87388892  0.98589435  1
  O  O331  1  0.49217339  0.49530985  0.37416038  1
  O  O332  1  0.48737048  0.50697848  0.88269682  1
  O  O333  1  0.48281405  0.99183469  0.36347103  1
  O  O334  1  0.49768567  0.99187815  0.88436484  1
  O  O335  1  0.98747702  0.49987045  0.37679709  1
  O  O336  1  1.00230022  0.49129199  0.88221987  1
  O  O337  1  1.00307848  0.98947910  0.38520317  1
  O  O338  1  0.99331031  0.98970585  0.87582596  1
  O  O339  1  0.00709181  0.00745444  0.12623685  1
  O  O340  1  0.00196331  0.00923848  0.62056239  1
  O  O341  1  0.00576373  0.50279568  0.11612275  1
  O  O342  1  0.00851850  0.51685913  0.62747726  1
  O  O343  1  0.50301562  -0.00413877  0.11297049  1
  O  O344  1  0.50867879  0.00636714  0.62909007  1
  O  O345  1  0.50538478  0.50706670  0.11905652  1
  O  O346  1  0.50523653  0.50774758  0.61977834  1
  O  O347  1  0.24079199  0.37895095  0.24490460  1
  O  O348  1  0.24324685  0.36837622  0.74109829  1
  O  O349  1  0.24222502  0.88703182  0.25620028  1
  O  O350  1  0.24569118  0.88027394  0.74562680  1
  O  O351  1  0.74086375  0.38078896  0.24636987  1
  O  O352  1  0.74250318  0.38250130  0.75774695  1
  O  O353  1  0.75067751  0.88607434  0.24372172  1
  O  O354  1  0.75725258  0.87531524  0.73691120  1
  O  O355  1  0.25220727  0.12060307  0.25797351  1
  O  O356  1  0.25701978  0.12115480  0.75460608  1
  O  O357  1  0.24890844  0.61920198  0.25568383  1
  O  O358  1  0.26298620  0.62601793  0.74664747  1
  O  O359  1  0.76083645  0.11499927  0.24821362  1
  O  O360  1  0.74429398  0.12469444  0.76869933  1
  O  O361  1  0.75656061  0.62077529  0.25583209  1
  O  O362  1  0.75939633  0.62976134  0.75837286  1
  O  O363  1  0.36997538  0.11798621  0.36693451  1
  O  O364  1  0.37095482  0.11742287  0.87059839  1
  O  O365  1  0.37044434  0.61444726  0.37488116  1
  O  O366  1  0.37314588  0.61890233  0.86527734  1
  O  O367  1  0.88009478  0.12469054  0.36197443  1
  O  O368  1  0.85873192  0.12145427  0.88185139  1
  O  O369  1  0.86817232  0.61699805  0.37128235  1
  O  O370  1  0.86891278  0.62723392  0.86139173  1
  O  O371  1  0.12784173  0.38515704  0.13267637  1
  O  O372  1  0.13371613  0.37508474  0.63465002  1
  O  O373  1  0.12082040  0.88803051  0.13309238  1
  O  O374  1  0.13085487  0.87646113  0.63184870  1
  O  O375  1  0.63182667  0.38571119  0.13132776  1
  O  O376  1  0.61939076  0.39133996  0.63875032  1
  O  O377  1  0.64054357  0.87676050  0.12744040  1
  O  O378  1  0.63092104  0.88513398  0.61896493  1
  O  O379  1  0.11882000  0.25966839  0.25241435  1
  O  O380  1  0.12463951  0.25465433  0.76095225  1
  O  O381  1  0.12880811  0.76540597  0.25190819  1
  O  O382  1  0.11964403  0.75301797  0.75688192  1
  O  O383  1  0.61625602  0.25995128  0.24312664  1
  O  O384  1  0.62577851  0.26146680  0.76201870  1
  O  O385  1  0.61573885  0.74716842  0.25836054  1
  O  O386  1  0.62919436  0.74969458  0.76708173  1
  O  O387  1  0.37908582  0.24609974  0.24066693  1
  O  O388  1  0.37860331  0.23747411  0.74992532  1
  O  O389  1  0.38826078  0.74823933  0.25338825  1
  O  O390  1  0.37082656  0.74433532  0.73810625  1
  O  O391  1  0.88085034  0.23715271  0.24327545  1
  O  O392  1  0.88562508  0.25162067  0.75421137  1
  O  O393  1  0.87167406  0.73394551  0.25968683  1
  O  O394  1  0.88408038  0.74190363  0.74800085  1
  O  O395  1  0.38049471  0.49474835  0.49079110  1
  O  O396  1  0.38095618  0.49706665  0.98659319  1
  O  O397  1  0.36705775  0.99051884  0.49013524  1
  O  O398  1  0.38218590  0.99409973  0.99607743  1
  O  O399  1  0.86776660  0.49727654  0.48509086  1
  O  O400  1  0.88790071  0.50744104  1.00285679  1
  O  O401  1  0.88690198  0.99454535  0.50439019  1
  O  O402  1  0.87706263  1.00190389  0.98401502  1
  O  O403  1  0.12638076  0.00247239  0.00881452  1
  O  O404  1  0.11330325  0.00804823  0.50315970  1
  O  O405  1  0.12336455  0.50696014  0.00505612  1
  O  O406  1  0.13014147  0.51422319  0.50102318  1
  O  O407  1  0.61894991  0.00856704  0.00112764  1
  O  O408  1  0.62619456  0.00789700  0.51699128  1
  O  O409  1  0.61662598  0.50401360  0.00624161  1
  O  O410  1  0.62035967  0.50407035  0.50899936  1
  O  O411  1  0.36495311  0.36427552  0.12361421  1
  O  O412  1  0.37165317  0.37214509  0.61879318  1
  O  O413  1  0.37685357  0.87585803  0.11134991  1
  O  O414  1  0.37126385  0.86962124  0.61993930  1
  O  O415  1  0.85837028  0.37902111  0.13382788  1
  O  O416  1  0.86037723  0.38739992  0.64027002  1
  O  O417  1  0.86241734  0.87359932  0.13144254  1
  O  O418  1  0.86829044  0.87527923  0.61559276  1
  O  O419  1  0.13425588  0.11984900  0.38917823  1
  O  O420  1  0.12829882  0.12923446  0.87858081  1
  O  O421  1  0.12857118  0.62848592  0.38108182  1
  O  O422  1  0.12744905  0.63173795  0.88017668  1
  O  O423  1  0.56647507  0.13647324  0.38259768  1
  O  O424  1  0.63266282  0.13049664  0.88314664  1
  O  O425  1  0.63112012  0.62884922  0.37795805  1
  O  O426  1  0.63126852  0.63659395  0.87553717  1
