# generated using pymatgen
data_V85Zn86O256
_symmetry_space_group_name_H-M   'P 1'
_cell_length_a   16.95354909
_cell_length_b   16.95073894
_cell_length_c   16.94075550
_cell_angle_alpha   90.06521601
_cell_angle_beta   89.95411773
_cell_angle_gamma   89.95637590
_symmetry_Int_Tables_number   1
_chemical_formula_structural   V85Zn86O256
_chemical_formula_sum   'V85 Zn86 O256'
_cell_volume   4868.34661451
_cell_formula_units_Z   1
loop_
 _symmetry_equiv_pos_site_id
 _symmetry_equiv_pos_as_xyz
  1  'x, y, z'
loop_
 _atom_site_type_symbol
 _atom_site_label
 _atom_site_symmetry_multiplicity
 _atom_site_fract_x
 _atom_site_fract_y
 _atom_site_fract_z
 _atom_site_occupancy
  V  V0  1  0.88139468  0.50039635  0.37140387  1
  V  V1  1  0.87427950  0.74522555  0.12071924  1
  V  V2  1  0.49931175  0.87701731  0.87630632  1
  V  V3  1  0.87652663  0.74909173  0.62729942  1
  V  V4  1  0.24293705  0.12336877  0.38247551  1
  V  V5  1  0.25626828  0.75193264  0.00209613  1
  V  V6  1  -0.00251690  0.24396545  0.75119431  1
  V  V7  1  0.62107854  -0.00213913  0.61435251  1
  V  V8  1  0.36794611  0.24646784  0.61842285  1
  V  V9  1  0.24540763  -0.00421325  0.25548229  1
  V  V10  1  0.24820722  0.49951261  0.75492280  1
  V  V11  1  0.37798298  0.49944225  0.37858794  1
  V  V12  1  0.25378138  0.24182628  -0.00566778  1
  V  V13  1  0.87930186  0.87840589  0.49791835  1
  V  V14  1  0.86367577  0.25310534  0.13962497  1
  V  V15  1  0.87855573  0.23720125  0.62172204  1
  V  V16  1  0.87330920  0.00574623  0.35943085  1
  V  V17  1  0.75151763  0.37423613  0.62282805  1
  V  V18  1  0.63015505  0.87922032  0.25182253  1
  V  V19  1  0.50029257  0.12437771  0.12594672  1
  V  V20  1  0.37526664  0.75048697  0.62563542  1
  V  V21  1  0.12709118  0.00770550  0.62903509  1
  V  V22  1  -0.00217293  0.01380142  0.50509346  1
  V  V23  1  0.50174149  0.26022799  0.26253484  1
  V  V24  1  0.24586069  0.36944692  0.63056689  1
  V  V25  1  0.00031209  0.50036283  0.50189714  1
  V  V26  1  0.63506931  0.62911642  0.00051928  1
  V  V27  1  0.25163485  0.75645051  0.50246356  1
  V  V28  1  0.38761310  -0.00194919  0.37918567  1
  V  V29  1  0.12419633  0.50221662  0.63242796  1
  V  V30  1  0.62294417  0.37387780  0.74889057  1
  V  V31  1  0.49672051  0.24668165  0.74894337  1
  V  V32  1  0.24979425  0.63132758  0.37115178  1
  V  V33  1  0.37103634  0.37648811  0.00409767  1
  V  V34  1  0.11963619  0.24451841  0.87820920  1
  V  V35  1  0.03026687  0.46164005  0.00931550  1
  V  V36  1  0.02418644  0.25151021  0.24993763  1
  V  V37  1  0.24620814  0.62600972  0.87925712  1
  V  V38  1  0.37097563  0.25342698  0.12587224  1
  V  V39  1  0.36153113  0.12046181  0.75351055  1
  V  V40  1  0.63287498  0.00138007  0.12464371  1
  V  V41  1  0.49695908  0.11857786  0.61869240  1
  V  V42  1  0.88067189  0.36994159  0.49725025  1
  V  V43  1  0.62376754  0.75347308  0.37320594  1
  V  V44  1  0.19098176  0.29954407  0.44317032  1
  V  V45  1  0.75477478  0.50139339  0.75862105  1
  V  V46  1  0.63089160  0.48907754  0.12819232  1
  V  V47  1  0.11712582  0.75523022  0.87659574  1
  V  V48  1  0.87850517  -0.00151084  0.87404737  1
  V  V49  1  0.75136861  0.74800422  0.49814640  1
  V  V50  1  0.12310416  -0.00429240  0.12993843  1
  V  V51  1  0.37516988  0.62353960  0.75186611  1
  V  V52  1  0.12920273  0.11751781  -0.00447687  1
  V  V53  1  0.12432419  0.63234029  0.50313807  1
  V  V54  1  0.50006711  0.63010604  0.12384573  1
  V  V55  1  0.37386995  0.49800422  0.87535642  1
  V  V56  1  0.49849297  0.50042841  0.00139404  1
  V  V57  1  0.36224389  0.00170239  0.87268625  1
  V  V58  1  0.12329043  0.76268304  0.37213705  1
  V  V59  1  0.23802609  0.49086166  0.23896970  1
  V  V60  1  0.25107046  0.87295148  0.13076774  1
  V  V61  1  0.49815229  0.75737834  0.24929712  1
  V  V62  1  0.87360861  0.87080311  -0.00443755  1
  V  V63  1  0.74649722  0.12469411  0.36221945  1
  V  V64  1  0.62093652  0.62173468  0.49701592  1
  V  V65  1  0.73973353  0.24511456  0.49591490  1
  V  V66  1  0.39090708  0.87807858  0.49830063  1
  V  V67  1  0.62075373  0.49966324  0.62148342  1
  V  V68  1  0.37310643  0.12412743  0.25191014  1
  V  V69  1  0.11531302  0.63220234  0.01866111  1
  V  V70  1  0.00187047  0.75537582  0.24540946  1
  V  V71  1  0.74863819  0.00273923  0.75060515  1
  V  V72  1  0.50085043  0.74720890  0.75148038  1
  V  V73  1  0.62460148  0.87481088  0.75104532  1
  V  V74  1  0.37677022  0.87552594  0.00681898  1
  V  V75  1  0.00074972  0.62580147  0.63195012  1
  V  V76  1  0.37515618  0.62911042  0.24515555  1
  V  V77  1  0.62545822  0.24604251  0.87572145  1
  V  V78  1  -0.00119574  -0.00385187  -0.00305595  1
  V  V79  1  0.75146310  0.87518012  0.62481491  1
  V  V80  1  0.11772824  0.37623178  0.76504926  1
  V  V81  1  0.75174292  0.87315942  0.12295943  1
  V  V82  1  0.86434455  0.37572552  -0.02108810  1
  V  V83  1  0.88165002  0.62262350  0.24400446  1
  V  V84  1  0.12575798  0.88028018  0.75309174  1
  Zn  Zn85  1  -0.00942578  0.12305694  0.13216988  1
  Zn  Zn86  1  0.62752970  0.37241319  0.26898022  1
  Zn  Zn87  1  0.63044670  0.75194754  0.88292674  1
  Zn  Zn88  1  0.37485610  0.37350490  0.49640002  1
  Zn  Zn89  1  0.87844927  0.61889044  0.75604009  1
  Zn  Zn90  1  0.61859864  0.12199961  0.49187850  1
  Zn  Zn91  1  0.50047875  0.00083027  0.00076791  1
  Zn  Zn92  1  0.74957480  0.12342796  0.87848820  1
  Zn  Zn93  1  -0.00183239  0.75513081  0.75541178  1
  Zn  Zn94  1  0.76148852  0.49162481  0.24200678  1
  Zn  Zn95  1  0.25375639  0.88200961  0.63108046  1
  Zn  Zn96  1  0.76531238  0.63156197  0.88436766  1
  Zn  Zn97  1  0.49752086  0.37372197  0.87393758  1
  Zn  Zn98  1  0.87991373  0.12065533  0.74873278  1
  Zn  Zn99  1  0.12458618  0.12989577  0.50316646  1
  Zn  Zn100  1  0.49767400  0.62125268  0.62006074  1
  Zn  Zn101  1  0.00319698  0.88161353  0.37186077  1
  Zn  Zn102  1  0.53753525  0.43804544  0.44450892  1
  Zn  Zn103  1  0.62457474  0.12388891  -0.00151687  1
  Zn  Zn104  1  0.01347773  0.37329820  0.36647890  1
  Zn  Zn105  1  0.75294541  0.62531710  0.37022178  1
  Zn  Zn106  1  0.74714398  0.24911712  0.00996825  1
  Zn  Zn107  1  0.19036777  0.18079297  0.18217734  1
  Zn  Zn108  1  0.18382431  0.18621831  0.69003971  1
  Zn  Zn109  1  0.19066180  0.69546229  0.19129952  1
  Zn  Zn110  1  0.18796797  0.69234900  0.69244322  1
  Zn  Zn111  1  0.68289799  0.19112171  0.19085326  1
  Zn  Zn112  1  0.68630108  0.18495128  0.68405465  1
  Zn  Zn113  1  0.69375998  0.68431598  0.18595426  1
  Zn  Zn114  1  0.68767689  0.68566469  0.68974283  1
  Zn  Zn115  1  0.31557906  0.31827307  0.30543603  1
  Zn  Zn116  1  0.31003564  0.30937676  0.81513386  1
  Zn  Zn117  1  0.31725564  0.81572470  0.31502788  1
  Zn  Zn118  1  0.30953192  0.81542248  0.81469448  1
  Zn  Zn119  1  0.81220616  0.31227905  0.31093202  1
  Zn  Zn120  1  0.80901310  0.31018290  0.80930015  1
  Zn  Zn121  1  0.81252661  0.81389629  0.30970147  1
  Zn  Zn122  1  0.81113110  0.81100104  0.81473755  1
  Zn  Zn123  1  0.19229427  0.46148143  0.43847428  1
  Zn  Zn124  1  0.18810215  0.43581467  0.95329035  1
  Zn  Zn125  1  0.19022207  0.94122503  0.44450264  1
  Zn  Zn126  1  0.18754952  0.93502212  0.93814709  1
  Zn  Zn127  1  0.70338152  0.43272803  0.42734708  1
  Zn  Zn128  1  0.68550804  0.43407184  0.93861034  1
  Zn  Zn129  1  0.69266733  0.93769181  0.43350970  1
  Zn  Zn130  1  0.68852725  0.93799108  0.93978323  1
  Zn  Zn131  1  0.31356193  0.06015632  0.06324972  1
  Zn  Zn132  1  0.31056145  0.06090337  0.56058003  1
  Zn  Zn133  1  0.31067098  0.56583074  0.06522126  1
  Zn  Zn134  1  0.30962237  0.56548947  0.56449662  1
  Zn  Zn135  1  0.81060769  0.06958308  0.06310728  1
  Zn  Zn136  1  0.80811556  0.06196970  0.55816988  1
  Zn  Zn137  1  0.81871167  0.55550324  0.06263012  1
  Zn  Zn138  1  0.81054338  0.56171465  0.56336055  1
  Zn  Zn139  1  0.43409860  0.44121583  0.18872338  1
  Zn  Zn140  1  0.43730867  0.43355391  0.67918186  1
  Zn  Zn141  1  0.43868971  0.94013054  0.19007465  1
  Zn  Zn142  1  0.43535365  0.93745587  0.68855492  1
  Zn  Zn143  1  0.94596210  0.42789563  0.17831213  1
  Zn  Zn144  1  0.93689511  0.43053736  0.68976766  1
  Zn  Zn145  1  0.93991846  0.93278132  0.18477346  1
  Zn  Zn146  1  0.94287406  0.93730272  0.68777337  1
  Zn  Zn147  1  0.06002610  0.06695422  0.31297775  1
  Zn  Zn148  1  0.06210429  0.06140748  0.81425222  1
  Zn  Zn149  1  0.06186759  0.56865959  0.30995591  1
  Zn  Zn150  1  0.05567782  0.56194866  0.82924648  1
  Zn  Zn151  1  0.56504501  0.06552101  0.30665743  1
  Zn  Zn152  1  0.55764298  0.06140848  0.80822438  1
  Zn  Zn153  1  0.56381779  0.56678998  0.30896402  1
  Zn  Zn154  1  0.56449336  0.56011940  0.81452272  1
  Zn  Zn155  1  0.43103289  0.18360013  0.43890073  1
  Zn  Zn156  1  0.43989372  0.18440187  0.93659618  1
  Zn  Zn157  1  0.44010152  0.68969843  0.43396827  1
  Zn  Zn158  1  0.43837525  0.68845718  0.93776285  1
  Zn  Zn159  1  0.93869111  0.18970609  0.42384882  1
  Zn  Zn160  1  0.93422461  0.18532218  0.94447547  1
  Zn  Zn161  1  0.94031846  0.68779954  0.43672896  1
  Zn  Zn162  1  0.93672061  0.68504467  0.93680635  1
  Zn  Zn163  1  0.05479264  0.30207677  0.05932229  1
  Zn  Zn164  1  0.05616497  0.31653876  0.57307548  1
  Zn  Zn165  1  0.06136330  0.81399103  0.06350860  1
  Zn  Zn166  1  0.06192119  0.81953673  0.56645102  1
  Zn  Zn167  1  0.55654831  0.31094867  0.06163618  1
  Zn  Zn168  1  0.55860744  0.30951080  0.56449915  1
  Zn  Zn169  1  0.56300551  0.81147968  0.06533058  1
  Zn  Zn170  1  0.56419983  0.80746228  0.56495894  1
  O  O171  1  0.12812333  0.10873773  0.11341889  1
  O  O172  1  0.12490352  0.11226508  0.62496104  1
  O  O173  1  0.12728557  0.63878687  0.11730085  1
  O  O174  1  0.11911340  0.62396248  0.62383319  1
  O  O175  1  0.61734805  0.11693500  0.12836890  1
  O  O176  1  0.61527454  0.11428860  0.62289279  1
  O  O177  1  0.61938100  0.61877327  0.11670103  1
  O  O178  1  0.62506642  0.61711000  0.61605716  1
  O  O179  1  0.36879101  0.39423344  0.37720492  1
  O  O180  1  0.37579319  0.38112194  0.88096237  1
  O  O181  1  0.37395618  0.88531123  0.38575180  1
  O  O182  1  0.38076824  0.88021779  0.88389083  1
  O  O183  1  0.88055491  0.38115216  0.38666447  1
  O  O184  1  0.87189595  0.37244311  0.87863027  1
  O  O185  1  0.87249472  0.88755021  0.38210849  1
  O  O186  1  0.86884772  0.88546647  0.88408216  1
  O  O187  1  0.25469821  0.00516222  0.37010398  1
  O  O188  1  0.26309565  -0.00406525  0.87832397  1
  O  O189  1  0.25768318  0.51750254  0.36511024  1
  O  O190  1  0.25374363  0.50484739  0.87433962  1
  O  O191  1  0.76458483  0.01018339  0.37861351  1
  O  O192  1  0.75521012  -0.00037577  0.86547505  1
  O  O193  1  0.77334182  0.50699544  0.37736973  1
  O  O194  1  0.74092548  0.50277172  0.85981683  1
  O  O195  1  0.25272527  0.50549461  0.14019733  1
  O  O196  1  0.24265533  0.49367962  0.63308328  1
  O  O197  1  0.24593499  0.99154442  0.13390360  1
  O  O198  1  0.23229159  0.99842814  0.61914220  1
  O  O199  1  0.73370559  0.50118379  0.12516260  1
  O  O200  1  0.73982959  0.49255047  0.62823167  1
  O  O201  1  0.73894599  0.99494442  0.12276024  1
  O  O202  1  0.74275888  0.99381999  0.63002547  1
  O  O203  1  0.00584394  0.36043724  0.24948598  1
  O  O204  1  0.00955862  0.36314440  0.74832898  1
  O  O205  1  -0.00488813  0.86133839  0.25581384  1
  O  O206  1  0.01840091  0.87171441  0.74536464  1
  O  O207  1  0.49517292  0.36250643  0.24901269  1
  O  O208  1  0.50220953  0.36135210  0.74685577  1
  O  O209  1  0.50907659  0.86265756  0.24116677  1
  O  O210  1  0.50211058  0.86695479  0.75771864  1
  O  O211  1  0.49338169  0.13320093  0.24139890  1
  O  O212  1  0.49237415  0.13275632  0.73931588  1
  O  O213  1  0.49476167  0.63485448  0.24305221  1
  O  O214  1  0.49449039  0.63343599  0.75333513  1
  O  O215  1  1.00681453  0.14181061  0.24777824  1
  O  O216  1  0.99989817  0.13866849  0.75414105  1
  O  O217  1  0.98938169  0.63830138  0.25335733  1
  O  O218  1  1.00256885  0.62520091  0.74136786  1
  O  O219  1  0.37108565  0.25323757  0.00339268  1
  O  O220  1  0.37273720  0.24988954  0.51519814  1
  O  O221  1  0.36451777  0.75946427  -0.00474527  1
  O  O222  1  0.36942219  0.75496893  0.50319628  1
  O  O223  1  0.86861010  0.25879123  0.00096284  1
  O  O224  1  0.87423261  0.25453778  0.50405995  1
  O  O225  1  0.88115319  0.76314928  0.00602805  1
  O  O226  1  0.87286071  0.75606507  0.50809908  1
  O  O227  1  0.12533108  0.24997067  0.50498819  1
  O  O228  1  0.13260701  0.23605983  0.99610389  1
  O  O229  1  0.13216990  0.74973730  0.49741518  1
  O  O230  1  0.13653588  0.75086035  0.99531614  1
  O  O231  1  0.63720995  0.24743324  0.50616545  1
  O  O232  1  0.62139894  0.24940303  0.98843502  1
  O  O233  1  0.63169139  0.74648977  0.49157600  1
  O  O234  1  0.62125742  0.73315842  1.00287049  1
  O  O235  1  0.48858863  0.24239322  0.13068945  1
  O  O236  1  0.48925811  0.24026611  0.63286706  1
  O  O237  1  0.50432181  0.73800131  0.13325205  1
  O  O238  1  0.49271511  0.74626661  0.63476491  1
  O  O239  1  0.99805386  0.24545004  0.13703611  1
  O  O240  1  0.98938413  0.25082990  0.63566828  1
  O  O241  1  0.98743453  0.75920812  0.13360028  1
  O  O242  1  0.99380931  0.74183673  0.62462143  1
  O  O243  1  0.00394219  0.25454837  0.35787728  1
  O  O244  1  0.01355678  0.24436649  0.87302922  1
  O  O245  1  0.00911590  0.75418479  0.37102471  1
  O  O246  1  0.01408170  0.75258613  0.87651372  1
  O  O247  1  0.48752389  0.24525933  0.36052740  1
  O  O248  1  0.50654341  0.24917039  0.86464486  1
  O  O249  1  0.51555093  0.74649706  0.36477004  1
  O  O250  1  0.50232588  0.76037551  0.86931932  1
  O  O251  1  0.24688425  0.12544020  0.49067243  1
  O  O252  1  0.24377967  0.12939872  1.00243898  1
  O  O253  1  0.24638163  0.63822135  0.49310253  1
  O  O254  1  0.24852834  0.63816275  0.99822680  1
  O  O255  1  0.74504905  0.13175649  0.49342833  1
  O  O256  1  0.74175498  0.13112010  0.99542648  1
  O  O257  1  0.74100061  0.63272958  0.49940809  1
  O  O258  1  0.73751208  0.61890177  1.00164213  1
  O  O259  1  0.26616379  0.36192667  -0.00240855  1
  O  O260  1  0.24556138  0.36947814  0.50489963  1
  O  O261  1  0.25797162  0.87088951  0.00759474  1
  O  O262  1  0.25728765  0.86409584  0.50251325  1
  O  O263  1  0.75624375  0.36425677  -0.00867332  1
  O  O264  1  0.76178150  0.36458090  0.50314027  1
  O  O265  1  0.75919170  0.87878673  0.01181903  1
  O  O266  1  0.76196389  0.86978957  0.50495580  1
  O  O267  1  0.13930062  0.50830331  0.25467348  1
  O  O268  1  0.12593159  0.49334987  0.75273458  1
  O  O269  1  0.13623249  1.00302753  0.24467421  1
  O  O270  1  0.12097518  0.99377939  0.73989614  1
  O  O271  1  0.62120158  0.50191427  0.23428440  1
  O  O272  1  0.63281018  0.49400496  0.74341683  1
  O  O273  1  0.61946717  0.98546698  0.24217780  1
  O  O274  1  0.63124934  0.99307126  0.74257691  1
  O  O275  1  0.36538482  0.00324760  0.25768201  1
  O  O276  1  0.37684064  0.00777426  0.75879825  1
  O  O277  1  0.36787081  0.51071423  0.25991210  1
  O  O278  1  0.36857093  0.50355757  0.75407621  1
  O  O279  1  0.87947141  -0.00244998  0.26137241  1
  O  O280  1  0.86913323  -0.00224623  0.75581650  1
  O  O281  1  0.88494306  0.50471132  0.25429538  1
  O  O282  1  0.85831005  0.49599044  0.74164921  1
  O  O283  1  0.13675477  0.36844902  0.39092888  1
  O  O284  1  0.13230521  0.36493288  0.86788494  1
  O  O285  1  0.12637266  0.86554442  0.38181786  1
  O  O286  1  0.12980780  0.87011921  0.86450134  1
  O  O287  1  0.61439651  0.38806311  0.38165881  1
  O  O288  1  0.61880815  0.36696162  0.86535368  1
  O  O289  1  0.63322268  0.86754186  0.36435340  1
  O  O290  1  0.61635621  0.87438201  0.87015201  1
  O  O291  1  0.38138924  0.12850816  0.13188057  1
  O  O292  1  0.37779565  0.12828456  0.63135550  1
  O  O293  1  0.38354731  0.62377848  0.13707479  1
  O  O294  1  0.37655199  0.63065604  0.63278631  1
  O  O295  1  0.87779425  0.14500934  0.11563619  1
  O  O296  1  0.87060893  0.13456038  0.62519218  1
  O  O297  1  0.87245295  0.63350870  0.12931218  1
  O  O298  1  0.88346823  0.63199649  0.62744295  1
  O  O299  1  0.26395909  0.24232679  0.11366067  1
  O  O300  1  0.25405682  0.25826875  0.63260826  1
  O  O301  1  0.24966640  0.76552816  0.11954159  1
  O  O302  1  0.25729890  0.74949512  0.61712706  1
  O  O303  1  0.75819330  0.24916874  0.12995280  1
  O  O304  1  0.75780504  0.25439197  0.61768017  1
  O  O305  1  0.76398782  0.75809331  0.12714167  1
  O  O306  1  0.75761348  0.75490556  0.62073395  1
  O  O307  1  0.25308059  0.24619016  0.37836966  1
  O  O308  1  0.24014699  0.24938073  0.88712224  1
  O  O309  1  0.24507296  0.74597438  0.38007923  1
  O  O310  1  0.24361848  0.74690393  0.88482524  1
  O  O311  1  0.76000276  0.23309093  0.38406357  1
  O  O312  1  0.73148049  0.24370713  0.86231956  1
  O  O313  1  0.74268794  0.74816762  0.37923720  1
  O  O314  1  0.73953983  0.74024510  0.85903760  1
  O  O315  1  0.00892299  0.11158609  0.00400656  1
  O  O316  1  0.00129529  0.11630819  0.49353232  1
  O  O317  1  0.01704923  0.64428463  0.00704591  1
  O  O318  1  0.00461207  0.62144492  0.51237538  1
  O  O319  1  0.50069197  0.12400614  0.01480704  1
  O  O320  1  0.50020393  0.12907707  0.51360125  1
  O  O321  1  0.50241167  0.62035378  0.00846125  1
  O  O322  1  0.51576430  0.63330104  0.50115219  1
  O  O323  1  0.48482047  0.38220436  0.52406094  1
  O  O324  1  0.48788546  0.38130597  0.99721606  1
  O  O325  1  0.48991150  0.86784280  0.50283694  1
  O  O326  1  0.49258937  0.87309992  0.99445731  1
  O  O327  1  0.99588760  0.38200468  0.49886729  1
  O  O328  1  0.97769471  0.36788606  0.99737407  1
  O  O329  1  0.98903807  0.88152344  0.49735762  1
  O  O330  1  0.99043103  0.88812687  1.00648459  1
  O  O331  1  0.48176816  0.51332181  0.37384289  1
  O  O332  1  0.49096783  0.49908030  0.88246045  1
  O  O333  1  0.48620486  1.00888565  0.36905087  1
  O  O334  1  0.49429123  0.98658215  0.87459769  1
  O  O335  1  0.99689525  0.49699273  0.38102226  1
  O  O336  1  1.01425532  0.49888054  0.91315553  1
  O  O337  1  0.98853906  1.00039055  0.38126986  1
  O  O338  1  0.99130694  1.00011235  0.88344209  1
  O  O339  1  0.00829608  0.00140909  0.12155892  1
  O  O340  1  0.01178149  -0.00272274  0.61647620  1
  O  O341  1  -0.00565611  0.49703432  0.09784560  1
  O  O342  1  0.00549177  0.50623551  0.62397190  1
  O  O343  1  0.50873798  0.00825586  0.12672257  1
  O  O344  1  0.50864512  0.00687676  0.63183960  1
  O  O345  1  0.50427899  0.51151070  0.12125685  1
  O  O346  1  0.51598479  0.50462379  0.63569636  1
  O  O347  1  0.24955443  0.39152121  0.25066997  1
  O  O348  1  0.24127424  0.37980526  0.74636665  1
  O  O349  1  0.25649608  0.88260399  0.24278472  1
  O  O350  1  0.23438360  0.86998154  0.74705783  1
  O  O351  1  0.74140118  0.38324244  0.26527170  1
  O  O352  1  0.74339515  0.38300851  0.74235578  1
  O  O353  1  0.74246179  0.87229898  0.23631087  1
  O  O354  1  0.74584496  0.88483663  0.74275733  1
  O  O355  1  0.25582906  0.11568624  0.25620647  1
  O  O356  1  0.26254591  0.12896198  0.75022943  1
  O  O357  1  0.25927160  0.62952941  0.25708791  1
  O  O358  1  0.25443728  0.61956369  0.75816243  1
  O  O359  1  0.74692956  0.12673259  0.26349344  1
  O  O360  1  0.75104793  0.11064553  0.74788533  1
  O  O361  1  0.76637497  0.61848312  0.25048393  1
  O  O362  1  0.75124340  0.60756852  0.74405489  1
  O  O363  1  0.36315715  0.11757560  0.37149261  1
  O  O364  1  0.38315454  0.11343275  0.86574723  1
  O  O365  1  0.36744764  0.62341036  0.36787067  1
  O  O366  1  0.36749825  0.61945051  0.87145908  1
  O  O367  1  0.86588729  0.11144758  0.37749118  1
  O  O368  1  0.87230928  0.11100287  0.87285442  1
  O  O369  1  0.87974717  0.61707804  0.36746677  1
  O  O370  1  0.87749332  0.62347620  0.86912369  1
  O  O371  1  0.11275003  0.39718744  0.03911029  1
  O  O372  1  0.13206611  0.38048025  0.63685931  1
  O  O373  1  0.13536382  0.88737173  0.12024928  1
  O  O374  1  0.12934782  0.88438242  0.63418795  1
  O  O375  1  0.61518533  0.38903509  0.12428876  1
  O  O376  1  0.63157582  0.38025275  0.62951266  1
  O  O377  1  0.63277496  0.87971093  0.12868621  1
  O  O378  1  0.62966670  0.87953737  0.63082170  1
  O  O379  1  0.12400981  0.25165878  0.24227036  1
  O  O380  1  0.11888875  0.25479653  0.75917284  1
  O  O381  1  0.11564168  0.74750090  0.26097340  1
  O  O382  1  0.12315314  0.75958728  0.75954594  1
  O  O383  1  0.60529007  0.25338516  0.24894665  1
  O  O384  1  0.61445722  0.25286091  0.74995688  1
  O  O385  1  0.62270004  0.75623004  0.25469685  1
  O  O386  1  0.61150569  0.75530556  0.74553578  1
  O  O387  1  0.37837570  0.24526028  0.24193944  1
  O  O388  1  0.37973324  0.24350081  0.74432249  1
  O  O389  1  0.38676693  0.74301834  0.25800104  1
  O  O390  1  0.38327253  0.74655071  0.74838230  1
  O  O391  1  0.87970782  0.25080511  0.24117407  1
  O  O392  1  0.88082727  0.24769947  0.74101468  1
  O  O393  1  0.88082079  0.74330549  0.24298167  1
  O  O394  1  0.87913821  0.75263511  0.73601417  1
  O  O395  1  0.36199652  0.50406108  0.48269752  1
  O  O396  1  0.37657478  0.49354079  0.99747393  1
  O  O397  1  0.37271514  0.98993257  0.49279304  1
  O  O398  1  0.37916390  0.99227134  0.99296571  1
  O  O399  1  0.88290641  0.49348011  0.49634489  1
  O  O400  1  0.86618035  0.47635309  1.00077864  1
  O  O401  1  0.88196787  0.99323131  0.49978058  1
  O  O402  1  0.88053168  0.99423226  0.99423220  1
  O  O403  1  0.11860947  0.00057222  0.00450579  1
  O  O404  1  0.11502251  0.00014495  0.51080709  1
  O  O405  1  0.13270354  0.53110897  -0.00066730  1
  O  O406  1  0.12078457  0.51220872  0.51134808  1
  O  O407  1  0.61951682  -0.00005253  0.01024686  1
  O  O408  1  0.62897485  -0.00360451  0.51159279  1
  O  O409  1  0.61799412  0.50616172  0.00974391  1
  O  O410  1  0.62717807  0.50745895  0.50553980  1
  O  O411  1  0.37999470  0.36533845  0.11726892  1
  O  O412  1  0.35749616  0.36739377  0.62736126  1
  O  O413  1  0.36947455  0.88277879  0.11346068  1
  O  O414  1  0.37281759  0.86873263  0.61880629  1
  O  O415  1  0.87642600  0.35531876  0.11962197  1
  O  O416  1  0.87143109  0.36710553  0.61308695  1
  O  O417  1  0.86761179  0.87081116  0.11786654  1
  O  O418  1  0.87290915  0.86879487  0.61754627  1
  O  O419  1  0.13872637  0.12129314  0.37866271  1
  O  O420  1  0.12513360  0.12718270  0.88710050  1
  O  O421  1  0.13315377  0.63577980  0.38311510  1
  O  O422  1  0.13249769  0.63892916  0.87915845  1
  O  O423  1  0.64078232  0.11514197  0.37693768  1
  O  O424  1  0.62035912  0.13151744  0.87442661  1
  O  O425  1  0.63022709  0.63177110  0.37957007  1
  O  O426  1  0.62080583  0.62270300  0.89461787  1
