# generated using pymatgen
data_V85Zn86O256
_symmetry_space_group_name_H-M   'P 1'
_cell_length_a   16.93249954
_cell_length_b   16.93913462
_cell_length_c   16.93570390
_cell_angle_alpha   90.02672002
_cell_angle_beta   90.07327614
_cell_angle_gamma   90.05692525
_symmetry_Int_Tables_number   1
_chemical_formula_structural   V85Zn86O256
_chemical_formula_sum   'V85 Zn86 O256'
_cell_volume   4857.52368715
_cell_formula_units_Z   1
loop_
 _symmetry_equiv_pos_site_id
 _symmetry_equiv_pos_as_xyz
  1  'x, y, z'
loop_
 _atom_site_type_symbol
 _atom_site_label
 _atom_site_symmetry_multiplicity
 _atom_site_fract_x
 _atom_site_fract_y
 _atom_site_fract_z
 _atom_site_occupancy
  V  V0  1  -0.00038177  0.36903333  0.37874772  1
  V  V1  1  0.37609243  0.62186812  0.24763653  1
  V  V2  1  0.75224154  0.62810433  0.38005969  1
  V  V3  1  0.74482161  0.62155376  0.87730699  1
  V  V4  1  0.00198875  0.13539396  0.13158375  1
  V  V5  1  0.00761451  0.50094550  0.51051781  1
  V  V6  1  0.12246142  0.25155062  0.87805304  1
  V  V7  1  0.87248011  0.86619500  0.49868990  1
  V  V8  1  0.62469499  0.62505125  0.50185749  1
  V  V9  1  0.49196456  0.88358320  0.37819355  1
  V  V10  1  0.86872897  0.61959837  0.74677459  1
  V  V11  1  0.24495043  0.88494763  0.63259348  1
  V  V12  1  0.62318848  0.12205947  0.00193719  1
  V  V13  1  0.37628046  0.87361836  0.00096050  1
  V  V14  1  0.37672606  0.74860533  0.12540631  1
  V  V15  1  0.74476738  0.00322654  0.24676329  1
  V  V16  1  0.88133373  0.37369496  0.00067045  1
  V  V17  1  0.76290373  0.25655323  0.49967777  1
  V  V18  1  0.50441281  0.37179993  0.37621277  1
  V  V19  1  0.37726325  0.11769964  0.74970687  1
  V  V20  1  0.37891349  0.25340763  0.63903037  1
  V  V21  1  0.24846826  0.62178818  0.37584725  1
  V  V22  1  0.12066076  0.75241951  0.87700245  1
  V  V23  1  0.74402298  0.87819090  0.12309154  1
  V  V24  1  0.75304453  0.50068258  0.25322460  1
  V  V25  1  0.25322306  0.00119887  0.26602193  1
  V  V26  1  0.87118321  0.74481053  0.62280335  1
  V  V27  1  0.37500820  0.49673886  0.37273591  1
  V  V28  1  0.11824450  0.87168625  0.25130231  1
  V  V29  1  0.86876435  0.49788949  0.87376420  1
  V  V30  1  0.74643200  0.87186954  0.61750642  1
  V  V31  1  0.24507634  0.11887343  0.86521155  1
  V  V32  1  0.36514474  0.25692333  0.11435581  1
  V  V33  1  0.75068479  0.37469551  0.12605418  1
  V  V34  1  0.74494152  0.13092362  0.37425999  1
  V  V35  1  0.25015906  0.75055627  0.00259956  1
  V  V36  1  0.74551157  0.74561644  0.00103765  1
  V  V37  1  0.13595694  0.12583659  0.00219054  1
  V  V38  1  0.87775880  0.24986640  0.13342229  1
  V  V39  1  0.87334117  0.00156914  0.87448106  1
  V  V40  1  0.50136134  0.74826646  0.25183415  1
  V  V41  1  0.62777845  0.49800871  0.62915543  1
  V  V42  1  0.62543275  0.37333112  0.25296167  1
  V  V43  1  0.12428183  0.00056303  0.12902177  1
  V  V44  1  0.12357658  0.62588202  0.00253437  1
  V  V45  1  0.11913921  0.36874609  0.24514666  1
  V  V46  1  0.25896191  0.62775166  0.86158885  1
  V  V47  1  0.37246970  0.37344595  0.50182697  1
  V  V48  1  0.74971717  0.12500368  0.87371079  1
  V  V49  1  0.62220401  0.74840759  0.87027673  1
  V  V50  1  0.87511028  0.00015884  0.37532803  1
  V  V51  1  0.62806629  0.75207477  0.38090144  1
  V  V52  1  0.50145258  0.25095927  0.24800077  1
  V  V53  1  0.49447516  0.62996516  0.63623193  1
  V  V54  1  0.12763435  0.49284054  0.11936447  1
  V  V55  1  -0.00068335  0.86958352  0.37877080  1
  V  V56  1  0.76251466  0.37299483  0.62767789  1
  V  V57  1  0.87965184  0.74888019  0.13105838  1
  V  V58  1  0.49791908  0.87265438  0.86327311  1
  V  V59  1  0.74992173  0.24837952  0.00001692  1
  V  V60  1  0.25092040  0.24268262  0.49837387  1
  V  V61  1  0.12205035  0.74414589  0.37360902  1
  V  V62  1  0.00040394  0.24636537  0.73684470  1
  V  V63  1  0.25025016  0.87656783  0.12784362  1
  V  V64  1  0.74633755  -0.00155564  0.74656231  1
  V  V65  1  0.50416749  -0.00371223  0.00320842  1
  V  V66  1  0.50019073  0.12225199  0.12489783  1
  V  V67  1  0.62760381  0.50414147  0.11893644  1
  V  V68  1  0.37211509  0.12339068  0.25935906  1
  V  V69  1  0.37750983  0.50494342  0.86524852  1
  V  V70  1  0.50551983  0.62563418  0.11549958  1
  V  V71  1  -0.00289187  0.00183418  0.00302438  1
  V  V72  1  0.25000905  0.48961700  0.24345940  1
  V  V73  1  -0.00322746  0.74709233  0.74902142  1
  V  V74  1  0.11676101  0.12467349  0.50819896  1
  V  V75  1  0.87787532  0.49394921  0.38261232  1
  V  V76  1  0.25866789  0.75003722  0.50258722  1
  V  V77  1  0.87735143  0.12698066  0.73150589  1
  V  V78  1  0.61878821  0.24689213  0.86935816  1
  V  V79  1  0.49869034  0.37348922  0.87890515  1
  V  V80  1  0.62432012  0.87717842  0.24951170  1
  V  V81  1  0.62298339  0.13389481  0.50041017  1
  V  V82  1  0.12694098  0.24213945  0.37051297  1
  V  V83  1  0.24529841  0.38656696  0.63467823  1
  V  V84  1  0.62139108  0.36933281  0.74549742  1
  Zn  Zn85  1  -0.00392753  0.50343186  0.00231589  1
  Zn  Zn86  1  0.11643339  0.39631814  0.74019842  1
  Zn  Zn87  1  0.11699445  0.01512918  0.64530775  1
  Zn  Zn88  1  0.35167076  0.38317795  -0.00314745  1
  Zn  Zn89  1  0.37049923  -0.00144766  0.87447936  1
  Zn  Zn90  1  -0.00533516  0.37422146  0.87085885  1
  Zn  Zn91  1  -0.00204100  0.00135640  0.50864421  1
  Zn  Zn92  1  -0.00273199  0.87641258  0.87569873  1
  Zn  Zn93  1  0.49998319  0.49904084  0.50196266  1
  Zn  Zn94  1  0.13087725  0.61250742  0.52168903  1
  Zn  Zn95  1  0.12188064  0.88051059  0.75117046  1
  Zn  Zn96  1  0.00491763  0.62762358  0.13494642  1
  Zn  Zn97  1  0.62009757  0.87110781  0.74352507  1
  Zn  Zn98  1  0.88562922  0.62900530  0.25786904  1
  Zn  Zn99  1  0.36876180  0.88878181  0.49939917  1
  Zn  Zn100  1  0.50467343  0.12925779  0.63376767  1
  Zn  Zn101  1  0.50130571  0.50244756  -0.00219504  1
  Zn  Zn102  1  0.88063990  0.12817368  0.25454858  1
  Zn  Zn103  1  0.87239388  0.87503675  -0.00027468  1
  Zn  Zn104  1  0.37882288  0.75717434  0.63987635  1
  Zn  Zn105  1  0.49191641  0.01112299  0.50057131  1
  Zn  Zn106  1  0.62104993  -0.00041069  0.61981691  1
  Zn  Zn107  1  0.19101764  0.18487970  0.19025999  1
  Zn  Zn108  1  0.19140430  0.19638619  0.68882253  1
  Zn  Zn109  1  0.18767944  0.68472055  0.18997464  1
  Zn  Zn110  1  0.19092219  0.69308552  0.68832081  1
  Zn  Zn111  1  0.68492880  0.18731429  0.18710236  1
  Zn  Zn112  1  0.69158309  0.18967802  0.68461883  1
  Zn  Zn113  1  0.69046498  0.68747414  0.19208324  1
  Zn  Zn114  1  0.68969537  0.68697740  0.68934578  1
  Zn  Zn115  1  0.31283628  0.30802437  0.31193307  1
  Zn  Zn116  1  0.30746814  0.31176174  0.81892764  1
  Zn  Zn117  1  0.31060063  0.81068660  0.31095733  1
  Zn  Zn118  1  0.30944172  0.81529514  0.81310852  1
  Zn  Zn119  1  0.81326361  0.31312091  0.31525207  1
  Zn  Zn120  1  0.81177506  0.30884938  0.80765039  1
  Zn  Zn121  1  0.80910405  0.81259268  0.31153035  1
  Zn  Zn122  1  0.81004694  0.81342465  0.81065621  1
  Zn  Zn123  1  0.18654538  0.43236763  0.43723221  1
  Zn  Zn124  1  0.17886293  0.44944970  0.90954446  1
  Zn  Zn125  1  0.18533961  0.93566874  0.44385758  1
  Zn  Zn126  1  0.18595361  0.93975739  0.93748438  1
  Zn  Zn127  1  0.68700361  0.43749984  0.44110667  1
  Zn  Zn128  1  0.68891057  0.43383978  0.93768453  1
  Zn  Zn129  1  0.68453319  0.94231477  0.43784212  1
  Zn  Zn130  1  0.68435763  0.93514391  0.93651552  1
  Zn  Zn131  1  0.31519540  0.06111178  0.06843324  1
  Zn  Zn132  1  0.31204134  0.06225304  0.56145246  1
  Zn  Zn133  1  0.31347695  0.56027513  0.05486811  1
  Zn  Zn134  1  0.31599386  0.56094845  0.56229004  1
  Zn  Zn135  1  0.81259490  0.06392937  0.06451360  1
  Zn  Zn136  1  0.80799898  0.05828174  0.55719261  1
  Zn  Zn137  1  0.81178203  0.56484005  0.06263229  1
  Zn  Zn138  1  0.81301923  0.55735321  0.56067701  1
  Zn  Zn139  1  0.43857834  0.43590347  0.18286660  1
  Zn  Zn140  1  0.44223002  0.43820916  0.68882181  1
  Zn  Zn141  1  0.43783496  0.93974794  0.19038033  1
  Zn  Zn142  1  0.43315974  0.94403372  0.67875081  1
  Zn  Zn143  1  0.94131456  0.44039195  0.18955197  1
  Zn  Zn144  1  0.93806317  0.43766313  0.69119449  1
  Zn  Zn145  1  0.93439792  0.93693367  0.18890295  1
  Zn  Zn146  1  0.94086845  0.93510691  0.68535781  1
  Zn  Zn147  1  0.06269529  0.06013200  0.31565396  1
  Zn  Zn148  1  0.05735829  0.06422573  0.81151013  1
  Zn  Zn149  1  0.06153396  0.55815530  0.31107231  1
  Zn  Zn150  1  0.05587302  0.56620771  0.81398785  1
  Zn  Zn151  1  0.56533007  0.06562945  0.31242306  1
  Zn  Zn152  1  0.55833869  0.05895277  0.81319701  1
  Zn  Zn153  1  0.56365620  0.56029625  0.31038926  1
  Zn  Zn154  1  0.57083149  0.55405159  0.81197556  1
  Zn  Zn155  1  0.43701170  0.19263835  0.43754563  1
  Zn  Zn156  1  0.43526961  0.18692576  0.93555096  1
  Zn  Zn157  1  0.43984843  0.68750939  0.43853131  1
  Zn  Zn158  1  0.44278849  0.68849739  0.81445957  1
  Zn  Zn159  1  0.93840768  0.18892436  0.43688012  1
  Zn  Zn160  1  0.94053818  0.18623834  0.93980012  1
  Zn  Zn161  1  0.94136798  0.68360690  0.43986073  1
  Zn  Zn162  1  0.93357488  0.68654731  0.94063738  1
  Zn  Zn163  1  0.18509899  0.31610656  0.05173729  1
  Zn  Zn164  1  0.06478100  0.31567083  0.55927205  1
  Zn  Zn165  1  0.06005366  0.81591447  0.06110799  1
  Zn  Zn166  1  0.08120953  0.77329500  0.58117952  1
  Zn  Zn167  1  0.56238390  0.31129066  0.06230198  1
  Zn  Zn168  1  0.56302879  0.30746199  0.55993887  1
  Zn  Zn169  1  0.56436233  0.80902502  0.05888235  1
  Zn  Zn170  1  0.56107623  0.81098449  0.55976290  1
  O  O171  1  0.11912898  0.12190877  0.12033113  1
  O  O172  1  0.13094620  0.12997363  0.61119661  1
  O  O173  1  0.12563629  0.61928526  0.11776515  1
  O  O174  1  0.11039862  0.66568047  0.61767735  1
  O  O175  1  0.60926372  0.13126815  0.11788349  1
  O  O176  1  0.62540107  0.12759751  0.61279092  1
  O  O177  1  0.61892281  0.61552822  0.13557922  1
  O  O178  1  0.62300123  0.61878349  0.61972564  1
  O  O179  1  0.37978870  0.37787351  0.38219489  1
  O  O180  1  0.38372565  0.37952499  0.87602837  1
  O  O181  1  0.39020207  0.87024299  0.37131871  1
  O  O182  1  0.38010810  0.87696940  0.88539786  1
  O  O183  1  0.88686208  0.38153484  0.36979237  1
  O  O184  1  0.86760551  0.38064340  0.88176188  1
  O  O185  1  0.87808886  0.87752987  0.37861038  1
  O  O186  1  0.87075223  0.88993884  0.87706362  1
  O  O187  1  0.24674954  -0.00720571  0.36436577  1
  O  O188  1  0.25242990  0.01440723  0.88230898  1
  O  O189  1  0.25453315  0.50433973  0.36833857  1
  O  O190  1  0.26418246  0.52337478  0.88239842  1
  O  O191  1  0.75567853  0.00835593  0.36849225  1
  O  O192  1  0.75318980  0.00474848  0.86812094  1
  O  O193  1  0.75779771  0.50324402  0.37300540  1
  O  O194  1  0.75663633  0.50816273  0.88139705  1
  O  O195  1  0.23965687  0.50637209  0.13232429  1
  O  O196  1  0.25538008  0.48548299  0.62287622  1
  O  O197  1  0.24202939  0.99275147  0.13076412  1
  O  O198  1  0.23868239  0.98715838  0.61883064  1
  O  O199  1  0.74627894  0.49649184  0.13327039  1
  O  O200  1  0.74200184  0.48173136  0.61472909  1
  O  O201  1  0.75518400  0.99163926  0.13440894  1
  O  O202  1  0.74666889  0.99152653  0.63108954  1
  O  O203  1  0.01401381  0.37798588  0.25715342  1
  O  O204  1  0.00045576  0.36228765  0.75291527  1
  O  O205  1  0.01072645  0.88070774  0.25933019  1
  O  O206  1  -0.00508843  0.86004345  0.75740515  1
  O  O207  1  0.50385956  0.36857692  0.25416758  1
  O  O208  1  0.51390073  0.37676739  0.76065610  1
  O  O209  1  0.50583509  0.87054498  0.25800345  1
  O  O210  1  0.49865892  0.88559976  0.76085490  1
  O  O211  1  0.49615106  0.13130336  0.24327233  1
  O  O212  1  0.48276798  0.12567566  0.75451177  1
  O  O213  1  0.49357811  0.62989933  0.24648695  1
  O  O214  1  0.50825077  0.62293873  0.73975102  1
  O  O215  1  0.99849743  0.11664095  0.23785035  1
  O  O216  1  0.98943508  0.13562137  0.75004315  1
  O  O217  1  0.99864793  0.62459110  0.24868427  1
  O  O218  1  0.98424678  0.63734889  0.75954560  1
  O  O219  1  0.37709585  0.25160050  0.01222680  1
  O  O220  1  0.36805216  0.25929654  0.50410505  1
  O  O221  1  0.36936245  0.76448397  0.00920739  1
  O  O222  1  0.36498740  0.75252304  0.49679795  1
  O  O223  1  0.86877050  0.25360383  0.00825397  1
  O  O224  1  0.86164642  0.24654629  0.50091384  1
  O  O225  1  0.86300648  0.75363695  0.00906035  1
  O  O226  1  0.87723287  0.75833279  0.50526017  1
  O  O227  1  0.13081258  0.24232851  0.49323163  1
  O  O228  1  0.12106479  0.23663889  0.99042215  1
  O  O229  1  0.14022393  0.74961732  0.48101320  1
  O  O230  1  0.12945450  0.74632160  0.99840129  1
  O  O231  1  0.63624425  0.23942873  0.49883331  1
  O  O232  1  0.63086698  0.24303282  0.99319195  1
  O  O233  1  0.62262988  0.74161530  0.48820711  1
  O  O234  1  0.63789376  0.75414927  0.98882675  1
  O  O235  1  0.49086669  0.24483317  0.12983010  1
  O  O236  1  0.48370071  0.24691719  0.61857792  1
  O  O237  1  0.49833104  0.74422631  0.13194083  1
  O  O238  1  0.50069599  0.73430928  0.62161316  1
  O  O239  1  0.99082286  0.23699318  0.11987447  1
  O  O240  1  1.00669231  0.25317510  0.63807416  1
  O  O241  1  0.98199634  0.75427559  0.12021982  1
  O  O242  1  0.97868033  0.75749152  0.63589028  1
  O  O243  1  0.00793451  0.26047647  0.37822832  1
  O  O244  1  0.00931703  0.24415390  0.86852465  1
  O  O245  1  0.00970269  0.75604281  0.37817996  1
  O  O246  1  0.00490597  0.75150145  0.87358245  1
  O  O247  1  0.49475702  0.26393433  0.36378932  1
  O  O248  1  0.51196415  0.25511465  0.87978657  1
  O  O249  1  0.50779690  0.75696180  0.36970274  1
  O  O250  1  0.51068792  0.75885264  0.87852638  1
  O  O251  1  0.24244510  0.13901174  0.50285733  1
  O  O252  1  0.23949591  0.11997631  0.99900487  1
  O  O253  1  0.24946841  0.62825739  0.49289387  1
  O  O254  1  0.24055262  0.63463519  0.99790861  1
  O  O255  1  0.74396922  0.13489529  0.49386882  1
  O  O256  1  0.74287963  0.12792602  0.99533088  1
  O  O257  1  0.73803035  0.61795720  0.48929701  1
  O  O258  1  0.75212531  0.63453561  0.99160986  1
  O  O259  1  0.23999319  0.38155333  -0.01871745  1
  O  O260  1  0.25682103  0.36817511  0.50799663  1
  O  O261  1  0.25666416  0.87227501  0.00719266  1
  O  O262  1  0.25033685  0.86570524  0.50639826  1
  O  O263  1  0.75615206  0.36704007  0.00832074  1
  O  O264  1  0.74650121  0.36265463  0.50692886  1
  O  O265  1  0.74981187  0.87063896  0.00859451  1
  O  O266  1  0.75571654  0.87915021  0.50853334  1
  O  O267  1  0.13252828  0.49005279  0.24163500  1
  O  O268  1  0.12950837  0.48614392  0.80532094  1
  O  O269  1  0.13198075  0.99255178  0.24722201  1
  O  O270  1  0.12187428  0.99410960  0.75678750  1
  O  O271  1  0.63445103  0.49360296  0.24364943  1
  O  O272  1  0.62919312  0.48896485  0.73652889  1
  O  O273  1  0.63742079  0.99610080  0.25304442  1
  O  O274  1  0.63759342  1.00043195  0.74978034  1
  O  O275  1  0.36586790  0.01036191  0.24571208  1
  O  O276  1  0.37169163  0.01447603  0.75244747  1
  O  O277  1  0.36809899  0.50102668  0.25086511  1
  O  O278  1  0.38114166  0.49725921  0.76516879  1
  O  O279  1  0.86416873  -0.00061230  0.26097351  1
  O  O280  1  0.86535653  0.00624152  0.75592839  1
  O  O281  1  0.86727343  0.50052647  0.25991272  1
  O  O282  1  0.87621573  0.50811319  0.75894747  1
  O  O283  1  0.11881739  0.36590315  0.36658688  1
  O  O284  1  0.11353621  0.35360600  0.88268463  1
  O  O285  1  0.11671345  0.86845919  0.37077061  1
  O  O286  1  0.12376703  0.86198329  0.88009772  1
  O  O287  1  0.61557514  0.38158279  0.36708897  1
  O  O288  1  0.62304533  0.36680106  0.86667098  1
  O  O289  1  0.61990413  0.86761545  0.37129805  1
  O  O290  1  0.61536201  0.86760280  0.87173160  1
  O  O291  1  0.38374112  0.13609222  0.12950821  1
  O  O292  1  0.37058916  0.13376298  0.63890778  1
  O  O293  1  0.38257243  0.62915268  0.12917545  1
  O  O294  1  0.39318664  0.62369424  0.62071817  1
  O  O295  1  0.88182228  0.13325351  0.12734927  1
  O  O296  1  0.86745536  0.12106539  0.63291037  1
  O  O297  1  0.87431142  0.63923780  0.12615400  1
  O  O298  1  0.86427784  0.63128798  0.63315146  1
  O  O299  1  0.26085030  0.24983931  0.12268120  1
  O  O300  1  0.26121017  0.26033425  0.61691223  1
  O  O301  1  0.25530574  0.75598733  0.12250855  1
  O  O302  1  0.25864744  0.75635197  0.61550642  1
  O  O303  1  0.75671482  0.25374954  0.12045981  1
  O  O304  1  0.74713509  0.26248629  0.61249217  1
  O  O305  1  0.75393653  0.75543477  0.11901410  1
  O  O306  1  0.75952458  0.75921464  0.62844940  1
  O  O307  1  0.24001112  0.25786930  0.38582726  1
  O  O308  1  0.23174431  0.23741373  0.86976565  1
  O  O309  1  0.24816085  0.73868640  0.37799211  1
  O  O310  1  0.24373077  0.74397877  0.88344184  1
  O  O311  1  0.75431887  0.24407233  0.38608609  1
  O  O312  1  0.74081245  0.24354836  0.87925779  1
  O  O313  1  0.74100834  0.74021903  0.37132296  1
  O  O314  1  0.74668104  0.74422178  0.88307084  1
  O  O315  1  0.00715899  0.11490920  0.00917242  1
  O  O316  1  0.01351832  0.12673835  0.49836666  1
  O  O317  1  0.01239569  0.62738294  0.00438353  1
  O  O318  1  0.00557592  0.60508486  0.49256019  1
  O  O319  1  0.50054617  0.11612224  0.00546791  1
  O  O320  1  0.51475847  0.13200155  0.49422961  1
  O  O321  1  0.50392748  0.62454348  0.01693646  1
  O  O322  1  0.51201565  0.62175745  0.50502179  1
  O  O323  1  0.49315981  0.37374976  0.49153752  1
  O  O324  1  0.50647233  0.37685134  0.98547813  1
  O  O325  1  0.49903181  0.87499480  0.48506522  1
  O  O326  1  0.49432661  0.87990937  0.99621421  1
  O  O327  1  1.00544388  0.38472757  0.48922093  1
  O  O328  1  0.98262196  0.37435310  0.99581585  1
  O  O329  1  0.98955721  0.87622865  0.48621138  1
  O  O330  1  0.99550458  0.88957681  0.99923196  1
  O  O331  1  0.49273606  0.48870910  0.37316341  1
  O  O332  1  0.49803632  0.49295681  0.87723183  1
  O  O333  1  0.50709736  0.98544452  0.37275999  1
  O  O334  1  0.49456234  0.99140450  0.88561155  1
  O  O335  1  0.99470994  0.48839680  0.37943077  1
  O  O336  1  0.97906038  0.49965161  0.88316156  1
  O  O337  1  0.99000551  0.99218729  0.37837886  1
  O  O338  1  0.98897499  1.00152166  0.88515077  1
  O  O339  1  0.00339956  0.00496917  0.12016970  1
  O  O340  1  0.00618046  -0.00406939  0.62065663  1
  O  O341  1  0.01400086  0.50098487  0.12165385  1
  O  O342  1  -0.00305561  0.49285982  0.60971662  1
  O  O343  1  0.49544088  0.00974393  0.11725965  1
  O  O344  1  0.50456726  0.01096537  0.62105384  1
  O  O345  1  0.51053817  0.50740916  0.12698670  1
  O  O346  1  0.50916516  0.51046399  0.62396959  1
  O  O347  1  0.24359146  0.38561664  0.25531591  1
  O  O348  1  0.24808074  0.37050536  0.73687104  1
  O  O349  1  0.24182446  0.88087578  0.24613725  1
  O  O350  1  0.24562491  0.87300983  0.73620598  1
  O  O351  1  0.74522337  0.37965212  0.24573170  1
  O  O352  1  0.74017107  0.36644725  0.73423501  1
  O  O353  1  0.74338020  0.88340220  0.24455798  1
  O  O354  1  0.74947970  0.88369811  0.73834560  1
  O  O355  1  0.25944939  0.11329947  0.24621905  1
  O  O356  1  0.25916250  0.12941940  0.75674052  1
  O  O357  1  0.25672222  0.61401297  0.25669699  1
  O  O358  1  0.24764663  0.62989737  0.76370791  1
  O  O359  1  0.75096041  0.12051942  0.25637950  1
  O  O360  1  0.75699871  0.11977737  0.75423962  1
  O  O361  1  0.75119399  0.61675163  0.26446081  1
  O  O362  1  0.76080397  0.62782974  0.76085830  1
  O  O363  1  0.37879610  0.13499817  0.35817106  1
  O  O364  1  0.36464921  0.12790250  0.86525871  1
  O  O365  1  0.36789141  0.61734467  0.37025248  1
  O  O366  1  0.36671775  0.62305410  0.87490297  1
  O  O367  1  0.86660438  0.11718403  0.37504885  1
  O  O368  1  0.86836383  0.11506491  0.87304996  1
  O  O369  1  0.86625753  0.61852560  0.37729531  1
  O  O370  1  0.86355903  0.61853098  0.87195583  1
  O  O371  1  0.12791765  0.38105592  0.13151521  1
  O  O372  1  0.14012917  0.37344094  0.62723347  1
  O  O373  1  0.12733621  0.87816781  0.13494506  1
  O  O374  1  0.13861880  0.86513050  0.62536605  1
  O  O375  1  0.63038231  0.38092420  0.13272824  1
  O  O376  1  0.62432563  0.37929496  0.62992574  1
  O  O377  1  0.63626527  0.86848292  0.13193898  1
  O  O378  1  0.63112418  0.87550705  0.62439250  1
  O  O379  1  0.13324368  0.25764192  0.25684011  1
  O  O380  1  0.11231452  0.24594902  0.76015160  1
  O  O381  1  0.13371868  0.75970853  0.26209219  1
  O  O382  1  0.11341102  0.75345090  0.76194611  1
  O  O383  1  0.60986421  0.25602839  0.24378152  1
  O  O384  1  0.62788588  0.25448939  0.75826455  1
  O  O385  1  0.62100891  0.75501906  0.26096155  1
  O  O386  1  0.63263306  0.75356154  0.76484066  1
  O  O387  1  0.38216678  0.24663863  0.23805208  1
  O  O388  1  0.37041518  0.24445664  0.74352012  1
  O  O389  1  0.38029255  0.74306911  0.24412700  1
  O  O390  1  0.37645418  0.75151455  0.75241747  1
  O  O391  1  0.87142741  0.24935841  0.23717472  1
  O  O392  1  0.88782016  0.23980218  0.75354220  1
  O  O393  1  0.86558736  0.74855308  0.23470702  1
  O  O394  1  0.87632447  0.74249631  0.74455504  1
  O  O395  1  0.37763105  0.48702476  0.49400979  1
  O  O396  1  0.38249535  0.49757372  0.98972706  1
  O  O397  1  0.37844329  1.00262821  0.49643870  1
  O  O398  1  0.38303907  0.98893568  1.00304300  1
  O  O399  1  0.88448785  0.50079381  0.48822646  1
  O  O400  1  0.87116947  0.49020888  0.99680351  1
  O  O401  1  0.87227997  0.98901233  0.48819770  1
  O  O402  1  0.88046124  1.00124374  0.99382651  1
  O  O403  1  0.11671123  0.00565576  0.00828613  1
  O  O404  1  0.12483652  0.02036254  0.49304616  1
  O  O405  1  0.12269192  0.51023902  0.00489297  1
  O  O406  1  0.11429259  0.49947328  0.49697916  1
  O  O407  1  0.61211648  0.00478462  -0.00353008  1
  O  O408  1  0.62510289  0.01906435  0.49915871  1
  O  O409  1  0.62718768  0.49528385  0.01566596  1
  O  O410  1  0.62159950  0.50608107  0.50993632  1
  O  O411  1  0.37801356  0.36120735  0.11893838  1
  O  O412  1  0.37143451  0.37075176  0.62020747  1
  O  O413  1  0.37156595  0.86968161  0.12197827  1
  O  O414  1  0.36108411  0.87563339  0.62125729  1
  O  O415  1  0.87178827  0.36883190  0.12046873  1
  O  O416  1  0.86050804  0.37655037  0.63005707  1
  O  O417  1  0.86302626  0.86591159  0.12594008  1
  O  O418  1  0.86614134  0.86932211  0.61494532  1
  O  O419  1  0.12086657  0.13812305  0.38060112  1
  O  O420  1  0.12889400  0.12766127  0.88393596  1
  O  O421  1  0.13851588  0.62841005  0.37078939  1
  O  O422  1  0.13322333  0.63818881  0.88410709  1
  O  O423  1  0.63786640  0.12557905  0.38179874  1
  O  O424  1  0.62728033  0.13078942  0.87941145  1
  O  O425  1  0.62906173  0.62974042  0.38195637  1
  O  O426  1  0.63678050  0.62998024  0.87064909  1
