# generated using pymatgen
data_V85Zn86O256
_symmetry_space_group_name_H-M   'P 1'
_cell_length_a   16.93487185
_cell_length_b   16.94667332
_cell_length_c   16.93978804
_cell_angle_alpha   90.03948428
_cell_angle_beta   89.98106757
_cell_angle_gamma   90.01824001
_symmetry_Int_Tables_number   1
_chemical_formula_structural   V85Zn86O256
_chemical_formula_sum   'V85 Zn86 O256'
_cell_volume   4861.54371560
_cell_formula_units_Z   1
loop_
 _symmetry_equiv_pos_site_id
 _symmetry_equiv_pos_as_xyz
  1  'x, y, z'
loop_
 _atom_site_type_symbol
 _atom_site_label
 _atom_site_symmetry_multiplicity
 _atom_site_fract_x
 _atom_site_fract_y
 _atom_site_fract_z
 _atom_site_occupancy
  V  V0  1  0.13295103  0.87153271  0.24757796  1
  V  V1  1  0.24791695  0.62788130  0.38544848  1
  V  V2  1  0.12517271  0.50787031  0.61757977  1
  V  V3  1  0.24977621  0.24952279  0.49703020  1
  V  V4  1  0.49981936  -0.00408870  0.00397674  1
  V  V5  1  0.13427022  0.12796193  -0.00273860  1
  V  V6  1  0.74550659  0.75121311  0.50045923  1
  V  V7  1  0.00667101  0.50417524  -0.00310760  1
  V  V8  1  0.49580047  0.87343832  0.87957016  1
  V  V9  1  0.74673410  0.49843843  0.74452491  1
  V  V10  1  0.50255164  0.37372884  0.37354095  1
  V  V11  1  0.87333275  0.38048100  0.50197428  1
  V  V12  1  0.37543664  0.50039371  0.37328288  1
  V  V13  1  0.12404885  0.87534079  0.75738403  1
  V  V14  1  0.24550844  0.62719702  0.88218614  1
  V  V15  1  0.63325249  0.37273293  0.24603900  1
  V  V16  1  0.75233179  0.50084233  0.24186564  1
  V  V17  1  0.12295502  -0.00060014  0.62889228  1
  V  V18  1  0.50573682  0.74885821  0.75676572  1
  V  V19  1  0.87405437  0.12393891  0.75134990  1
  V  V20  1  0.25587976  0.87131565  0.61775405  1
  V  V21  1  0.37602182  0.63032442  0.75277663  1
  V  V22  1  0.00921537  0.62448542  0.11936925  1
  V  V23  1  0.87449278  0.74859907  0.62351520  1
  V  V24  1  -0.00218595  0.75361300  0.75359479  1
  V  V25  1  0.12445033  0.12720019  0.50014664  1
  V  V26  1  -0.00116620  -0.00208769  -0.00267458  1
  V  V27  1  0.87826601  -0.00385391  0.87259822  1
  V  V28  1  0.81410854  0.05386334  0.31843867  1
  V  V29  1  0.38049235  0.62597413  0.24321904  1
  V  V30  1  0.50073580  0.62343821  0.62757432  1
  V  V31  1  0.49847568  0.50207397  0.00483496  1
  V  V32  1  -0.00583027  0.12657496  0.13480664  1
  V  V33  1  -0.00058475  0.87389773  0.37355069  1
  V  V34  1  0.37797120  0.50014682  0.87696144  1
  V  V35  1  0.74557545  0.63671092  0.87710807  1
  V  V36  1  0.35965370  0.25313056  0.12556214  1
  V  V37  1  0.13874223  0.24560900  0.87751621  1
  V  V38  1  0.11886554  0.74897321  0.88226157  1
  V  V39  1  0.86887788  0.74877448  0.12211672  1
  V  V40  1  0.13049876  -0.00319344  0.12410617  1
  V  V41  1  0.62321395  -0.00553311  0.62177286  1
  V  V42  1  0.36618433  0.11144030  0.25245317  1
  V  V43  1  0.62870232  0.88510060  0.25229041  1
  V  V44  1  0.87058778  0.87177154  -0.00348703  1
  V  V45  1  0.68347317  0.29712334  0.93223783  1
  V  V46  1  0.50405227  0.49678261  0.50048151  1
  V  V47  1  0.62520142  0.36182462  0.74110226  1
  V  V48  1  0.24718238  0.49637194  0.24193524  1
  V  V49  1  0.87462568  0.50054601  0.87488748  1
  V  V50  1  0.75340999  0.24749527  0.49507048  1
  V  V51  1  0.37280274  0.00489947  0.88148932  1
  V  V52  1  0.62546578  0.49863395  0.12360922  1
  V  V53  1  0.50149125  0.12506881  0.63363569  1
  V  V54  1  0.12547429  0.74555158  0.39034629  1
  V  V55  1  0.12513148  0.37564885  0.75011364  1
  V  V56  1  0.50167023  0.12553662  0.12612371  1
  V  V57  1  0.38428348  0.75356417  0.11833407  1
  V  V58  1  0.87184172  0.87761402  0.49612250  1
  V  V59  1  -0.00109195  0.37003366  0.87925782  1
  V  V60  1  0.62477227  0.63654401  0.00309858  1
  V  V61  1  0.62549561  0.62334816  0.49937164  1
  V  V62  1  0.49747213  0.25078035  0.24984797  1
  V  V63  1  0.74285497  0.12039904  0.87988860  1
  V  V64  1  0.24956456  0.75768290  0.00245377  1
  V  V65  1  0.86853075  0.25632244  0.62451927  1
  V  V66  1  0.25098819  0.37478107  0.62544250  1
  V  V67  1  0.00086916  0.74727329  0.24892754  1
  V  V68  1  0.48321949  0.00132367  0.49479796  1
  V  V69  1  0.38050106  0.24931268  0.63222171  1
  V  V70  1  0.00091244  0.24979002  0.75052435  1
  V  V71  1  0.75336150  0.88502911  0.12764661  1
  V  V72  1  -0.00370045  0.12524153  0.62567730  1
  V  V73  1  0.49832288  0.35929673  0.87671505  1
  V  V74  1  0.62444261  0.87307759  0.75343485  1
  V  V75  1  -0.00393943  0.00164548  0.49232457  1
  V  V76  1  0.85875777  0.25495610  0.12429527  1
  V  V77  1  0.62271925  0.75190129  0.37171242  1
  V  V78  1  0.25070595  0.50242170  0.75152893  1
  V  V79  1  0.36322638  0.37231598  0.00480332  1
  V  V80  1  0.48600409  0.87779485  0.37485491  1
  V  V81  1  0.25174996  0.00596622  0.75599212  1
  V  V82  1  0.37810521  0.37308746  0.50070060  1
  V  V83  1  0.87560831  0.50066374  0.37032870  1
  V  V84  1  0.63192371  0.24287035  0.37265294  1
  Zn  Zn85  1  0.25635768  0.87829661  0.12484241  1
  Zn  Zn86  1  0.62721632  0.12674599  0.00252184  1
  Zn  Zn87  1  -0.00224932  0.25147277  0.25228177  1
  Zn  Zn88  1  0.37423525  0.13133845  0.75870439  1
  Zn  Zn89  1  0.00379871  0.50638995  0.49394574  1
  Zn  Zn90  1  0.13239385  0.49581391  0.11409716  1
  Zn  Zn91  1  0.74616547  0.87482546  0.62611095  1
  Zn  Zn92  1  0.74921462  -0.00087050  0.74673800  1
  Zn  Zn93  1  0.63039168  0.00407670  0.12722146  1
  Zn  Zn94  1  0.87433178  0.62609069  0.75013941  1
  Zn  Zn95  1  0.63053680  0.49563805  0.62314706  1
  Zn  Zn96  1  0.36554559  0.74637523  0.60913812  1
  Zn  Zn97  1  0.00463441  0.37739109  0.36987743  1
  Zn  Zn98  1  0.12111846  0.25516438  0.37061071  1
  Zn  Zn99  1  0.87469898  0.62404583  0.24665844  1
  Zn  Zn100  1  0.12384125  0.36862725  0.23976634  1
  Zn  Zn101  1  0.00623279  0.63058855  0.62010166  1
  Zn  Zn102  1  0.86518732  0.36836742  -0.00050280  1
  Zn  Zn103  1  0.62815340  0.12206810  0.49706673  1
  Zn  Zn104  1  0.74886562  0.62551011  0.36998641  1
  Zn  Zn105  1  0.26413195  0.10790610  0.38312645  1
  Zn  Zn106  1  0.50443485  0.74723454  0.24419452  1
  Zn  Zn107  1  0.18274500  0.18383541  0.18777187  1
  Zn  Zn108  1  0.18824322  0.18833846  0.68620341  1
  Zn  Zn109  1  0.19078221  0.68383371  0.18908938  1
  Zn  Zn110  1  0.18922636  0.69093952  0.69193200  1
  Zn  Zn111  1  0.69239360  0.17879598  0.19494414  1
  Zn  Zn112  1  0.69033236  0.18230387  0.68579742  1
  Zn  Zn113  1  0.68869241  0.68902092  0.18462277  1
  Zn  Zn114  1  0.68592096  0.68831410  0.68857217  1
  Zn  Zn115  1  0.31053055  0.31093122  0.31296150  1
  Zn  Zn116  1  0.31462588  0.31486385  0.81346790  1
  Zn  Zn117  1  0.31135468  0.80568113  0.30985224  1
  Zn  Zn118  1  0.31278696  0.81676513  0.81280072  1
  Zn  Zn119  1  0.81893962  0.31044743  0.30887899  1
  Zn  Zn120  1  0.81451900  0.31588828  0.80550136  1
  Zn  Zn121  1  0.81234768  0.81711814  0.31158360  1
  Zn  Zn122  1  0.81073148  0.81495985  0.81178211  1
  Zn  Zn123  1  0.18965319  0.43615919  0.43251051  1
  Zn  Zn124  1  0.18529692  0.43720320  0.93522109  1
  Zn  Zn125  1  0.18836185  0.93597239  0.43826425  1
  Zn  Zn126  1  0.18746325  0.93671667  0.93764231  1
  Zn  Zn127  1  0.69397452  0.43316502  0.43388082  1
  Zn  Zn128  1  0.68371025  0.45895410  0.93056423  1
  Zn  Zn129  1  0.68247068  0.93698654  0.43963933  1
  Zn  Zn130  1  0.68637287  0.93679050  0.93875793  1
  Zn  Zn131  1  0.31477673  0.06237309  0.06447553  1
  Zn  Zn132  1  0.31017442  0.06303755  0.57110564  1
  Zn  Zn133  1  0.31497253  0.56967562  0.06183323  1
  Zn  Zn134  1  0.31536537  0.56020408  0.56376848  1
  Zn  Zn135  1  0.81548463  0.06565159  0.06210585  1
  Zn  Zn136  1  0.81014446  0.06288019  0.55801167  1
  Zn  Zn137  1  0.81434884  0.56248109  0.06014958  1
  Zn  Zn138  1  0.81374666  0.56596370  0.56120946  1
  Zn  Zn139  1  0.43765522  0.43695936  0.18647098  1
  Zn  Zn140  1  0.44362298  0.43663678  0.69102995  1
  Zn  Zn141  1  0.44028228  0.93358270  0.18855618  1
  Zn  Zn142  1  0.43617418  0.93882185  0.69014332  1
  Zn  Zn143  1  0.93896667  0.43113107  0.18125981  1
  Zn  Zn144  1  0.93895721  0.43863248  0.68833386  1
  Zn  Zn145  1  0.94099316  0.94044797  0.18873801  1
  Zn  Zn146  1  0.93741165  0.93411646  0.68572947  1
  Zn  Zn147  1  0.10120011  0.04880733  0.32398045  1
  Zn  Zn148  1  0.06154075  0.06301951  0.81581634  1
  Zn  Zn149  1  0.06340686  0.56276070  0.31111868  1
  Zn  Zn150  1  0.06163980  0.56651160  0.80795050  1
  Zn  Zn151  1  0.55807153  0.06286192  0.31250627  1
  Zn  Zn152  1  0.56188887  0.05921070  0.81285208  1
  Zn  Zn153  1  0.56313880  0.56236442  0.31150037  1
  Zn  Zn154  1  0.56425693  0.55851426  0.81698380  1
  Zn  Zn155  1  0.43980714  0.18510887  0.43806406  1
  Zn  Zn156  1  0.43250575  0.18404828  0.94528892  1
  Zn  Zn157  1  0.43639590  0.68679823  0.43321051  1
  Zn  Zn158  1  0.43968414  0.68790625  0.94021252  1
  Zn  Zn159  1  0.93674602  0.18663069  0.43069325  1
  Zn  Zn160  1  0.93699571  0.18489175  0.94348200  1
  Zn  Zn161  1  0.93853818  0.68219232  0.43914497  1
  Zn  Zn162  1  0.93470471  0.68757994  0.93728510  1
  Zn  Zn163  1  0.06612468  0.31155408  0.06702808  1
  Zn  Zn164  1  0.05816290  0.31778258  0.56025054  1
  Zn  Zn165  1  0.05808733  0.81380338  0.06029710  1
  Zn  Zn166  1  0.06140937  0.81648377  0.56722152  1
  Zn  Zn167  1  0.55301464  0.31672743  0.06826538  1
  Zn  Zn168  1  0.56489789  0.30797673  0.56186516  1
  Zn  Zn169  1  0.56561085  0.81703611  0.06375227  1
  Zn  Zn170  1  0.52826517  0.80042543  0.55037079  1
  O  O171  1  0.11756349  0.11638150  0.11365605  1
  O  O172  1  0.11702312  0.12207272  0.61904001  1
  O  O173  1  0.11238770  0.62137723  0.12597391  1
  O  O174  1  0.13086524  0.61060984  0.63279611  1
  O  O175  1  0.61573821  0.12336098  0.12645254  1
  O  O176  1  0.61721513  0.11672432  0.62362228  1
  O  O177  1  0.63079726  0.61549220  0.11144085  1
  O  O178  1  0.61929740  0.62183449  0.61669418  1
  O  O179  1  0.38208459  0.37880600  0.38060786  1
  O  O180  1  0.38236529  0.38118656  0.88041508  1
  O  O181  1  0.38660708  0.86947393  0.36698712  1
  O  O182  1  0.38826570  0.88612299  0.86992285  1
  O  O183  1  0.87269686  0.38810725  0.38118159  1
  O  O184  1  0.88193070  0.38082817  0.87597392  1
  O  O185  1  0.88320716  0.86511564  0.38961760  1
  O  O186  1  0.86931223  0.88413953  0.88294590  1
  O  O187  1  0.20793569  0.01336379  0.36409669  1
  O  O188  1  0.26023047  -0.00702050  0.86919033  1
  O  O189  1  0.25714972  0.51109396  0.36812019  1
  O  O190  1  0.25496387  0.50881219  0.87052688  1
  O  O191  1  0.75349626  -0.00369195  0.37758510  1
  O  O192  1  0.75888607  0.00684379  0.87255591  1
  O  O193  1  0.75433615  0.50091706  0.35955654  1
  O  O194  1  0.75842218  0.50884735  0.86413856  1
  O  O195  1  0.25217732  0.51018026  0.13812265  1
  O  O196  1  0.24376279  0.49540907  0.63122295  1
  O  O197  1  0.23591420  0.99631488  0.11804509  1
  O  O198  1  0.24242735  0.99128890  0.63416048  1
  O  O199  1  0.74355073  0.50098096  0.13329193  1
  O  O200  1  0.75147211  0.50691363  0.64059646  1
  O  O201  1  0.75119381  0.98932263  0.12082736  1
  O  O202  1  0.73859202  0.99753408  0.62522100  1
  O  O203  1  0.00346505  0.37343327  0.25077423  1
  O  O204  1  0.00495976  0.37101485  0.76089962  1
  O  O205  1  0.00601099  0.86432728  0.25471070  1
  O  O206  1  0.00865484  0.86356998  0.74640348  1
  O  O207  1  0.51020232  0.37091632  0.25365891  1
  O  O208  1  0.51675984  0.38068883  0.76361213  1
  O  O209  1  0.50957115  0.87188903  0.25801621  1
  O  O210  1  0.50375781  0.86690367  0.75624510  1
  O  O211  1  0.49086888  0.12968878  0.24155366  1
  O  O212  1  0.49694522  0.11899507  0.73719421  1
  O  O213  1  0.48558354  0.62561556  0.25545721  1
  O  O214  1  0.49536033  0.62866259  0.75243131  1
  O  O215  1  1.00840451  0.11934350  0.23309651  1
  O  O216  1  0.99451302  0.13006411  0.74518713  1
  O  O217  1  0.99748630  0.63164119  0.24063200  1
  O  O218  1  0.99682500  0.63928340  0.74449911  1
  O  O219  1  0.37735028  0.25722706  0.01595493  1
  O  O220  1  0.36970463  0.25334978  0.50878347  1
  O  O221  1  0.36809513  0.74479850  0.01166066  1
  O  O222  1  0.42190812  0.75920784  0.51382022  1
  O  O223  1  0.87826641  0.25107804  0.01476625  1
  O  O224  1  0.87115243  0.25756224  0.50591926  1
  O  O225  1  0.88210128  0.76187515  0.00794584  1
  O  O226  1  0.86773313  0.75476647  0.50632762  1
  O  O227  1  0.13488785  0.24531255  0.50844761  1
  O  O228  1  0.11937232  0.23520465  0.99219100  1
  O  O229  1  0.11859837  0.75425266  0.48918869  1
  O  O230  1  0.12965462  0.75387749  0.98896629  1
  O  O231  1  0.63499495  0.25158575  0.49008063  1
  O  O232  1  0.62340557  0.24914566  0.99973913  1
  O  O233  1  0.62343736  0.74213100  0.49325384  1
  O  O234  1  0.62384067  0.73521082  1.00572434  1
  O  O235  1  0.49376909  0.24185060  0.13274282  1
  O  O236  1  0.49208511  0.23837096  0.61791279  1
  O  O237  1  0.48824643  0.75213099  0.12306206  1
  O  O238  1  0.50272666  0.73917004  0.64636852  1
  O  O239  1  0.99889074  0.23356424  0.12301416  1
  O  O240  1  0.99115261  0.24563704  0.63008160  1
  O  O241  1  0.99350064  0.74345872  0.12972918  1
  O  O242  1  0.99177509  0.75129914  0.63287898  1
  O  O243  1  -0.00149814  0.25771149  0.37252144  1
  O  O244  1  0.00370951  0.25611136  0.87025075  1
  O  O245  1  0.00608494  0.75026831  0.36627040  1
  O  O246  1  0.00788428  0.74565456  0.86829076  1
  O  O247  1  0.50649712  0.25586329  0.36937401  1
  O  O248  1  0.49200794  0.25990762  0.87983260  1
  O  O249  1  0.51175196  0.75817388  0.37068707  1
  O  O250  1  0.49460860  0.75827704  0.86712994  1
  O  O251  1  0.24231539  0.13085143  0.50284213  1
  O  O252  1  0.23305761  0.11935154  1.00273614  1
  O  O253  1  0.25958433  0.62238901  0.48454862  1
  O  O254  1  0.25261164  0.63453848  0.98747231  1
  O  O255  1  0.74718387  0.14202655  0.50488677  1
  O  O256  1  0.74794016  0.12108609  0.98534524  1
  O  O257  1  0.73792827  0.63073620  0.49746662  1
  O  O258  1  0.73883756  0.61745897  0.98762570  1
  O  O259  1  0.26452516  0.38130678  -0.00596930  1
  O  O260  1  0.25794023  0.36877758  0.50630126  1
  O  O261  1  0.24899159  0.86137922  0.00101965  1
  O  O262  1  0.24328076  0.87929552  0.51870133  1
  O  O263  1  0.73971886  0.36589336  -0.01846971  1
  O  O264  1  0.76259547  0.36494863  0.49973481  1
  O  O265  1  0.76137617  0.87795291  0.00777785  1
  O  O266  1  0.75583600  0.86834251  0.50272574  1
  O  O267  1  0.14232703  0.50507574  0.24801671  1
  O  O268  1  0.13280485  0.49431262  0.74591781  1
  O  O269  1  0.11021399  0.98276719  0.23243828  1
  O  O270  1  0.12840314  0.99332479  0.74987505  1
  O  O271  1  0.62963212  0.49507860  0.24211471  1
  O  O272  1  0.63257911  0.49112882  0.75113462  1
  O  O273  1  0.61981461  0.98847467  0.24903177  1
  O  O274  1  0.62256157  0.99286232  0.73851015  1
  O  O275  1  0.37554144  0.01313244  0.24263919  1
  O  O276  1  0.36702445  0.00274743  0.75967141  1
  O  O277  1  0.37008443  0.50618895  0.25355651  1
  O  O278  1  0.37209009  0.50970375  0.75574863  1
  O  O279  1  0.87320789  -0.00805625  0.26113072  1
  O  O280  1  0.87456400  0.00280262  0.75615404  1
  O  O281  1  0.86685901  0.49854498  0.25221175  1
  O  O282  1  0.86951409  0.50073608  0.75968792  1
  O  O283  1  0.12520273  0.37331036  0.36792751  1
  O  O284  1  0.11856897  0.36641951  0.86990084  1
  O  O285  1  0.11858459  0.86206679  0.36699338  1
  O  O286  1  0.12784929  0.86660507  0.86464269  1
  O  O287  1  0.62046968  0.36714010  0.36625813  1
  O  O288  1  0.62251980  0.36435152  0.87538522  1
  O  O289  1  0.61921126  0.86828234  0.36851948  1
  O  O290  1  0.61305754  0.88453855  0.86228939  1
  O  O291  1  0.37997357  0.13464533  0.13249546  1
  O  O292  1  0.38200345  0.13337833  0.62867337  1
  O  O293  1  0.37417551  0.63849840  0.13194729  1
  O  O294  1  0.38029984  0.62589969  0.63546076  1
  O  O295  1  0.88820573  0.13122780  0.12108002  1
  O  O296  1  0.87920440  0.13148896  0.63148281  1
  O  O297  1  0.88171649  0.63417115  0.12343973  1
  O  O298  1  0.87260478  0.63919778  0.62904519  1
  O  O299  1  0.26172114  0.24620482  0.12619267  1
  O  O300  1  0.25835972  0.25501467  0.61710039  1
  O  O301  1  0.25663309  0.74825997  0.11626545  1
  O  O302  1  0.25098868  0.76455273  0.63028848  1
  O  O303  1  0.76003786  0.24122945  0.12459527  1
  O  O304  1  0.76369601  0.24813360  0.62077817  1
  O  O305  1  0.76473644  0.75826033  0.12802929  1
  O  O306  1  0.75533968  0.75209840  0.61871489  1
  O  O307  1  0.25195787  0.24601356  0.39051764  1
  O  O308  1  0.23808906  0.25182110  0.87044103  1
  O  O309  1  0.24187686  0.73676648  0.37222705  1
  O  O310  1  0.24476705  0.74565374  0.88076064  1
  O  O311  1  0.74315495  0.25659572  0.38124228  1
  O  O312  1  0.74915030  0.24141412  0.87376701  1
  O  O313  1  0.73841477  0.75037510  0.38114856  1
  O  O314  1  0.75364857  0.73519890  0.87379375  1
  O  O315  1  0.00710899  0.11207509  0.00525079  1
  O  O316  1  0.00217421  0.11875236  0.50868693  1
  O  O317  1  -0.00652886  0.61562672  0.00579960  1
  O  O318  1  -0.00234405  0.61861411  0.50790401  1
  O  O319  1  0.50176700  0.11913486  0.01312705  1
  O  O320  1  0.50227784  0.11337317  0.50675158  1
  O  O321  1  0.51560502  0.61687908  -0.00799198  1
  O  O322  1  0.51168504  0.61500937  0.50250282  1
  O  O323  1  0.49766236  0.37838716  0.49495442  1
  O  O324  1  0.49184337  0.38250492  0.99314597  1
  O  O325  1  0.50639748  0.89511142  0.48875240  1
  O  O326  1  0.50461643  0.88186847  0.99135045  1
  O  O327  1  0.98664943  0.38448013  0.49832886  1
  O  O328  1  0.99984595  0.38136536  0.98703537  1
  O  O329  1  0.99278246  0.88225955  0.49672696  1
  O  O330  1  0.98814519  0.88927280  1.00526880  1
  O  O331  1  0.49550825  0.49358100  0.38002019  1
  O  O332  1  0.49637829  0.49143906  0.88678998  1
  O  O333  1  0.49994570  0.99564385  0.38693115  1
  O  O334  1  0.49351966  0.99435157  0.88326201  1
  O  O335  1  0.98995830  0.50051711  0.37353100  1
  O  O336  1  0.99297223  0.49578216  0.87623857  1
  O  O337  1  1.01181902  0.99285677  0.38904341  1
  O  O338  1  0.98670574  1.00323918  0.88089788  1
  O  O339  1  0.00468923  0.00807885  0.11573308  1
  O  O340  1  0.00483265  0.00508720  0.62010311  1
  O  O341  1  -0.00483108  0.50892998  0.11164804  1
  O  O342  1  0.01765480  0.50097180  0.62983712  1
  O  O343  1  0.50049398  0.00610246  0.11953082  1
  O  O344  1  0.50207737  0.00479024  0.61570287  1
  O  O345  1  0.50628232  0.49798574  0.11287743  1
  O  O346  1  0.50286343  0.50569130  0.61836315  1
  O  O347  1  0.25534859  0.39463018  0.25505502  1
  O  O348  1  0.24662881  0.38219554  0.74438183  1
  O  O349  1  0.23608220  0.86674401  0.24665224  1
  O  O350  1  0.24183209  0.88467713  0.74579166  1
  O  O351  1  0.73759179  0.38096875  0.25203923  1
  O  O352  1  0.73434301  0.38322839  0.75750600  1
  O  O353  1  0.74108643  0.87033678  0.24052465  1
  O  O354  1  0.73857357  0.87744353  0.74805280  1
  O  O355  1  0.26451111  0.12710925  0.24971443  1
  O  O356  1  0.24950888  0.10995953  0.74420232  1
  O  O357  1  0.26213334  0.61757342  0.25786587  1
  O  O358  1  0.25920638  0.62343677  0.76008839  1
  O  O359  1  0.75527386  0.11350571  0.25931316  1
  O  O360  1  0.75674281  0.12207172  0.76024480  1
  O  O361  1  0.75192372  0.61593485  0.24920665  1
  O  O362  1  0.74786869  0.61957815  0.76222160  1
  O  O363  1  0.37705244  0.12838542  0.35827982  1
  O  O364  1  0.37879645  0.11171214  0.87476161  1
  O  O365  1  0.36748221  0.62199972  0.36776922  1
  O  O366  1  0.36998356  0.61939665  0.87065271  1
  O  O367  1  0.87170149  0.11089930  0.38135811  1
  O  O368  1  0.86799117  0.11850685  0.87021005  1
  O  O369  1  0.86978391  0.61303340  0.37110576  1
  O  O370  1  0.86353914  0.61820263  0.87430588  1
  O  O371  1  0.12573180  0.38364939  0.12433657  1
  O  O372  1  0.13098745  0.38238459  0.63205731  1
  O  O373  1  0.12508885  0.87941554  0.12920221  1
  O  O374  1  0.13178973  0.87884342  0.63825316  1
  O  O375  1  0.62062075  0.38813787  0.13158146  1
  O  O376  1  0.61988818  0.37660031  0.63766131  1
  O  O377  1  0.63553494  0.87613585  0.13332169  1
  O  O378  1  0.61897527  0.88182361  0.63570229  1
  O  O379  1  0.12143306  0.24950339  0.25244487  1
  O  O380  1  0.11975253  0.25417896  0.75579219  1
  O  O381  1  0.11495813  0.75294479  0.25144662  1
  O  O382  1  0.11866825  0.75710791  0.75881076  1
  O  O383  1  0.62168317  0.25648814  0.25379733  1
  O  O384  1  0.62991902  0.26271305  0.74521144  1
  O  O385  1  0.62416202  0.75541329  0.25621715  1
  O  O386  1  0.61789033  0.75870559  0.75225380  1
  O  O387  1  0.37901424  0.24895474  0.23986966  1
  O  O388  1  0.37092594  0.25016873  0.73706233  1
  O  O389  1  0.37710683  0.74167687  0.23784463  1
  O  O390  1  0.38025556  0.73846524  0.75298734  1
  O  O391  1  0.87848047  0.25195791  0.23148210  1
  O  O392  1  0.88087945  0.24663616  0.74259337  1
  O  O393  1  0.88596323  0.75060270  0.24285082  1
  O  O394  1  0.88153550  0.75329651  0.74297150  1
  O  O395  1  0.38220133  0.49244420  0.49409038  1
  O  O396  1  0.38161902  0.49642026  0.99800706  1
  O  O397  1  0.38412462  1.00432803  0.50237439  1
  O  O398  1  0.38711912  1.00324495  0.99601644  1
  O  O399  1  0.86890905  0.49424318  0.49080484  1
  O  O400  1  0.87887448  0.49386889  0.98706680  1
  O  O401  1  0.88457210  0.98888435  0.50949948  1
  O  O402  1  0.88072390  0.99510260  0.99187937  1
  O  O403  1  0.11701025  0.00447313  0.00205612  1
  O  O404  1  0.11589112  0.00846034  0.51150094  1
  O  O405  1  0.11109963  0.50211896  -0.00647940  1
  O  O406  1  0.12951011  0.49455957  0.51577220  1
  O  O407  1  0.61272602  0.00291996  0.00296220  1
  O  O408  1  0.61838499  0.00228307  0.51137594  1
  O  O409  1  0.61721087  0.50513012  0.00776776  1
  O  O410  1  0.62523835  0.50521425  0.49950378  1
  O  O411  1  0.37826951  0.36237941  0.11943728  1
  O  O412  1  0.37367791  0.36924054  0.62166934  1
  O  O413  1  0.37246221  0.85837864  0.13124047  1
  O  O414  1  0.35858907  0.87454765  0.63333895  1
  O  O415  1  0.87058201  0.36122493  0.11688527  1
  O  O416  1  0.87996047  0.36779129  0.61787367  1
  O  O417  1  0.87058665  0.87020033  0.11907845  1
  O  O418  1  0.87306066  0.86444552  0.61525860  1
  O  O419  1  0.11472184  0.13744446  0.39645382  1
  O  O420  1  0.12086587  0.13133895  0.88717013  1
  O  O421  1  0.13931180  0.63030048  0.37163663  1
  O  O422  1  0.13501332  0.63605636  0.86707394  1
  O  O423  1  0.61738701  0.13968147  0.37549853  1
  O  O424  1  0.63818466  0.12066034  0.87485501  1
  O  O425  1  0.62486555  0.63289040  0.38122780  1
  O  O426  1  0.63692342  0.61943406  0.88672666  1
