# generated using pymatgen
data_V85Zn86O256
_symmetry_space_group_name_H-M   'P 1'
_cell_length_a   16.94020262
_cell_length_b   16.93923525
_cell_length_c   16.93836674
_cell_angle_alpha   90.03783584
_cell_angle_beta   89.95724727
_cell_angle_gamma   89.98589941
_symmetry_Int_Tables_number   1
_chemical_formula_structural   V85Zn86O256
_chemical_formula_sum   'V85 Zn86 O256'
_cell_volume   4860.53083857
_cell_formula_units_Z   1
loop_
 _symmetry_equiv_pos_site_id
 _symmetry_equiv_pos_as_xyz
  1  'x, y, z'
loop_
 _atom_site_type_symbol
 _atom_site_label
 _atom_site_symmetry_multiplicity
 _atom_site_fract_x
 _atom_site_fract_y
 _atom_site_fract_z
 _atom_site_occupancy
  V  V0  1  0.74659038  0.75255777  0.00149034  1
  V  V1  1  0.36011954  0.87847272  0.00257319  1
  V  V2  1  -0.00326033  0.50125115  -0.00326355  1
  V  V3  1  0.00990208  0.62687452  0.63506529  1
  V  V4  1  -0.05540458  0.80348990  0.79623369  1
  V  V5  1  0.11633162  0.87388380  0.24836010  1
  V  V6  1  0.25346355  -0.01260042  0.24822426  1
  V  V7  1  0.37348646  0.12267199  0.24816446  1
  V  V8  1  0.50667585  0.87368410  0.37051144  1
  V  V9  1  0.62626373  0.24975722  0.37377563  1
  V  V10  1  0.62359634  0.62280310  0.51463869  1
  V  V11  1  0.88153204  0.87343708  0.49692997  1
  V  V12  1  0.64183718  0.25041803  0.87666686  1
  V  V13  1  0.37232403  0.24899974  0.12392398  1
  V  V14  1  0.00055343  0.49835481  0.50935262  1
  V  V15  1  0.37661294  0.87645534  0.50155406  1
  V  V16  1  0.24804614  0.37358149  0.12334068  1
  V  V17  1  0.86980430  0.74961655  0.12779550  1
  V  V18  1  0.85083226  0.12152988  0.75015015  1
  V  V19  1  0.24573920  0.24828145  -0.01142910  1
  V  V20  1  0.62464344  0.37255654  0.24765451  1
  V  V21  1  0.37525602  0.62431372  0.74737318  1
  V  V22  1  0.37438830  0.25404938  0.62129431  1
  V  V23  1  0.12044138  0.75336125  0.37619088  1
  V  V24  1  0.12454188  0.49939138  0.12591697  1
  V  V25  1  0.87153706  0.24776030  0.11388338  1
  V  V26  1  0.12389789  0.86839148  0.75335967  1
  V  V27  1  0.25112876  0.75067077  0.49921396  1
  V  V28  1  0.75705140  0.26129001  0.49703810  1
  V  V29  1  0.37307072  0.37423659  -0.00161359  1
  V  V30  1  0.87828269  -0.00604197  0.36812935  1
  V  V31  1  0.50494546  -0.00121530  0.50302464  1
  V  V32  1  0.50144821  0.74609772  0.74672157  1
  V  V33  1  0.11548607  0.12778822  -0.00443675  1
  V  V34  1  -0.00369114  0.24643255  0.24607980  1
  V  V35  1  0.24857919  0.63533198  0.87877313  1
  V  V36  1  0.12617505  0.00118464  0.12517551  1
  V  V37  1  0.87924618  0.74096179  0.62312778  1
  V  V38  1  0.50005866  0.12473561  0.12127308  1
  V  V39  1  0.88041377  0.25861915  0.62496875  1
  V  V40  1  0.25067632  -0.00208566  0.75539487  1
  V  V41  1  0.62739921  0.38326130  0.74008089  1
  V  V42  1  -0.01320295  0.61896994  0.13174476  1
  V  V43  1  0.50229435  0.37672804  0.87480283  1
  V  V44  1  0.75030912  0.75005061  0.49789626  1
  V  V45  1  0.62371154  0.74553313  0.37021382  1
  V  V46  1  0.62721400  0.12500047  0.49939870  1
  V  V47  1  0.50244042  0.75397318  0.23631476  1
  V  V48  1  0.00297469  -0.00011986  0.49267039  1
  V  V49  1  0.12514826  0.12457565  0.49932437  1
  V  V50  1  0.37249903  0.50063357  0.87359976  1
  V  V51  1  0.76090048  0.62531305  0.87601842  1
  V  V52  1  0.49322722  0.87506456  0.87539387  1
  V  V53  1  0.35897912  0.74881008  0.11813563  1
  V  V54  1  0.00062955  0.12724645  0.63511152  1
  V  V55  1  0.12263882  0.35976750  0.74893631  1
  V  V56  1  0.12440221  0.37408562  0.25068491  1
  V  V57  1  0.37666210  0.49732860  0.37952652  1
  V  V58  1  0.74314121  -0.00727026  0.24275884  1
  V  V59  1  -0.00927231  0.74642027  0.25624555  1
  V  V60  1  -0.01033061  0.37594419  0.38007568  1
  V  V61  1  0.12409902  0.25067007  0.37357585  1
  V  V62  1  0.50139966  0.25126522  0.75024854  1
  V  V63  1  0.49790966  0.37487971  0.38041491  1
  V  V64  1  0.50196767  0.50225326  0.51098951  1
  V  V65  1  0.25072300  0.62465827  0.37472687  1
  V  V66  1  0.62442103  0.74491265  0.87627306  1
  V  V67  1  0.75247084  0.12282608  0.37330844  1
  V  V68  1  0.24701507  0.38023763  0.61948223  1
  V  V69  1  0.25081385  0.12367679  0.37316737  1
  V  V70  1  0.37633390  0.11990210  0.75838917  1
  V  V71  1  0.38235905  0.62570853  0.24642987  1
  V  V72  1  0.37992765  0.74383449  0.62248025  1
  V  V73  1  0.49535883  0.00179322  -0.00790922  1
  V  V74  1  0.74789414  0.37292406  0.11278947  1
  V  V75  1  0.75204135  0.88110730  0.63312351  1
  V  V76  1  0.75454636  0.50986383  0.73884968  1
  V  V77  1  0.23728545  0.50259218  0.74782395  1
  V  V78  1  0.75861360  0.50285205  0.24902190  1
  V  V79  1  0.63910124  0.12645285  -0.00353702  1
  V  V80  1  0.25307611  0.25191634  0.49899614  1
  V  V81  1  0.00469038  0.36294108  0.87303862  1
  V  V82  1  0.61547423  0.50407352  0.12427514  1
  V  V83  1  0.12723575  0.63091712  0.00383757  1
  V  V84  1  0.49936660  0.12525726  0.62496412  1
  Zn  Zn85  1  0.87422177  0.12584584  0.24899711  1
  Zn  Zn86  1  0.62906970  0.87938506  0.75367472  1
  Zn  Zn87  1  0.75519907  0.62731201  0.37131795  1
  Zn  Zn88  1  0.37785412  -0.00031848  0.37483982  1
  Zn  Zn89  1  0.49955590  0.24667236  0.25104710  1
  Zn  Zn90  1  0.99247385  -0.03550062  0.98074390  1
  Zn  Zn91  1  0.24630918  0.12313795  0.87346352  1
  Zn  Zn92  1  0.86992769  0.37233987  -0.01057391  1
  Zn  Zn93  1  0.11705698  0.75709306  0.88294058  1
  Zn  Zn94  1  0.64004759  0.01091066  0.63769988  1
  Zn  Zn95  1  0.87881779  0.50279053  0.86709203  1
  Zn  Zn96  1  0.49318736  0.50354947  0.00608813  1
  Zn  Zn97  1  0.87599602  0.50421098  0.37842763  1
  Zn  Zn98  1  0.24863410  0.87714149  0.62456832  1
  Zn  Zn99  1  0.61987036  -0.00845953  0.12465374  1
  Zn  Zn100  1  0.12546633  -0.00208784  0.62542950  1
  Zn  Zn101  1  0.61516513  0.62432059  0.00108855  1
  Zn  Zn102  1  0.12715612  0.62055327  0.50343516  1
  Zn  Zn103  1  0.75258319  0.38410551  0.61767282  1
  Zn  Zn104  1  -0.03207163  0.09158190  0.09863436  1
  Zn  Zn105  1  0.73255054  0.86076249  0.13447115  1
  Zn  Zn106  1  0.25181880  0.49827649  0.25074560  1
  Zn  Zn107  1  0.18628542  0.18429257  0.18268955  1
  Zn  Zn108  1  0.18949715  0.18358020  0.68532622  1
  Zn  Zn109  1  0.18598070  0.68414574  0.19319312  1
  Zn  Zn110  1  0.18993975  0.69110783  0.68728828  1
  Zn  Zn111  1  0.68980893  0.18428000  0.18354887  1
  Zn  Zn112  1  0.68647232  0.19801767  0.68258984  1
  Zn  Zn113  1  0.68197705  0.68187006  0.18980614  1
  Zn  Zn114  1  0.69207212  0.69456605  0.68990757  1
  Zn  Zn115  1  0.31337741  0.31220195  0.31132851  1
  Zn  Zn116  1  0.31226514  0.31311528  0.80783077  1
  Zn  Zn117  1  0.31730034  0.81091421  0.31399203  1
  Zn  Zn118  1  0.31243657  0.81398001  0.81309600  1
  Zn  Zn119  1  0.81118914  0.31533182  0.30727814  1
  Zn  Zn120  1  0.81795345  0.31837809  0.80300167  1
  Zn  Zn121  1  0.81372823  0.81249608  0.31366939  1
  Zn  Zn122  1  0.86746084  0.97899749  0.85642436  1
  Zn  Zn123  1  0.18273699  0.43872212  0.43852508  1
  Zn  Zn124  1  0.18464547  0.43998935  0.93471487  1
  Zn  Zn125  1  0.18855747  0.93580681  0.43239156  1
  Zn  Zn126  1  0.18044497  0.94209625  0.93402545  1
  Zn  Zn127  1  0.68363849  0.44151814  0.43546567  1
  Zn  Zn128  1  0.68622995  0.44236530  0.93201173  1
  Zn  Zn129  1  0.69004892  0.93550160  0.43883146  1
  Zn  Zn130  1  0.68492490  0.93318696  0.93407518  1
  Zn  Zn131  1  0.30761466  0.06115198  0.06149150  1
  Zn  Zn132  1  0.31258882  0.06185314  0.56697861  1
  Zn  Zn133  1  0.31292658  0.56294476  0.06272772  1
  Zn  Zn134  1  0.31402005  0.56137663  0.56100666  1
  Zn  Zn135  1  0.80533016  0.02328153  0.02757748  1
  Zn  Zn136  1  0.81815707  0.06555674  0.55954242  1
  Zn  Zn137  1  0.80881793  0.56263737  0.05806019  1
  Zn  Zn138  1  0.81718986  0.56335807  0.55542763  1
  Zn  Zn139  1  0.43578784  0.43334932  0.19314149  1
  Zn  Zn140  1  0.43219283  0.43580716  0.68972193  1
  Zn  Zn141  1  0.43856370  0.93459197  0.18145016  1
  Zn  Zn142  1  0.44011205  0.93675537  0.68760095  1
  Zn  Zn143  1  0.93729864  0.42811279  0.18463188  1
  Zn  Zn144  1  0.93997078  0.44038366  0.68958020  1
  Zn  Zn145  1  0.92959175  0.93950882  0.16705698  1
  Zn  Zn146  1  0.93441478  0.94542465  0.67829273  1
  Zn  Zn147  1  0.06251307  0.06192508  0.30768392  1
  Zn  Zn148  1  0.05679174  0.05129620  0.81691192  1
  Zn  Zn149  1  0.06175120  0.56177152  0.31573458  1
  Zn  Zn150  1  0.06271840  0.56538702  0.81685636  1
  Zn  Zn151  1  0.56207450  0.06215146  0.31273749  1
  Zn  Zn152  1  0.56849605  0.06248046  0.81474327  1
  Zn  Zn153  1  0.56370242  0.56341547  0.31273954  1
  Zn  Zn154  1  0.56294816  0.56262280  0.80959931  1
  Zn  Zn155  1  0.43643431  0.18764496  0.43730666  1
  Zn  Zn156  1  0.43980712  0.19140612  0.93603015  1
  Zn  Zn157  1  0.44197198  0.68533340  0.43614946  1
  Zn  Zn158  1  0.43703145  0.68702608  0.94029167  1
  Zn  Zn159  1  0.93754978  0.18599693  0.43777850  1
  Zn  Zn160  1  0.93305134  0.18360539  0.92760209  1
  Zn  Zn161  1  0.93775099  0.67843562  0.43853695  1
  Zn  Zn162  1  0.93457007  0.78884282  0.95400040  1
  Zn  Zn163  1  0.05934046  0.30956379  0.05874410  1
  Zn  Zn164  1  0.06412666  0.31421284  0.56254490  1
  Zn  Zn165  1  0.07109629  0.80684427  0.07830496  1
  Zn  Zn166  1  0.06381814  0.81212499  0.56502957  1
  Zn  Zn167  1  0.56194452  0.31001772  0.05891379  1
  Zn  Zn168  1  0.56372908  0.31251704  0.55965394  1
  Zn  Zn169  1  0.56035075  0.81458894  0.05971219  1
  Zn  Zn170  1  0.56602864  0.81130111  0.56282038  1
  O  O171  1  0.12844711  0.11670765  0.10963497  1
  O  O172  1  0.11835522  0.12458020  0.61541343  1
  O  O173  1  0.12392903  0.61219607  0.12330338  1
  O  O174  1  0.11459982  0.63064081  0.62348858  1
  O  O175  1  0.61492226  0.12496225  0.11408752  1
  O  O176  1  0.61767301  0.12793110  0.61697312  1
  O  O177  1  0.62097796  0.60633141  0.12654344  1
  O  O178  1  0.62556120  0.63438977  0.61272107  1
  O  O179  1  0.38530279  0.38417285  0.36828275  1
  O  O180  1  0.38126521  0.37876612  0.87718834  1
  O  O181  1  0.38736878  0.87329810  0.38701727  1
  O  O182  1  0.38422915  0.86526485  0.88959984  1
  O  O183  1  0.88722293  0.37631733  0.37169016  1
  O  O184  1  0.89033836  0.37877382  0.87100310  1
  O  O185  1  0.87407689  0.88650562  0.38095900  1
  O  O186  1  0.88550885  0.85487705  0.86122056  1
  O  O187  1  0.25574770  0.00632114  0.36716768  1
  O  O188  1  0.24951722  0.00187019  0.86037282  1
  O  O189  1  0.25796990  0.50608739  0.37516288  1
  O  O190  1  0.25405189  0.50600867  0.86569808  1
  O  O191  1  0.75656977  0.00565308  0.36871914  1
  O  O192  1  0.77723190  -0.00741691  0.92105018  1
  O  O193  1  0.75004517  0.49371968  0.35802906  1
  O  O194  1  0.75113472  0.50872156  0.86473291  1
  O  O195  1  0.24200834  0.49234933  0.12699326  1
  O  O196  1  0.25740727  0.49024546  0.63281899  1
  O  O197  1  0.23912854  1.00371570  0.13671984  1
  O  O198  1  0.24691792  0.99823568  0.63634265  1
  O  O199  1  0.74015050  0.49197751  0.13295688  1
  O  O200  1  0.75311692  0.50330112  0.63404487  1
  O  O201  1  0.74694840  0.99777048  0.13720885  1
  O  O202  1  0.75365759  0.98557363  0.61277452  1
  O  O203  1  0.00605749  0.36696948  0.25851211  1
  O  O204  1  0.01438424  0.37985791  0.75720109  1
  O  O205  1  0.00766887  0.86132957  0.24377568  1
  O  O206  1  0.00434107  0.87338626  0.74268943  1
  O  O207  1  0.51036605  0.37165156  0.25949980  1
  O  O208  1  0.50717044  0.37181240  0.75469599  1
  O  O209  1  0.49186246  0.86741162  0.26046371  1
  O  O210  1  0.49430044  0.86414140  0.76003201  1
  O  O211  1  0.49327325  0.12379965  0.24069337  1
  O  O212  1  0.49440633  0.13066989  0.74413642  1
  O  O213  1  0.48817081  0.63467407  0.25579273  1
  O  O214  1  0.49247151  0.63815895  0.75430100  1
  O  O215  1  0.99791730  0.14155749  0.25391304  1
  O  O216  1  1.00526460  0.12206610  0.73537030  1
  O  O217  1  1.00936151  0.63222198  0.24051479  1
  O  O218  1  1.00230789  0.61621995  0.73371938  1
  O  O219  1  0.36692521  0.25470325  0.00485703  1
  O  O220  1  0.36689195  0.24617393  0.50907600  1
  O  O221  1  0.37383276  0.75758626  0.01213210  1
  O  O222  1  0.37443737  0.75477438  0.50476071  1
  O  O223  1  0.87886625  0.25210013  0.01053151  1
  O  O224  1  0.86683895  0.24407983  0.50998433  1
  O  O225  1  0.85915193  0.73511667  0.01609170  1
  O  O226  1  0.87379524  0.75740315  0.50428481  1
  O  O227  1  0.13251043  0.24467494  0.49372347  1
  O  O228  1  0.13263018  0.23764107  1.00473596  1
  O  O229  1  0.13216071  0.74976079  0.49149741  1
  O  O230  1  0.12621061  0.73391278  1.00476921  1
  O  O231  1  0.63475272  0.24423460  0.49304714  1
  O  O232  1  0.62039738  0.23645662  0.99126625  1
  O  O233  1  0.62664810  0.73938866  0.49220537  1
  O  O234  1  0.62579848  0.74454156  0.99294482  1
  O  O235  1  0.49247479  0.23894945  0.12381046  1
  O  O236  1  0.49255845  0.24735737  0.62743054  1
  O  O237  1  0.48912946  0.75304968  0.13444732  1
  O  O238  1  0.49196482  0.75676794  0.63374577  1
  O  O239  1  0.98507323  0.25949097  0.13287702  1
  O  O240  1  0.98762052  0.24255057  0.61484707  1
  O  O241  1  0.98984947  0.73703347  0.13540154  1
  O  O242  1  0.99501485  0.73560727  0.61901676  1
  O  O243  1  0.00414087  0.25743407  0.37061277  1
  O  O244  1  0.00094588  0.26456872  0.87594748  1
  O  O245  1  0.01023197  0.74226463  0.36920944  1
  O  O246  1  -0.00243158  0.74288212  0.86102945  1
  O  O247  1  0.50562497  0.25768613  0.37493075  1
  O  O248  1  0.50449378  0.26232362  0.86890483  1
  O  O249  1  0.50508269  0.75613996  0.36649566  1
  O  O250  1  0.50357748  0.75623926  0.86847635  1
  O  O251  1  0.24527317  0.12873604  0.49385313  1
  O  O252  1  0.24239195  0.13200086  0.99578665  1
  O  O253  1  0.24964820  0.62953055  0.48938847  1
  O  O254  1  0.24008838  0.61433092  0.98979688  1
  O  O255  1  0.74811897  0.13112868  0.48797300  1
  O  O256  1  0.73552282  0.12319258  1.01140382  1
  O  O257  1  0.73804237  0.63034024  0.49846548  1
  O  O258  1  0.73840539  0.62604689  0.99140835  1
  O  O259  1  0.25129062  0.36787355  0.00318079  1
  O  O260  1  0.24308511  0.37104958  0.51224083  1
  O  O261  1  0.26165715  0.88124356  -0.00665903  1
  O  O262  1  0.26082065  0.87025472  0.49818535  1
  O  O263  1  0.74931093  0.38074293  0.00948148  1
  O  O264  1  0.74494258  0.36547863  0.49785876  1
  O  O265  1  0.74239817  0.85476300  0.00773881  1
  O  O266  1  0.76331883  0.86770295  0.50084033  1
  O  O267  1  0.12670139  0.49279986  0.24302251  1
  O  O268  1  0.13568922  0.49504019  0.75304340  1
  O  O269  1  0.13675619  0.99023650  0.25411449  1
  O  O270  1  0.13068868  0.98941335  0.74850198  1
  O  O271  1  0.62840387  0.49120253  0.24114079  1
  O  O272  1  0.63592380  0.49290403  0.75185560  1
  O  O273  1  0.64027954  1.00691678  0.24974380  1
  O  O274  1  0.61641727  0.99120011  0.74591449  1
  O  O275  1  0.36924213  0.00353861  0.24862534  1
  O  O276  1  0.36850945  0.01009192  0.74204234  1
  O  O277  1  0.37555123  0.50858091  0.25900563  1
  O  O278  1  0.36627232  0.50563830  0.75528672  1
  O  O279  1  0.86549707  0.00184247  0.25393799  1
  O  O280  1  0.87140295  0.01675011  0.74319881  1
  O  O281  1  0.85997902  0.49026068  0.24619433  1
  O  O282  1  0.85875968  0.49862200  0.74896756  1
  O  O283  1  0.11894355  0.36799325  0.36808902  1
  O  O284  1  0.11541711  0.37850899  0.86286656  1
  O  O285  1  0.12912662  0.86115962  0.36509906  1
  O  O286  1  0.12314806  0.87333811  0.86212166  1
  O  O287  1  0.61956092  0.36962700  0.36626089  1
  O  O288  1  0.61781205  0.37042166  0.86819775  1
  O  O289  1  0.61362643  0.86330999  0.38392999  1
  O  O290  1  0.61210017  0.86379308  0.87709092  1
  O  O291  1  0.37924382  0.12867318  0.12922468  1
  O  O292  1  0.38038883  0.13579324  0.63145170  1
  O  O293  1  0.37054763  0.63639343  0.13245563  1
  O  O294  1  0.37179371  0.63665986  0.62891402  1
  O  O295  1  0.86962682  0.14398215  0.13088521  1
  O  O296  1  0.88175566  0.13253817  0.63081431  1
  O  O297  1  0.88315212  0.62366942  0.12736204  1
  O  O298  1  0.88472306  0.63580210  0.61767950  1
  O  O299  1  0.25436654  0.25501482  0.11580473  1
  O  O300  1  0.25625099  0.25571040  0.61921867  1
  O  O301  1  0.26068743  0.74852326  0.13048081  1
  O  O302  1  0.26042394  0.75324511  0.61589892  1
  O  O303  1  0.76179938  0.25965524  0.13069970  1
  O  O304  1  0.76078265  0.25481294  0.61279815  1
  O  O305  1  0.75260285  0.73928565  0.12189966  1
  O  O306  1  0.76084632  0.75674281  0.61750341  1
  O  O307  1  0.24593967  0.24523700  0.37955661  1
  O  O308  1  0.25330649  0.24998128  0.88577065  1
  O  O309  1  0.24676426  0.74248759  0.37943528  1
  O  O310  1  0.24690986  0.73755664  0.87196959  1
  O  O311  1  0.74898996  0.24359802  0.37835279  1
  O  O312  1  0.74012984  0.26260969  0.87011097  1
  O  O313  1  0.73977681  0.75100262  0.37906139  1
  O  O314  1  0.73806987  0.74061174  0.88572176  1
  O  O315  1  0.00979746  0.13689511  0.00108139  1
  O  O316  1  0.00709211  0.11805767  0.50303393  1
  O  O317  1  0.01173218  0.61262582  0.01716094  1
  O  O318  1  0.00549062  0.61368040  0.50928646  1
  O  O319  1  0.49750281  0.11812650  0.00500759  1
  O  O320  1  0.50430520  0.11717330  0.50340668  1
  O  O321  1  0.50181882  0.61487933  -0.00738746  1
  O  O322  1  0.51369157  0.61739733  0.49669602  1
  O  O323  1  0.50934363  0.38377116  0.48654548  1
  O  O324  1  0.49256253  0.37682622  0.99084276  1
  O  O325  1  0.49666066  0.88146216  0.49548455  1
  O  O326  1  0.49023838  0.88313064  0.99331397  1
  O  O327  1  1.00660364  0.38545792  0.49288229  1
  O  O328  1  1.00325473  0.38146247  0.98578748  1
  O  O329  1  0.98944349  0.88332850  0.50507511  1
  O  O330  1  1.00588240  0.85683715  1.00429456  1
  O  O331  1  0.49502274  0.49352289  0.37968889  1
  O  O332  1  0.49347733  0.48754143  0.87001659  1
  O  O333  1  0.50066784  0.99240584  0.38442136  1
  O  O334  1  0.49866661  0.99260042  0.88513253  1
  O  O335  1  0.99939242  0.49130080  0.38130079  1
  O  O336  1  0.99870568  0.49619917  0.88324325  1
  O  O337  1  0.99271120  1.00489252  0.38270720  1
  O  O338  1  0.97682418  1.00681217  0.87958130  1
  O  O339  1  0.02521044  0.00828950  0.15887641  1
  O  O340  1  0.00112218  0.01049674  0.60917094  1
  O  O341  1  0.00581267  0.50089961  0.12268201  1
  O  O342  1  -0.00141589  0.50981001  0.61770472  1
  O  O343  1  0.49825939  0.01076690  0.11506397  1
  O  O344  1  0.50065086  0.00434250  0.61259538  1
  O  O345  1  0.51249566  0.48939441  0.12751816  1
  O  O346  1  0.49080695  0.49208612  0.60971455  1
  O  O347  1  0.24216078  0.37454879  0.24238866  1
  O  O348  1  0.23951079  0.38089262  0.74409272  1
  O  O349  1  0.24715363  0.88418643  0.25783821  1
  O  O350  1  0.24307594  0.88049685  0.74859600  1
  O  O351  1  0.73829493  0.38147724  0.24136025  1
  O  O352  1  0.74312085  0.38934944  0.74521608  1
  O  O353  1  0.74916384  0.89007066  0.25483553  1
  O  O354  1  0.75285400  0.87521666  0.73116116  1
  O  O355  1  0.25487295  0.11741861  0.25423911  1
  O  O356  1  0.25832087  0.11879054  0.75130517  1
  O  O357  1  0.26087784  0.62362357  0.26107000  1
  O  O358  1  0.25344335  0.61873543  0.75537956  1
  O  O359  1  0.75103124  0.11816046  0.26089143  1
  O  O360  1  0.75177745  0.12261266  0.73970713  1
  O  O361  1  0.74390531  0.60549160  0.25036686  1
  O  O362  1  0.74285438  0.61492312  0.75592328  1
  O  O363  1  0.37142251  0.12344885  0.36447194  1
  O  O364  1  0.37506033  0.13122060  0.86097387  1
  O  O365  1  0.36976046  0.62020077  0.36803472  1
  O  O366  1  0.36572418  0.62073793  0.86896514  1
  O  O367  1  0.86819544  0.11384898  0.37360575  1
  O  O368  1  0.86782946  0.13705174  0.84924844  1
  O  O369  1  0.86775241  0.61847364  0.37772672  1
  O  O370  1  0.85972140  0.62398051  0.87696223  1
  O  O371  1  0.12605485  0.38294857  0.12835235  1
  O  O372  1  0.13210860  0.37202192  0.63850417  1
  O  O373  1  0.13171615  0.88167400  0.14099255  1
  O  O374  1  0.12716607  0.87680704  0.63546158  1
  O  O375  1  0.62906787  0.37650170  0.13063155  1
  O  O376  1  0.62841959  0.36793362  0.63710395  1
  O  O377  1  0.61998623  0.87770891  0.12857956  1
  O  O378  1  0.64421871  0.87298911  0.62033563  1
  O  O379  1  0.11810819  0.25457760  0.25154086  1
  O  O380  1  0.13135297  0.26141788  0.75057876  1
  O  O381  1  0.11739360  0.75544856  0.25552830  1
  O  O382  1  0.12969740  0.76475246  0.75188727  1
  O  O383  1  0.62428164  0.25587728  0.25426544  1
  O  O384  1  0.61890159  0.25736398  0.75762229  1
  O  O385  1  0.61439074  0.74488722  0.25753328  1
  O  O386  1  0.61725022  0.75681261  0.75593647  1
  O  O387  1  0.37624994  0.24233913  0.24134806  1
  O  O388  1  0.38131915  0.24384597  0.74196878  1
  O  O389  1  0.38010213  0.74504169  0.24026419  1
  O  O390  1  0.37968399  0.74589448  0.74115540  1
  O  O391  1  0.88219668  0.25252809  0.24227038  1
  O  O392  1  0.86803949  0.24042311  0.73049811  1
  O  O393  1  0.88482422  0.74628165  0.25084567  1
  O  O394  1  0.88175655  0.75163769  0.73574481  1
  O  O395  1  0.38463599  0.50741260  0.48587252  1
  O  O396  1  0.37212096  0.49023369  0.99275455  1
  O  O397  1  0.38330423  0.99226097  0.49962193  1
  O  O398  1  0.37904430  0.98648756  1.00629180  1
  O  O399  1  0.89304198  0.49798176  0.49849470  1
  O  O400  1  0.88725850  0.49617594  1.00064829  1
  O  O401  1  0.88297617  0.99408272  0.49005294  1
  O  O402  1  0.90968328  0.99711245  1.05989962  1
  O  O403  1  0.11617946  0.00561125  0.01018394  1
  O  O404  1  0.11841032  0.00334132  0.49716201  1
  O  O405  1  0.11647581  0.50300366  0.00848722  1
  O  O406  1  0.10861719  0.50376759  0.49545653  1
  O  O407  1  0.61329947  0.01305451  -0.00097321  1
  O  O408  1  0.61948528  0.00693294  0.50116524  1
  O  O409  1  0.62286066  0.49436931  0.01641539  1
  O  O410  1  0.61907524  0.51422324  0.49799664  1
  O  O411  1  0.36940617  0.36959136  0.12014475  1
  O  O412  1  0.36312186  0.36150983  0.63239579  1
  O  O413  1  0.37416465  0.86357326  0.11232615  1
  O  O414  1  0.37614889  0.86692042  0.61316560  1
  O  O415  1  0.86448830  0.36655299  0.11952066  1
  O  O416  1  0.87674937  0.36180587  0.62890421  1
  O  O417  1  0.86108974  0.85165729  0.13672451  1
  O  O418  1  0.86912085  0.86776822  0.61582536  1
  O  O419  1  0.13039259  0.13131139  0.37886306  1
  O  O420  1  0.12598773  0.11605093  0.89185324  1
  O  O421  1  0.13594965  0.63472507  0.37320319  1
  O  O422  1  0.13084340  0.62736228  0.88598127  1
  O  O423  1  0.63185183  0.13092669  0.37894472  1
  O  O424  1  0.62377333  0.13460018  0.88728544  1
  O  O425  1  0.62787083  0.63499974  0.37989187  1
  O  O426  1  0.62711219  0.63671264  0.87113604  1
