# generated using pymatgen
data_V85Zn86O256
_symmetry_space_group_name_H-M   'P 1'
_cell_length_a   17.02879720
_cell_length_b   17.00548251
_cell_length_c   17.02071693
_cell_angle_alpha   90.01045926
_cell_angle_beta   89.91511733
_cell_angle_gamma   90.07262117
_symmetry_Int_Tables_number   1
_chemical_formula_structural   V85Zn86O256
_chemical_formula_sum   'V85 Zn86 O256'
_cell_volume   4928.89933838
_cell_formula_units_Z   1
loop_
 _symmetry_equiv_pos_site_id
 _symmetry_equiv_pos_as_xyz
  1  'x, y, z'
loop_
 _atom_site_type_symbol
 _atom_site_label
 _atom_site_symmetry_multiplicity
 _atom_site_fract_x
 _atom_site_fract_y
 _atom_site_fract_z
 _atom_site_occupancy
  V  V0  1  0.12988247  0.76396706  0.36445379  1
  V  V1  1  -0.01002021  -0.00268304  0.49856259  1
  V  V2  1  0.62458226  0.74889658  0.37582165  1
  V  V3  1  0.13178521  0.50135634  0.13799185  1
  V  V4  1  0.24655014  0.12998183  0.38268867  1
  V  V5  1  0.37282745  0.35975255  0.51093281  1
  V  V6  1  0.75959677  0.87500479  0.12072936  1
  V  V7  1  0.62241755  -0.00394415  0.12395173  1
  V  V8  1  0.12472629  0.00252147  0.11796860  1
  V  V9  1  0.49982048  -0.00289435  0.50218768  1
  V  V10  1  0.88646969  0.12378376  0.25190076  1
  V  V11  1  0.49323288  0.24352106  0.75162934  1
  V  V12  1  0.23991302  0.62154595  0.36856897  1
  V  V13  1  0.50173309  0.87587703  0.86797951  1
  V  V14  1  0.49968159  -0.00119874  -0.00037831  1
  V  V15  1  0.87178646  0.49785896  0.37498770  1
  V  V16  1  0.12362120  0.75288017  0.87646913  1
  V  V17  1  0.50432701  0.61163018  0.12367870  1
  V  V18  1  0.37518646  0.75632719  0.62477666  1
  V  V19  1  0.74912218  0.62523857  0.37605903  1
  V  V20  1  0.49913257  0.37299079  0.37688689  1
  V  V21  1  0.37350939  0.87366395  -0.00223195  1
  V  V22  1  0.74884186  0.50049318  0.74795358  1
  V  V23  1  0.75789034  0.01546989  0.76318157  1
  V  V24  1  0.12351000  0.88449254  0.75090621  1
  V  V25  1  0.62582329  0.62602794  0.50070456  1
  V  V26  1  0.25121033  0.12869248  0.87812697  1
  V  V27  1  0.49859260  0.74875399  0.75091848  1
  V  V28  1  0.87431857  0.62764073  0.24755683  1
  V  V29  1  0.62850785  0.37244228  0.75102690  1
  V  V30  1  0.37404906  0.61684532  0.25297003  1
  V  V31  1  0.13030873  0.62439433  0.00033050  1
  V  V32  1  0.87149449  0.37492217  0.49879868  1
  V  V33  1  0.49944592  0.87330861  0.37615398  1
  V  V34  1  0.87730336  0.49247464  0.87245162  1
  V  V35  1  0.24550034  0.89004238  0.62200839  1
  V  V36  1  0.24416448  0.87393077  0.12848636  1
  V  V37  1  -0.00181605  0.11811925  0.63521880  1
  V  V38  1  0.75310006  -0.00086181  0.24791685  1
  V  V39  1  0.75119828  0.87620290  0.64058928  1
  V  V40  1  -0.05259659  0.06855255  0.07118701  1
  V  V41  1  0.74919330  0.12541456  0.36928904  1
  V  V42  1  0.88149990  0.75321061  0.62227797  1
  V  V43  1  0.37516338  -0.00272665  0.37626035  1
  V  V44  1  0.88040272  0.26377761  0.12358953  1
  V  V45  1  0.62289304  0.61322290  0.00238144  1
  V  V46  1  0.13138761  0.13924707  0.00394366  1
  V  V47  1  0.25305504  0.37739299  0.13419808  1
  V  V48  1  0.50185623  0.12406078  0.12523457  1
  V  V49  1  -0.00004044  0.62579460  0.12441134  1
  V  V50  1  0.87777071  0.62625346  0.74467323  1
  V  V51  1  0.37264842  0.36922507  -0.00084535  1
  V  V52  1  0.62639860  -0.00401581  0.63391004  1
  V  V53  1  0.75050608  0.62522748  0.87439449  1
  V  V54  1  0.62542783  0.75204168  0.87051355  1
  V  V55  1  0.49081193  0.12425093  0.62862671  1
  V  V56  1  0.87291108  0.24368552  0.63033288  1
  V  V57  1  0.00102640  0.25794530  0.75412878  1
  V  V58  1  0.75451632  0.76350794  0.49918680  1
  V  V59  1  0.62265224  0.37652402  0.24307775  1
  V  V60  1  0.37381345  0.12180436  0.25178924  1
  V  V61  1  0.50048068  0.49895195  0.49877495  1
  V  V62  1  0.18295660  0.30549045  0.80993539  1
  V  V63  1  -0.00854109  0.88983347  0.88707211  1
  V  V64  1  0.25640203  0.00823365  0.75234655  1
  V  V65  1  0.75031931  0.24684713  0.49847072  1
  V  V66  1  0.19527733  0.70527609  0.54915017  1
  V  V67  1  0.75452429  0.75278444  -0.00170824  1
  V  V68  1  0.00670598  0.25285545  0.25331759  1
  V  V69  1  0.12215740  0.12160043  0.50993479  1
  V  V70  1  0.49973131  0.37734873  0.88216547  1
  V  V71  1  0.62408340  0.24868898  0.37277950  1
  V  V72  1  0.63729237  0.24612924  0.88033006  1
  V  V73  1  0.36769832  0.24579060  0.12300130  1
  V  V74  1  0.50133890  0.62620900  0.62978910  1
  V  V75  1  0.32659426  0.56726707  0.70267436  1
  V  V76  1  0.24003337  -0.00338865  0.25378598  1
  V  V77  1  0.37708192  0.50576301  0.89199373  1
  V  V78  1  0.62614574  0.49924791  0.62601509  1
  V  V79  1  0.00200302  0.49472698  0.00061245  1
  V  V80  1  0.74553253  0.49910418  0.23926092  1
  V  V81  1  0.37695357  0.74845272  0.12599545  1
  V  V82  1  0.62485590  0.87258980  0.24743604  1
  V  V83  1  0.00611685  0.51012016  0.50125693  1
  V  V84  1  0.50025695  0.74776905  0.24845365  1
  Zn  Zn85  1  0.62545213  0.12852134  -0.00697105  1
  Zn  Zn86  1  0.01643187  0.37761243  0.86751416  1
  Zn  Zn87  1  0.36700322  0.49293503  0.37307095  1
  Zn  Zn88  1  0.36713098  0.86893190  0.49661461  1
  Zn  Zn89  1  0.49925419  0.24812550  0.24980801  1
  Zn  Zn90  1  0.87911570  0.75186521  0.11735405  1
  Zn  Zn91  1  0.25080043  0.75115791  -0.00029261  1
  Zn  Zn92  1  0.20529587  0.29071373  0.55674901  1
  Zn  Zn93  1  0.00592343  0.75391863  0.24658816  1
  Zn  Zn94  1  0.37804216  0.00811913  0.87387040  1
  Zn  Zn95  1  0.86806623  0.36884536  -0.00988939  1
  Zn  Zn96  1  -0.01295008  0.87032061  0.37540643  1
  Zn  Zn97  1  0.12630302  0.25116704  0.38051817  1
  Zn  Zn98  1  0.73730988  0.36674219  0.11467084  1
  Zn  Zn99  1  0.86833334  -0.01215488  0.37943202  1
  Zn  Zn100  1  -0.00085753  0.75429929  0.75154597  1
  Zn  Zn101  1  0.62538994  0.12232564  0.50087100  1
  Zn  Zn102  1  0.00737657  0.37684813  0.37602194  1
  Zn  Zn103  1  0.03694386  0.58931769  0.64554056  1
  Zn  Zn104  1  0.25848361  0.62582399  0.87914857  1
  Zn  Zn105  1  0.13430332  0.37716834  0.26021331  1
  Zn  Zn106  1  0.74759139  0.37067242  0.62479932  1
  Zn  Zn107  1  0.18726711  0.18469637  0.19055808  1
  Zn  Zn108  1  0.16331789  0.44284654  0.67914371  1
  Zn  Zn109  1  0.19061047  0.68725589  0.18871383  1
  Zn  Zn110  1  0.16457716  0.65605536  0.72181491  1
  Zn  Zn111  1  0.73768400  0.14532435  0.13017951  1
  Zn  Zn112  1  0.67792439  0.18591111  0.68384321  1
  Zn  Zn113  1  0.68814095  0.68692072  0.18392641  1
  Zn  Zn114  1  0.68878106  0.68963047  0.68790842  1
  Zn  Zn115  1  0.31632471  0.30811175  0.31328748  1
  Zn  Zn116  1  0.31499953  0.29775850  0.68660978  1
  Zn  Zn117  1  0.31038300  0.80908082  0.31165066  1
  Zn  Zn118  1  0.30946467  0.81185489  0.80933847  1
  Zn  Zn119  1  0.81095841  0.31125579  0.30563368  1
  Zn  Zn120  1  0.81548130  0.19454723  0.80997681  1
  Zn  Zn121  1  0.81582551  0.81289655  0.31043731  1
  Zn  Zn122  1  0.81627360  0.81427557  0.81256408  1
  Zn  Zn123  1  0.18497541  0.43675551  0.44742087  1
  Zn  Zn124  1  0.19778299  0.44000968  0.94616173  1
  Zn  Zn125  1  0.18225738  0.94581662  0.44200570  1
  Zn  Zn126  1  0.18590513  0.93997760  0.93696835  1
  Zn  Zn127  1  0.68724623  0.43669033  0.43443912  1
  Zn  Zn128  1  0.69099757  0.43315371  0.93520925  1
  Zn  Zn129  1  0.68512377  0.93743899  0.43742915  1
  Zn  Zn130  1  0.68481022  0.93432029  0.93659136  1
  Zn  Zn131  1  0.30987458  0.06188703  0.05985964  1
  Zn  Zn132  1  0.27964475  0.11601936  0.60431058  1
  Zn  Zn133  1  0.31350238  0.56083254  0.06627059  1
  Zn  Zn134  1  0.31274586  0.55663613  0.53978484  1
  Zn  Zn135  1  0.80407745  0.07312764  -0.05064152  1
  Zn  Zn136  1  0.81101558  0.06364109  0.56530590  1
  Zn  Zn137  1  0.81260422  0.55907562  0.05823327  1
  Zn  Zn138  1  0.81236810  0.56520431  0.56195453  1
  Zn  Zn139  1  0.43721317  0.43548269  0.18912154  1
  Zn  Zn140  1  0.44764896  0.43042638  0.68792835  1
  Zn  Zn141  1  0.43248467  0.93587865  0.18814686  1
  Zn  Zn142  1  0.43299124  0.93918362  0.68759322  1
  Zn  Zn143  1  0.94416065  0.43956036  0.19360043  1
  Zn  Zn144  1  0.93356858  0.43006254  0.68585754  1
  Zn  Zn145  1  0.93893273  0.93066328  0.19627497  1
  Zn  Zn146  1  0.93582502  0.93715219  0.69092570  1
  Zn  Zn147  1  0.06330205  0.05891437  0.31788885  1
  Zn  Zn148  1  0.06667845  0.06717273  0.81752089  1
  Zn  Zn149  1  0.05872577  0.56667047  0.31660501  1
  Zn  Zn150  1  0.06196471  0.56225120  0.81783862  1
  Zn  Zn151  1  0.56355150  0.06147072  0.31053082  1
  Zn  Zn152  1  0.56721175  0.06296666  0.81119386  1
  Zn  Zn153  1  0.56163650  0.55981377  0.31195650  1
  Zn  Zn154  1  0.55869561  0.56264788  0.81471877  1
  Zn  Zn155  1  0.43965794  0.18090934  0.43937112  1
  Zn  Zn156  1  0.43699885  0.18972753  0.93539466  1
  Zn  Zn157  1  0.43422759  0.68681982  0.43827755  1
  Zn  Zn158  1  0.44274930  0.68955552  0.94240569  1
  Zn  Zn159  1  0.93752046  0.18435281  0.43660254  1
  Zn  Zn160  1  0.94688968  0.19292304  0.93749628  1
  Zn  Zn161  1  0.93986025  0.68929240  0.43798869  1
  Zn  Zn162  1  0.93995370  0.68590413  0.93419959  1
  Zn  Zn163  1  0.06292856  0.31582574  0.07072901  1
  Zn  Zn164  1  0.04813100  0.31475689  0.56425324  1
  Zn  Zn165  1  0.06323066  0.81355895  0.06049571  1
  Zn  Zn166  1  0.05955458  0.82485002  0.56687630  1
  Zn  Zn167  1  0.55707521  0.30851173  0.06081961  1
  Zn  Zn168  1  0.56139021  0.30866222  0.56420212  1
  Zn  Zn169  1  0.56491956  0.80782713  0.05876635  1
  Zn  Zn170  1  0.56566943  0.81547797  0.56445106  1
  O  O171  1  0.13328855  0.11519015  0.11713248  1
  O  O172  1  0.11219754  0.12173754  0.61070558  1
  O  O173  1  0.12074579  0.62009092  0.12058876  1
  O  O174  1  0.13289685  0.65192811  0.60950391  1
  O  O175  1  0.60832362  0.11448181  0.12979809  1
  O  O176  1  0.61561496  0.11102348  0.62222381  1
  O  O177  1  0.61924597  0.62819357  0.11147498  1
  O  O178  1  0.62126184  0.62055239  0.61863120  1
  O  O179  1  0.38731134  0.37313830  0.38119298  1
  O  O180  1  0.38369413  0.38560126  0.88861016  1
  O  O181  1  0.38032488  0.87769734  0.37635816  1
  O  O182  1  0.38093411  0.87173432  0.88758651  1
  O  O183  1  0.86959383  0.38752955  0.37724493  1
  O  O184  1  0.88364252  0.39148321  0.87363636  1
  O  O185  1  0.87083348  0.87376429  0.38223451  1
  O  O186  1  0.89340502  0.87058753  0.87155055  1
  O  O187  1  0.25331837  0.00533602  0.36876349  1
  O  O188  1  0.25414166  0.00510199  0.86958928  1
  O  O189  1  0.25185315  0.51862845  0.39034136  1
  O  O190  1  0.27226922  0.50234473  0.87930792  1
  O  O191  1  0.74516948  0.00524141  0.36179545  1
  O  O192  1  0.74684049  0.00183396  0.86746106  1
  O  O193  1  0.75545234  0.50677761  0.36795562  1
  O  O194  1  0.75941691  0.50687871  0.86702985  1
  O  O195  1  0.24257409  0.49241802  0.12581213  1
  O  O196  1  0.26629353  0.51496885  0.63931595  1
  O  O197  1  0.24420917  0.99330736  0.13296569  1
  O  O198  1  0.25245371  1.00295530  0.64346872  1
  O  O199  1  0.75335550  0.50088249  0.13824064  1
  O  O200  1  0.74248990  0.49883107  0.63032449  1
  O  O201  1  0.74099087  0.98824586  0.13864316  1
  O  O202  1  0.74385533  0.99496814  0.63216411  1
  O  O203  1  0.00664532  0.36825323  0.25712912  1
  O  O204  1  0.00606658  0.36753601  0.74635143  1
  O  O205  1  -0.00402061  0.86443351  0.26073910  1
  O  O206  1  0.01012871  0.87488759  0.75564308  1
  O  O207  1  0.50516481  0.37403287  0.26051687  1
  O  O208  1  0.51143129  0.36580854  0.75809938  1
  O  O209  1  0.50368119  0.86846791  0.25580647  1
  O  O210  1  0.49436570  0.87129573  0.76362662  1
  O  O211  1  0.49113600  0.12136743  0.24235349  1
  O  O212  1  0.50404171  0.13606305  0.74634499  1
  O  O213  1  0.49577901  0.62994158  0.24507436  1
  O  O214  1  0.50388698  0.63374549  0.74103825  1
  O  O215  1  0.99043648  0.12945666  0.25810716  1
  O  O216  1  1.00985822  0.13180156  0.73843904  1
  O  O217  1  0.99119900  0.62849770  0.24215750  1
  O  O218  1  0.99024204  0.63120320  0.74564509  1
  O  O219  1  0.38156417  0.25866008  0.01078375  1
  O  O220  1  0.38631501  0.26229189  0.50071083  1
  O  O221  1  0.37425257  0.75685733  0.00800768  1
  O  O222  1  0.38333371  0.75185760  0.51723692  1
  O  O223  1  0.89355344  0.25721109  0.02037305  1
  O  O224  1  0.86928725  0.25683847  0.50367823  1
  O  O225  1  0.85825454  0.73765854  -0.00151660  1
  O  O226  1  0.86291807  0.74075656  0.50945863  1
  O  O227  1  0.11734692  0.23396855  0.49816115  1
  O  O228  1  0.12053396  0.23810311  1.01086687  1
  O  O229  1  0.13141828  0.76107765  0.49429669  1
  O  O230  1  0.12801140  0.74002128  0.99616037  1
  O  O231  1  0.63149550  0.25048274  0.48897575  1
  O  O232  1  0.62110718  0.25133937  0.98438155  1
  O  O233  1  0.63215338  0.74506922  0.49586968  1
  O  O234  1  0.63485009  0.74184951  0.98901981  1
  O  O235  1  0.49121290  0.23832092  0.12799995  1
  O  O236  1  0.50930061  0.23914655  0.64048765  1
  O  O237  1  0.49536512  0.74323882  0.13085700  1
  O  O238  1  0.49504933  0.74715966  0.63071928  1
  O  O239  1  0.99355525  0.25620562  0.14341621  1
  O  O240  1  0.99027140  0.24234317  0.63255378  1
  O  O241  1  0.99913763  0.73745839  0.12283321  1
  O  O242  1  0.98493473  0.75681026  0.62342228  1
  O  O243  1  -0.00260646  0.25203854  0.36417483  1
  O  O244  1  -0.00363838  0.25821785  0.85844982  1
  O  O245  1  0.02000659  0.74738313  0.37939515  1
  O  O246  1  0.01341765  0.75267144  0.87572829  1
  O  O247  1  0.50718616  0.25501133  0.37592278  1
  O  O248  1  0.50646056  0.25720023  0.86607892  1
  O  O249  1  0.50515358  0.75317395  0.36967960  1
  O  O250  1  0.50627207  0.75621244  0.87139479  1
  O  O251  1  0.23096466  0.11141466  0.49602201  1
  O  O252  1  0.24219303  0.12550684  0.99389110  1
  O  O253  1  0.24999399  0.63812343  0.49164464  1
  O  O254  1  0.24024315  0.62586200  1.00248267  1
  O  O255  1  0.74643479  0.13067376  0.49086680  1
  O  O256  1  0.73116026  0.10912813  1.02502344  1
  O  O257  1  0.74222923  0.63183144  0.49430037  1
  O  O258  1  0.73990509  0.62903294  0.99448581  1
  O  O259  1  0.26553891  0.37766433  0.01656973  1
  O  O260  1  0.27066603  0.37233712  0.49466206  1
  O  O261  1  0.25927084  0.87569701  0.00742502  1
  O  O262  1  0.24961574  0.89169012  0.51745902  1
  O  O263  1  0.75897371  0.38787089  0.00770086  1
  O  O264  1  0.75771482  0.36826085  0.49845617  1
  O  O265  1  0.74403078  0.86564804  0.00885527  1
  O  O266  1  0.74270089  0.86518653  0.50895816  1
  O  O267  1  0.11873164  0.50166137  0.23995952  1
  O  O268  1  0.11979698  0.53932336  0.72316799  1
  O  O269  1  0.13614795  1.00602032  0.24183029  1
  O  O270  1  0.13708897  0.98842896  0.75930850  1
  O  O271  1  0.63401778  0.48892292  0.25743157  1
  O  O272  1  0.62671806  0.49395415  0.74603651  1
  O  O273  1  0.63051137  0.99184769  0.24413872  1
  O  O274  1  0.63989145  1.00414522  0.74333884  1
  O  O275  1  0.36616698  0.00388309  0.25656562  1
  O  O276  1  0.36079308  -0.00637829  0.75804676  1
  O  O277  1  0.38096304  0.51309217  0.25569390  1
  O  O278  1  0.38170201  0.50155546  0.75680066  1
  O  O279  1  0.86743448  0.00709335  0.25090468  1
  O  O280  1  0.85434951  -0.00055143  0.74647657  1
  O  O281  1  0.86916097  0.50890096  0.25650014  1
  O  O282  1  0.87090259  0.50634500  0.75312356  1
  O  O283  1  0.12656995  0.36981308  0.37704396  1
  O  O284  1  0.13550807  0.37184735  0.87641409  1
  O  O285  1  0.13138262  0.86411229  0.37532684  1
  O  O286  1  0.12040484  0.86862516  0.87006012  1
  O  O287  1  0.61402369  0.36998247  0.37201046  1
  O  O288  1  0.61761119  0.36924039  0.86956577  1
  O  O289  1  0.62003476  0.86732337  0.36746867  1
  O  O290  1  0.61279576  0.86403842  0.88077786  1
  O  O291  1  0.38160550  0.12819693  0.12823121  1
  O  O292  1  0.39299610  0.11173266  0.62506063  1
  O  O293  1  0.38231609  0.62826252  0.13266279  1
  O  O294  1  0.37744151  0.62690187  0.62878642  1
  O  O295  1  0.88775691  0.13321961  0.13186063  1
  O  O296  1  0.88440313  0.13552668  0.61933768  1
  O  O297  1  0.88415169  0.62254378  0.13042938  1
  O  O298  1  0.86511162  0.63433144  0.63792113  1
  O  O299  1  0.26369008  0.25427830  0.13145447  1
  O  O300  1  0.26067703  0.22481975  0.62464329  1
  O  O301  1  0.25744499  0.75800593  0.12519367  1
  O  O302  1  0.25489026  0.75966494  0.61546925  1
  O  O303  1  0.77604862  0.25413109  0.13422727  1
  O  O304  1  0.75481778  0.24722387  0.61773157  1
  O  O305  1  0.74941485  0.75771876  0.11483795  1
  O  O306  1  0.75384271  0.75984003  0.61977350  1
  O  O307  1  0.25399153  0.23223658  0.37466669  1
  O  O308  1  0.24408509  0.24144580  0.85903501  1
  O  O309  1  0.23816847  0.74142912  0.37347200  1
  O  O310  1  0.23936174  0.74887122  0.87875111  1
  O  O311  1  0.74305257  0.24447537  0.37634013  1
  O  O312  1  0.73477165  0.25646053  0.86934218  1
  O  O313  1  0.74381935  0.74423959  0.38319904  1
  O  O314  1  0.74345222  0.74590118  0.87825880  1
  O  O315  1  0.00886343  0.12190096  0.00685624  1
  O  O316  1  0.00419822  0.11837638  0.50607732  1
  O  O317  1  0.01052433  0.61683326  0.00602793  1
  O  O318  1  -0.00951674  0.61053917  0.50595365  1
  O  O319  1  0.50145535  0.11522773  0.00660860  1
  O  O320  1  0.50435590  0.11483355  0.50838902  1
  O  O321  1  0.51491758  0.62985126  0.00954372  1
  O  O322  1  0.50432890  0.61606100  0.50606074  1
  O  O323  1  0.49579173  0.37989425  0.49604236  1
  O  O324  1  0.49274570  0.37189155  0.98981937  1
  O  O325  1  0.50266736  0.87914790  0.49051512  1
  O  O326  1  0.49250723  0.87888354  0.99324569  1
  O  O327  1  0.98140567  0.38296040  0.49335519  1
  O  O328  1  1.00222780  0.38909259  1.00092675  1
  O  O329  1  1.00292584  0.89423406  0.49800537  1
  O  O330  1  1.00440233  0.87477024  0.98618331  1
  O  O331  1  0.49984524  0.49086911  0.38421474  1
  O  O332  1  0.48895452  0.48878263  0.87006698  1
  O  O333  1  0.49897418  0.99281885  0.38104604  1
  O  O334  1  0.49972365  0.99350590  0.88100901  1
  O  O335  1  0.98806881  0.50122914  0.38398890  1
  O  O336  1  0.99704585  0.49836308  0.88352317  1
  O  O337  1  0.99254645  1.00090760  0.38728896  1
  O  O338  1  1.00395493  0.98849613  0.87281266  1
  O  O339  1  0.00547684  0.00192552  0.12815405  1
  O  O340  1  -0.01034128  0.00950873  0.61602692  1
  O  O341  1  0.00689432  0.50969303  0.11990347  1
  O  O342  1  -0.01237107  0.49506982  0.60644652  1
  O  O343  1  0.49976087  0.00326905  0.11815174  1
  O  O344  1  0.50750515  -0.00038100  0.62109372  1
  O  O345  1  0.49902942  0.51279193  0.13059423  1
  O  O346  1  0.50619307  0.50547195  0.61828184  1
  O  O347  1  0.25519460  0.37267657  0.23967891  1
  O  O348  1  0.23635458  0.36661733  0.74473322  1
  O  O349  1  0.25824164  0.88468852  0.23967108  1
  O  O350  1  0.24397785  0.88331719  0.74241228  1
  O  O351  1  0.73953447  0.38304753  0.24770082  1
  O  O352  1  0.73401599  0.38405020  0.74685032  1
  O  O353  1  0.74352016  0.87781488  0.24202215  1
  O  O354  1  0.74824824  0.87935909  0.74294266  1
  O  O355  1  0.25593964  0.11528107  0.25977928  1
  O  O356  1  0.24526391  0.10856388  0.76152054  1
  O  O357  1  0.25812002  0.62559613  0.26141673  1
  O  O358  1  0.26868714  0.62976764  0.75910007  1
  O  O359  1  0.76182522  0.11374771  0.24366817  1
  O  O360  1  0.74967808  0.11861868  0.74737380  1
  O  O361  1  0.75355734  0.61825536  0.25470794  1
  O  O362  1  0.75410775  0.62004691  0.75686676  1
  O  O363  1  0.36931097  0.11509279  0.37392649  1
  O  O364  1  0.35824081  0.12446486  0.88619362  1
  O  O365  1  0.36440350  0.62620808  0.36837029  1
  O  O366  1  0.38155807  0.61066691  0.88668446  1
  O  O367  1  0.86439721  0.12394366  0.36480324  1
  O  O368  1  0.86985743  0.13388224  0.88418234  1
  O  O369  1  0.86995081  0.61789910  0.36739085  1
  O  O370  1  0.87198770  0.61920837  0.86191180  1
  O  O371  1  0.13685236  0.38466710  0.12936362  1
  O  O372  1  0.13678561  0.37488590  0.59540420  1
  O  O373  1  0.13855762  0.88050759  0.12015034  1
  O  O374  1  0.13461784  0.87310877  0.63806626  1
  O  O375  1  0.62035661  0.36500263  0.13970089  1
  O  O376  1  0.62389454  0.38082114  0.63265804  1
  O  O377  1  0.62889947  0.87750409  0.12985200  1
  O  O378  1  0.63306841  0.88798531  0.62421856  1
  O  O379  1  0.11890133  0.25060791  0.25468615  1
  O  O380  1  0.11649565  0.25439087  0.75442186  1
  O  O381  1  0.12613653  0.74884318  0.26146233  1
  O  O382  1  0.12235835  0.75589254  0.76134360  1
  O  O383  1  0.62082350  0.26143649  0.26678728  1
  O  O384  1  0.61956934  0.25723800  0.75845528  1
  O  O385  1  0.62024076  0.75287289  0.25500291  1
  O  O386  1  0.61986386  0.74474795  0.76407869  1
  O  O387  1  0.37940843  0.23896011  0.24324891  1
  O  O388  1  0.39594823  0.25692311  0.75569627  1
  O  O389  1  0.38098100  0.73891684  0.24535662  1
  O  O390  1  0.38204030  0.75603980  0.73591242  1
  O  O391  1  0.88326235  0.24212147  0.24422986  1
  O  O392  1  0.88188550  0.25331859  0.73620492  1
  O  O393  1  0.86915812  0.73397131  0.24381229  1
  O  O394  1  0.87534935  0.74240396  0.74159016  1
  O  O395  1  0.38924023  0.48750617  0.49626025  1
  O  O396  1  0.37919814  0.49337279  0.99592792  1
  O  O397  1  0.39368562  0.99205014  0.49122751  1
  O  O398  1  0.38561278  0.99110959  1.00003815  1
  O  O399  1  0.87064641  0.49327274  0.49028823  1
  O  O400  1  0.88733172  0.50614265  0.98856250  1
  O  O401  1  0.88607305  1.01006152  0.49690992  1
  O  O402  1  0.88490366  1.01513735  1.01892749  1
  O  O403  1  0.13036744  0.00537010  0.01499552  1
  O  O404  1  0.10645296  0.01369048  0.49486229  1
  O  O405  1  0.12103220  0.50762475  0.00831217  1
  O  O406  1  0.10493257  0.50557235  0.49479105  1
  O  O407  1  0.60922470  -0.00655219  0.00592313  1
  O  O408  1  0.61506706  -0.00065818  0.50664704  1
  O  O409  1  0.62716248  0.51551837  -0.00871732  1
  O  O410  1  0.61619074  0.50268522  0.50388761  1
  O  O411  1  0.37360751  0.36658223  0.12204254  1
  O  O412  1  0.37965484  0.37174455  0.61579235  1
  O  O413  1  0.36803083  0.87037691  0.11527215  1
  O  O414  1  0.36470082  0.87021799  0.62294290  1
  O  O415  1  0.87940405  0.36746004  0.13008847  1
  O  O416  1  0.86851787  0.36424098  0.61394346  1
  O  O417  1  0.86203453  0.87139216  0.12837735  1
  O  O418  1  0.86365537  0.86559689  0.62966571  1
  O  O419  1  0.13271542  0.12626602  0.38346607  1
  O  O420  1  0.13769387  0.11971728  0.89135303  1
  O  O421  1  0.13678298  0.63333016  0.37127059  1
  O  O422  1  0.13012884  0.63140008  0.88473605  1
  O  O423  1  0.62991499  0.13333948  0.37367834  1
  O  O424  1  0.62197848  0.14170297  0.87501842  1
  O  O425  1  0.62825152  0.63023803  0.38073858  1
  O  O426  1  0.62748354  0.63107919  0.88433789  1
