# generated using pymatgen
data_V85Zn86O256
_symmetry_space_group_name_H-M   'P 1'
_cell_length_a   16.94650386
_cell_length_b   16.94004830
_cell_length_c   16.94263785
_cell_angle_alpha   89.98589179
_cell_angle_beta   90.07415417
_cell_angle_gamma   90.06658424
_symmetry_Int_Tables_number   1
_chemical_formula_structural   V85Zn86O256
_chemical_formula_sum   'V85 Zn86 O256'
_cell_volume   4863.79337470
_cell_formula_units_Z   1
loop_
 _symmetry_equiv_pos_site_id
 _symmetry_equiv_pos_as_xyz
  1  'x, y, z'
loop_
 _atom_site_type_symbol
 _atom_site_label
 _atom_site_symmetry_multiplicity
 _atom_site_fract_x
 _atom_site_fract_y
 _atom_site_fract_z
 _atom_site_occupancy
  V  V0  1  0.87256464  0.00840209  0.37416874  1
  V  V1  1  0.01918598  0.50241503  0.00340943  1
  V  V2  1  0.24837224  0.49554894  0.75107430  1
  V  V3  1  0.37788004  0.88129714  0.49732091  1
  V  V4  1  0.25736825  0.87628785  0.12731545  1
  V  V5  1  0.37431369  0.62945904  0.24755294  1
  V  V6  1  0.75851300  0.00053600  0.74624238  1
  V  V7  1  0.02004983  0.37030006  0.37304613  1
  V  V8  1  0.49854091  0.62022519  0.61297493  1
  V  V9  1  0.37393661  -0.00178966  0.86999585  1
  V  V10  1  0.25944478  0.00145899  0.27162945  1
  V  V11  1  -0.00178004  0.87446477  0.37769349  1
  V  V12  1  0.62704897  0.87409479  0.74666061  1
  V  V13  1  0.00094106  0.75030140  0.24656388  1
  V  V14  1  0.62144711  0.49661094  0.61684128  1
  V  V15  1  0.87410878  0.87495456  0.50001036  1
  V  V16  1  0.11846469  0.24254780  0.87106840  1
  V  V17  1  0.87467688  0.87864182  -0.00662036  1
  V  V18  1  0.11220902  0.62238491  0.50492678  1
  V  V19  1  0.37131308  0.37541857  0.00233663  1
  V  V20  1  0.62733529  0.87763130  0.24115765  1
  V  V21  1  0.12294563  0.88058033  0.24907656  1
  V  V22  1  0.76014521  0.37512735  0.12581728  1
  V  V23  1  0.49707019  0.61817703  0.11821291  1
  V  V24  1  0.88079495  0.74282994  0.62345456  1
  V  V25  1  0.75078152  0.73543365  0.49725521  1
  V  V26  1  0.37530207  0.62344675  0.75134059  1
  V  V27  1  0.12384101  0.74954635  0.37781429  1
  V  V28  1  0.87209232  0.62763003  0.24842353  1
  V  V29  1  0.62207114  0.24764520  0.87555783  1
  V  V30  1  0.24056204  0.50517416  0.23575116  1
  V  V31  1  0.00114716  0.14266403  0.62761437  1
  V  V32  1  0.63082896  0.74482641  0.37303324  1
  V  V33  1  0.23540921  0.74725765  0.00275899  1
  V  V34  1  0.87972349  0.14727537  0.74237557  1
  V  V35  1  0.75503590  0.25717632  0.51441391  1
  V  V36  1  0.74847692  0.74768764  -0.00026021  1
  V  V37  1  0.62416248  -0.00056584  0.62043440  1
  V  V38  1  0.12558955  0.12547287  0.48875138  1
  V  V39  1  0.36872419  0.24983010  0.62826052  1
  V  V40  1  0.49965122  0.25014145  0.25046767  1
  V  V41  1  0.37985314  0.86391107  0.00343370  1
  V  V42  1  0.37655477  0.25203182  0.12401850  1
  V  V43  1  0.74890760  0.12335582  0.87295042  1
  V  V44  1  0.23652550  0.62817965  0.87936771  1
  V  V45  1  0.50080794  0.37850890  0.88091754  1
  V  V46  1  0.49666321  0.11853669  0.62004065  1
  V  V47  1  0.37652102  0.50152245  0.88123681  1
  V  V48  1  0.62554316  0.74937637  0.87127894  1
  V  V49  1  0.24733912  0.24816306  0.48377261  1
  V  V50  1  0.88042884  0.62258752  0.74729692  1
  V  V51  1  0.50223789  0.74739732  0.74750390  1
  V  V52  1  0.75215548  0.87347531  0.62125027  1
  V  V53  1  0.63035938  0.25227915  0.37626746  1
  V  V54  1  0.24443607  0.11807207  0.87134546  1
  V  V55  1  0.20137803  0.32830360  0.17682937  1
  V  V56  1  0.50252077  -0.00205059  0.00092504  1
  V  V57  1  0.62673569  0.12070474  0.00629709  1
  V  V58  1  0.49878470  0.12035457  0.12721934  1
  V  V59  1  0.49734008  0.75189123  0.24313916  1
  V  V60  1  0.75179211  0.00785866  0.23992866  1
  V  V61  1  0.62604883  0.37394145  0.74618469  1
  V  V62  1  0.62389048  0.37869416  0.24611615  1
  V  V63  1  0.00376558  0.87720898  0.87519571  1
  V  V64  1  0.37776872  0.38317459  0.50397784  1
  V  V65  1  0.24170579  0.24212713  -0.00055494  1
  V  V66  1  0.24942791  0.75012667  0.50195240  1
  V  V67  1  0.24972497  0.62185089  0.37780506  1
  V  V68  1  0.37480625  0.75003777  0.62562620  1
  V  V69  1  0.74836865  0.50693492  0.25319002  1
  V  V70  1  0.49734813  0.24659910  0.75031670  1
  V  V71  1  0.01414418  0.62544472  0.11919925  1
  V  V72  1  0.62488277  0.11948006  0.49565536  1
  V  V73  1  0.75031012  0.49518904  0.74730684  1
  V  V74  1  0.50312290  0.38667921  0.38066038  1
  V  V75  1  0.88244572  0.49963401  0.37781617  1
  V  V76  1  0.00026415  0.37132833  0.87186366  1
  V  V77  1  0.24910719  0.88274725  0.62872760  1
  V  V78  1  0.50104320  0.87890560  0.37726022  1
  V  V79  1  0.11302428  0.50216937  0.62458013  1
  V  V80  1  0.00953271  0.74554156  0.75181779  1
  V  V81  1  0.74968887  0.62498672  0.87412744  1
  V  V82  1  0.87424960  0.50003787  0.88376106  1
  V  V83  1  0.12907122  0.88199486  0.75302524  1
  V  V84  1  0.87749892  0.75173935  0.12158060  1
  Zn  Zn85  1  0.87526433  0.23011336  0.13099478  1
  Zn  Zn86  1  0.37818373  0.50482408  0.37899205  1
  Zn  Zn87  1  0.62237517  0.49810162  0.11406048  1
  Zn  Zn88  1  0.61678588  0.61910822  -0.00523302  1
  Zn  Zn89  1  0.43187300  0.04591271  0.42882776  1
  Zn  Zn90  1  0.87697647  0.37069446  0.00338672  1
  Zn  Zn91  1  0.75798343  0.13154391  0.37164957  1
  Zn  Zn92  1  -0.01034613  0.24986571  0.24901512  1
  Zn  Zn93  1  0.24634776  0.37486937  0.62481536  1
  Zn  Zn94  1  0.36438126  0.12890196  0.26385924  1
  Zn  Zn95  1  0.88711357  0.36714627  0.50913200  1
  Zn  Zn96  1  0.62471868  0.61604439  0.49170326  1
  Zn  Zn97  1  0.50026743  0.87434403  0.87326734  1
  Zn  Zn98  1  0.74927902  0.25132376  0.00294766  1
  Zn  Zn99  1  0.74765060  0.87804428  0.12086309  1
  Zn  Zn100  1  0.12681607  0.00414145  0.10332021  1
  Zn  Zn101  1  -0.00143168  0.00357062  0.50584339  1
  Zn  Zn102  1  0.00381116  0.11764499  0.11488853  1
  Zn  Zn103  1  0.11874873  0.36895926  0.74594530  1
  Zn  Zn104  1  0.89071994  0.01215945  0.87736927  1
  Zn  Zn105  1  0.37084972  0.11764773  0.74839072  1
  Zn  Zn106  1  0.12183186  0.00750669  0.63133379  1
  Zn  Zn107  1  0.14962426  0.15547151  0.20082951  1
  Zn  Zn108  1  0.18583776  0.18467525  0.69154960  1
  Zn  Zn109  1  0.19048036  0.69423238  0.18677995  1
  Zn  Zn110  1  0.19063523  0.68388013  0.68726975  1
  Zn  Zn111  1  0.68896854  0.18962741  0.18749637  1
  Zn  Zn112  1  0.68511694  0.18567482  0.68649105  1
  Zn  Zn113  1  0.68464946  0.68849620  0.18379950  1
  Zn  Zn114  1  0.69075629  0.68112430  0.68219784  1
  Zn  Zn115  1  0.31815342  0.31716889  0.31415108  1
  Zn  Zn116  1  0.30964724  0.30996439  0.81507370  1
  Zn  Zn117  1  0.31382505  0.81252313  0.31472629  1
  Zn  Zn118  1  0.31162921  0.81043502  0.81647995  1
  Zn  Zn119  1  0.81688753  0.31835513  0.31256207  1
  Zn  Zn120  1  0.80940312  0.31447235  0.81758658  1
  Zn  Zn121  1  0.81147537  0.81495716  0.31174333  1
  Zn  Zn122  1  0.81626429  0.81147366  0.81017873  1
  Zn  Zn123  1  0.19055679  0.44061694  0.44184065  1
  Zn  Zn124  1  0.18950403  0.43091210  0.93637350  1
  Zn  Zn125  1  0.18496418  0.93962272  0.44231437  1
  Zn  Zn126  1  0.19479071  0.92564362  0.93019208  1
  Zn  Zn127  1  0.69556379  0.43852444  0.43403770  1
  Zn  Zn128  1  0.68580150  0.44005388  0.94022585  1
  Zn  Zn129  1  0.68993436  0.93476604  0.43240290  1
  Zn  Zn130  1  0.68768349  0.93806359  0.93491201  1
  Zn  Zn131  1  0.31213527  0.06114406  0.06312403  1
  Zn  Zn132  1  0.30559001  0.06431510  0.56308825  1
  Zn  Zn133  1  0.31578736  0.56829002  0.06114528  1
  Zn  Zn134  1  0.30668650  0.56223597  0.56520508  1
  Zn  Zn135  1  0.82351738  0.06557321  0.05847468  1
  Zn  Zn136  1  0.81338500  0.06866857  0.55980581  1
  Zn  Zn137  1  0.81099263  0.56384248  0.06725589  1
  Zn  Zn138  1  0.83292746  0.53126318  0.57900065  1
  Zn  Zn139  1  0.43127286  0.44060803  0.19168786  1
  Zn  Zn140  1  0.43853143  0.43675856  0.69134905  1
  Zn  Zn141  1  0.43652201  0.93938559  0.18853684  1
  Zn  Zn142  1  0.43866612  0.93574876  0.68605696  1
  Zn  Zn143  1  0.94527321  0.43855317  0.19146677  1
  Zn  Zn144  1  0.93528270  0.42992511  0.68809388  1
  Zn  Zn145  1  0.93332018  0.94613184  0.18133047  1
  Zn  Zn146  1  0.94331299  0.94077630  0.68598783  1
  Zn  Zn147  1  0.05283506  0.05580654  0.30495945  1
  Zn  Zn148  1  0.06687055  0.05451931  0.94727129  1
  Zn  Zn149  1  0.06058674  0.56302843  0.31113032  1
  Zn  Zn150  1  0.06078528  0.55837275  0.81185902  1
  Zn  Zn151  1  0.56904286  0.06310054  0.30677631  1
  Zn  Zn152  1  0.56205348  0.05960954  0.81062427  1
  Zn  Zn153  1  0.56258051  0.56456527  0.30811655  1
  Zn  Zn154  1  0.56129913  0.56096777  0.81069401  1
  Zn  Zn155  1  0.44141823  0.20730454  0.44048794  1
  Zn  Zn156  1  0.43458955  0.18483813  0.93770070  1
  Zn  Zn157  1  0.43725288  0.69488885  0.43380453  1
  Zn  Zn158  1  0.43519703  0.68784803  0.93387182  1
  Zn  Zn159  1  0.94223670  0.19344389  0.43641754  1
  Zn  Zn160  1  0.93240918  0.19014746  0.94379166  1
  Zn  Zn161  1  0.93400489  0.68400323  0.43488606  1
  Zn  Zn162  1  0.94192076  0.68832327  0.93555154  1
  Zn  Zn163  1  0.05628173  0.30735760  0.06012552  1
  Zn  Zn164  1  0.06516195  0.31756393  0.55447926  1
  Zn  Zn165  1  0.06476073  0.83119036  0.06035732  1
  Zn  Zn166  1  0.06155592  0.81178517  0.56527499  1
  Zn  Zn167  1  0.56338425  0.31126627  0.06122070  1
  Zn  Zn168  1  0.56208544  0.30875226  0.56320236  1
  Zn  Zn169  1  0.56253433  0.80735771  0.06206037  1
  Zn  Zn170  1  0.56335488  0.80951375  0.55917666  1
  O  O171  1  0.12683814  0.11885320  0.09731617  1
  O  O172  1  0.11619560  0.12654176  0.62271246  1
  O  O173  1  0.11306580  0.63316568  0.12772276  1
  O  O174  1  0.13158314  0.61263180  0.61795087  1
  O  O175  1  0.61785074  0.12952109  0.11187169  1
  O  O176  1  0.61606996  0.12086339  0.61570005  1
  O  O177  1  0.60790650  0.62504484  0.12534427  1
  O  O178  1  0.61434632  0.61564500  0.62249673  1
  O  O179  1  0.38594824  0.37846497  0.38461881  1
  O  O180  1  0.38134941  0.38097713  0.88040655  1
  O  O181  1  0.38586860  0.86924834  0.38551020  1
  O  O182  1  0.37742103  0.88063453  0.88381977  1
  O  O183  1  0.87146675  0.39349825  0.38478636  1
  O  O184  1  0.88025966  0.38346417  0.87859932  1
  O  O185  1  0.87965120  0.87945561  0.38273877  1
  O  O186  1  0.88317353  0.87516518  0.87755062  1
  O  O187  1  0.25993782  -0.00852002  0.37067481  1
  O  O188  1  0.26181581  0.00571672  0.88291899  1
  O  O189  1  0.25165852  0.51305174  0.37053568  1
  O  O190  1  0.25607546  0.50611316  0.87059827  1
  O  O191  1  0.75780631  0.00252836  0.36729182  1
  O  O192  1  0.74608257  0.01160095  0.86335604  1
  O  O193  1  0.75838845  0.50145268  0.35996262  1
  O  O194  1  0.75534776  0.50432600  0.86649132  1
  O  O195  1  0.25276818  0.50935192  0.13677883  1
  O  O196  1  0.24575290  0.49713676  0.63773995  1
  O  O197  1  0.24902539  0.98536332  0.12484910  1
  O  O198  1  0.24915367  0.98575721  0.62684663  1
  O  O199  1  0.74539481  0.49462240  0.13514270  1
  O  O200  1  0.73513208  0.51008542  0.64298271  1
  O  O201  1  0.75238211  0.99777223  0.13761991  1
  O  O202  1  0.74545147  0.99603690  0.62951617  1
  O  O203  1  -0.00055344  0.37498903  0.26636630  1
  O  O204  1  -0.00004998  0.38243252  0.76661431  1
  O  O205  1  0.00797917  0.86814195  0.25689377  1
  O  O206  1  0.01092879  0.86593808  0.75107359  1
  O  O207  1  0.50558846  0.37179447  0.25662451  1
  O  O208  1  0.50517362  0.36783709  0.76134990  1
  O  O209  1  0.50570315  0.86960102  0.25375821  1
  O  O210  1  0.50900806  0.86489783  0.74752333  1
  O  O211  1  0.50394304  0.13221466  0.24025044  1
  O  O212  1  0.49921971  0.13045652  0.74040915  1
  O  O213  1  0.49206084  0.63260871  0.24464840  1
  O  O214  1  0.49376833  0.63056713  0.74207263  1
  O  O215  1  1.04092234  0.14565297  0.24442443  1
  O  O216  1  0.98077262  0.13201683  0.74242723  1
  O  O217  1  0.99531672  0.63162538  0.23923683  1
  O  O218  1  0.98817312  0.63019438  0.75752320  1
  O  O219  1  0.37003019  0.25549254  0.00625635  1
  O  O220  1  0.36356385  0.25913444  0.50972099  1
  O  O221  1  0.37591875  0.76202683  -0.00227127  1
  O  O222  1  0.36945037  0.75939476  0.50613344  1
  O  O223  1  0.86549448  0.25483745  0.00864749  1
  O  O224  1  0.85937648  0.25071438  0.49705703  1
  O  O225  1  0.86588040  0.75500601  0.00123757  1
  O  O226  1  0.86964843  0.75144187  0.50559733  1
  O  O227  1  0.14091052  0.24267828  0.50258159  1
  O  O228  1  0.13820444  0.25936619  0.98905568  1
  O  O229  1  0.13109480  0.74386196  0.49799490  1
  O  O230  1  0.13762097  0.75660689  1.00160817  1
  O  O231  1  0.62995847  0.24136143  0.49417951  1
  O  O232  1  0.62594811  0.23928249  0.99257475  1
  O  O233  1  0.63407801  0.74832751  0.49085629  1
  O  O234  1  0.63108105  0.74494040  0.99046339  1
  O  O235  1  0.49477739  0.24053849  0.12766803  1
  O  O236  1  0.48877656  0.23900552  0.62761000  1
  O  O237  1  0.50280864  0.74230124  0.13856460  1
  O  O238  1  0.49541671  0.74157185  0.62939767  1
  O  O239  1  0.99473380  0.24638369  0.12721913  1
  O  O240  1  1.00306204  0.24302819  0.61935679  1
  O  O241  1  0.99598861  0.74751933  0.12716333  1
  O  O242  1  0.98608713  0.75182353  0.63178919  1
  O  O243  1  0.00146795  0.26585316  0.37129905  1
  O  O244  1  0.00718744  0.25955878  0.88511781  1
  O  O245  1  0.00349585  0.75529268  0.36798453  1
  O  O246  1  -0.00635210  0.75849345  0.86012884  1
  O  O247  1  0.51432050  0.26522143  0.37074468  1
  O  O248  1  0.50326354  0.25449863  0.87012086  1
  O  O249  1  0.50726563  0.75948304  0.36400536  1
  O  O250  1  0.50787098  0.74942781  0.86553438  1
  O  O251  1  0.24029580  0.13798314  0.50417407  1
  O  O252  1  0.26270190  0.13617079  0.98943726  1
  O  O253  1  0.24528626  0.63103535  0.49300125  1
  O  O254  1  0.25385125  0.63966569  0.99589181  1
  O  O255  1  0.74139194  0.13668696  0.49514096  1
  O  O256  1  0.74165664  0.12011418  0.99009478  1
  O  O257  1  0.74645075  0.63585188  0.50652378  1
  O  O258  1  0.75012316  0.63552932  0.99381481  1
  O  O259  1  0.26562318  0.36341948  -0.00789061  1
  O  O260  1  0.25650153  0.36360803  0.50266921  1
  O  O261  1  0.26088296  0.86271029  0.00590604  1
  O  O262  1  0.25536325  0.86912666  0.50869617  1
  O  O263  1  0.74862402  0.37534737  0.01256270  1
  O  O264  1  0.74435520  0.35809631  0.49865081  1
  O  O265  1  0.75197899  0.86242168  -0.00257883  1
  O  O266  1  0.75656526  0.86634825  0.50463890  1
  O  O267  1  0.14210922  0.50843254  0.25040538  1
  O  O268  1  0.13272961  0.49993880  0.74151662  1
  O  O269  1  0.14128192  0.98363255  0.26557451  1
  O  O270  1  0.12733005  0.98011792  0.74917183  1
  O  O271  1  0.63131556  0.49433272  0.24772697  1
  O  O272  1  0.63004111  0.49132454  0.74579964  1
  O  O273  1  0.64010923  0.98935175  0.25476732  1
  O  O274  1  0.63483647  0.99490671  0.74143648  1
  O  O275  1  0.36243014  0.00241972  0.24956512  1
  O  O276  1  0.38165030  -0.00373385  0.76536063  1
  O  O277  1  0.36647192  0.51404722  0.25571934  1
  O  O278  1  0.36759094  0.50301621  0.75975740  1
  O  O279  1  0.85836555  -0.01111797  0.26040073  1
  O  O280  1  0.86372767  0.00040962  0.75110383  1
  O  O281  1  0.86873051  0.50908408  0.25452713  1
  O  O282  1  0.86798903  0.50572503  0.76126425  1
  O  O283  1  0.11888423  0.38159328  0.37584296  1
  O  O284  1  0.11635289  0.36690794  0.87246362  1
  O  O285  1  0.11841592  0.86819276  0.37486191  1
  O  O286  1  0.12142168  0.86445028  0.85826992  1
  O  O287  1  0.62214868  0.37323931  0.36576192  1
  O  O288  1  0.61715148  0.37005853  0.86754215  1
  O  O289  1  0.61977699  0.86428161  0.36698975  1
  O  O290  1  0.62500598  0.86577935  0.86558218  1
  O  O291  1  0.38206841  0.13630396  0.12635489  1
  O  O292  1  0.37970160  0.12958875  0.62640642  1
  O  O293  1  0.38601818  0.62641343  0.13410277  1
  O  O294  1  0.38069660  0.62827594  0.62975910  1
  O  O295  1  0.88473929  0.11449985  0.13315588  1
  O  O296  1  0.87884052  0.12566892  0.63598461  1
  O  O297  1  0.88359217  0.63275688  0.13066251  1
  O  O298  1  0.87014754  0.62889532  0.63650738  1
  O  O299  1  0.25953688  0.25816449  0.11640186  1
  O  O300  1  0.26109176  0.25153750  0.62735381  1
  O  O301  1  0.25139880  0.75986633  0.11357239  1
  O  O302  1  0.25731705  0.75547593  0.62062977  1
  O  O303  1  0.74763434  0.26312808  0.12512330  1
  O  O304  1  0.74415667  0.24947085  0.61299542  1
  O  O305  1  0.75580691  0.75175486  0.11434936  1
  O  O306  1  0.76018268  0.75369319  0.61894259  1
  O  O307  1  0.25560016  0.25174674  0.38595514  1
  O  O308  1  0.24475107  0.24008313  0.88226555  1
  O  O309  1  0.24447406  0.74046202  0.38003135  1
  O  O310  1  0.25525536  0.74133935  0.89062675  1
  O  O311  1  0.73816148  0.25164467  0.37672729  1
  O  O312  1  0.74078609  0.23722395  0.87443372  1
  O  O313  1  0.74243399  0.75352290  0.38324449  1
  O  O314  1  0.74512081  0.74510024  0.87857736  1
  O  O315  1  -0.02004060  0.10437421  -0.00561478  1
  O  O316  1  0.01247620  0.12872519  0.50646665  1
  O  O317  1  -0.00269673  0.61200857  0.00395134  1
  O  O318  1  0.01344350  0.63148085  0.49825455  1
  O  O319  1  0.50572248  0.11725423  0.00528365  1
  O  O320  1  0.50619312  0.12516905  0.50535889  1
  O  O321  1  0.49507526  0.63246380  0.01549108  1
  O  O322  1  0.49967319  0.62986408  0.50998489  1
  O  O323  1  0.49127711  0.36787886  0.49248612  1
  O  O324  1  0.49068546  0.36758460  0.98706540  1
  O  O325  1  0.49160636  0.86915899  0.49070355  1
  O  O326  1  0.49699122  0.88035160  1.00002494  1
  O  O327  1  1.00009393  0.37651280  0.48199155  1
  O  O328  1  0.99800956  0.38997538  0.99260655  1
  O  O329  1  0.99237560  0.87627444  0.49584092  1
  O  O330  1  0.98499030  0.86170809  0.98659961  1
  O  O331  1  0.50090549  0.49068172  0.37331626  1
  O  O332  1  0.48906751  0.49047333  0.86867429  1
  O  O333  1  0.50912045  0.98450848  0.37043624  1
  O  O334  1  0.49437887  0.99699393  0.88308390  1
  O  O335  1  0.98843832  0.49293147  0.36662762  1
  O  O336  1  0.99305608  0.49729201  0.88640833  1
  O  O337  1  0.99057422  0.99057046  0.37646265  1
  O  O338  1  1.00176708  0.98051516  0.86569604  1
  O  O339  1  0.02179053  0.00147224  0.15249527  1
  O  O340  1  0.00161176  0.01482240  0.62341108  1
  O  O341  1  -0.00235873  0.50795630  0.10994471  1
  O  O342  1  0.01542681  0.50378229  0.63505667  1
  O  O343  1  0.49542613  0.01287032  0.11876649  1
  O  O344  1  0.50574502  0.01125675  0.62841297  1
  O  O345  1  0.49871499  0.51536017  0.13224171  1
  O  O346  1  0.50814553  0.50915042  0.63221413  1
  O  O347  1  0.25942201  0.39076949  0.24338398  1
  O  O348  1  0.24813597  0.38673884  0.75281194  1
  O  O349  1  0.24909669  0.88051308  0.24491851  1
  O  O350  1  0.23740773  0.86160751  0.74296708  1
  O  O351  1  0.74056243  0.38499115  0.24400578  1
  O  O352  1  0.73794635  0.38310956  0.75653130  1
  O  O353  1  0.74118085  0.88120396  0.24705509  1
  O  O354  1  0.74690554  0.88101559  0.74193190  1
  O  O355  1  0.24575994  0.10337165  0.25097402  1
  O  O356  1  0.25273754  0.12526474  0.76643648  1
  O  O357  1  0.25557136  0.62256063  0.25552417  1
  O  O358  1  0.25728441  0.61718370  0.75842577  1
  O  O359  1  0.74082666  0.11102799  0.25384858  1
  O  O360  1  0.75502844  0.11860275  0.75198027  1
  O  O361  1  0.75858664  0.61933780  0.23991773  1
  O  O362  1  0.75887461  0.61946731  0.75712008  1
  O  O363  1  0.39034380  0.13233975  0.37449906  1
  O  O364  1  0.37013101  0.11410569  0.87279316  1
  O  O365  1  0.36719312  0.62573687  0.37088870  1
  O  O366  1  0.36987674  0.61609487  0.87112555  1
  O  O367  1  0.87813687  0.11200223  0.37999205  1
  O  O368  1  0.86465240  0.12677989  0.85903598  1
  O  O369  1  0.88298933  0.62249686  0.35318969  1
  O  O370  1  0.86926190  0.61889650  0.86893548  1
  O  O371  1  0.13461086  0.37467555  0.11996498  1
  O  O372  1  0.12642260  0.38724555  0.62710529  1
  O  O373  1  0.13740315  0.87254095  0.13846363  1
  O  O374  1  0.13292956  0.87362366  0.63351089  1
  O  O375  1  0.62584734  0.37586634  0.13620167  1
  O  O376  1  0.61380568  0.38116056  0.63828738  1
  O  O377  1  0.62525147  0.86970110  0.13724962  1
  O  O378  1  0.63110260  0.87944086  0.62624292  1
  O  O379  1  0.15534516  0.26714158  0.23907749  1
  O  O380  1  0.12959248  0.25172464  0.76694887  1
  O  O381  1  0.12351116  0.76046253  0.25860183  1
  O  O382  1  0.11168090  0.74905725  0.73903691  1
  O  O383  1  0.62006862  0.25831416  0.25705064  1
  O  O384  1  0.61882661  0.25603481  0.75383585  1
  O  O385  1  0.61984120  0.75667495  0.25561254  1
  O  O386  1  0.62307478  0.75254315  0.75092481  1
  O  O387  1  0.38049649  0.25031582  0.24107196  1
  O  O388  1  0.38001073  0.24794560  0.74395503  1
  O  O389  1  0.38262756  0.73930472  0.25594365  1
  O  O390  1  0.38128583  0.74455753  0.74559086  1
  O  O391  1  0.87296918  0.25396220  0.24529684  1
  O  O392  1  0.86689211  0.24564243  0.74601794  1
  O  O393  1  0.87934996  0.74681528  0.24198461  1
  O  O394  1  0.88031518  0.74094746  0.74117923  1
  O  O395  1  0.36792155  0.48678052  0.50119317  1
  O  O396  1  0.36975467  0.49231637  0.98971855  1
  O  O397  1  0.37351450  0.98691922  0.50742322  1
  O  O398  1  0.38718774  0.99234983  0.99315158  1
  O  O399  1  0.87347635  0.53025970  0.47207909  1
  O  O400  1  0.87215173  0.50127362  0.98893001  1
  O  O401  1  0.87322249  0.99284460  0.49235460  1
  O  O402  1  0.85853020  0.98146321  0.98867040  1
  O  O403  1  0.11440964  -0.03639527  -0.00375052  1
  O  O404  1  0.12630645  0.01458738  0.50727410  1
  O  O405  1  0.11716345  0.50039191  -0.00441836  1
  O  O406  1  0.13110815  0.50805857  0.51564283  1
  O  O407  1  0.61217691  0.00505742  -0.00520293  1
  O  O408  1  0.63296448  0.01190152  0.50248696  1
  O  O409  1  0.62060812  0.50608925  0.00009450  1
  O  O410  1  0.63205500  0.49722575  0.51289809  1
  O  O411  1  0.38614712  0.36413923  0.11572864  1
  O  O412  1  0.37624497  0.36684512  0.62092144  1
  O  O413  1  0.37039989  0.87775606  0.11634421  1
  O  O414  1  0.36904362  0.86903647  0.62074806  1
  O  O415  1  0.86347581  0.38585843  0.12572034  1
  O  O416  1  0.86583019  0.42298935  0.60435665  1
  O  O417  1  0.87354883  0.86912284  0.11289701  1
  O  O418  1  0.87144061  0.86654943  0.61922550  1
  O  O419  1  0.12176102  0.11871174  0.39169057  1
  O  O420  1  0.13347526  0.12945889  0.88329759  1
  O  O421  1  0.13069373  0.62939372  0.38251269  1
  O  O422  1  0.13781699  0.62211395  0.87009929  1
  O  O423  1  0.62327036  0.13542281  0.38165258  1
  O  O424  1  0.62900473  0.12712287  0.88187721  1
  O  O425  1  0.61801482  0.63925138  0.37536626  1
  O  O426  1  0.63066353  0.63306880  0.87130186  1
