# generated using pymatgen
data_V85Zn86O256
_symmetry_space_group_name_H-M   'P 1'
_cell_length_a   16.93044712
_cell_length_b   16.92270037
_cell_length_c   16.92561522
_cell_angle_alpha   90.01767531
_cell_angle_beta   89.99186667
_cell_angle_gamma   89.98251993
_symmetry_Int_Tables_number   1
_chemical_formula_structural   V85Zn86O256
_chemical_formula_sum   'V85 Zn86 O256'
_cell_volume   4849.33861654
_cell_formula_units_Z   1
loop_
 _symmetry_equiv_pos_site_id
 _symmetry_equiv_pos_as_xyz
  1  'x, y, z'
loop_
 _atom_site_type_symbol
 _atom_site_label
 _atom_site_symmetry_multiplicity
 _atom_site_fract_x
 _atom_site_fract_y
 _atom_site_fract_z
 _atom_site_occupancy
  V  V0  1  0.00083323  0.74605550  0.24449610  1
  V  V1  1  -0.00581577  -0.00253509  0.49811755  1
  V  V2  1  0.74783485  0.62859552  0.38677914  1
  V  V3  1  0.62718894  0.74779954  0.39097785  1
  V  V4  1  0.87576582  0.49746401  0.38805248  1
  V  V5  1  -0.00194597  0.50436487  0.00691453  1
  V  V6  1  0.48217650  0.73830506  0.75142776  1
  V  V7  1  0.48663528  0.61595746  0.61851753  1
  V  V8  1  0.37810707  0.36886862  0.00437886  1
  V  V9  1  0.64573367  0.38210253  0.74258711  1
  V  V10  1  0.75238512  0.50067127  0.25193250  1
  V  V11  1  0.87234402  0.50243568  0.86886811  1
  V  V12  1  0.12702505  0.12337368  0.48956662  1
  V  V13  1  0.36701051  0.00414530  0.37503874  1
  V  V14  1  0.75082951  -0.01235528  0.74708633  1
  V  V15  1  0.49919746  0.00528163  0.50082166  1
  V  V16  1  0.75903018  0.25874855  0.50241213  1
  V  V17  1  0.50400198  -0.00367538  -0.00137917  1
  V  V18  1  0.25634517  0.12467446  0.87081642  1
  V  V19  1  0.38415891  0.00103669  0.86907849  1
  V  V20  1  0.63849002  0.50924983  0.61762196  1
  V  V21  1  0.37583986  0.87175881  0.50315412  1
  V  V22  1  0.37672126  0.75210698  0.12572276  1
  V  V23  1  0.62391237  0.37597133  0.25132009  1
  V  V24  1  0.86932942  -0.00268896  0.36619098  1
  V  V25  1  -0.05506705  0.68342102  0.69360702  1
  V  V26  1  0.62867329  0.00119698  0.13173264  1
  V  V27  1  0.87017478  0.12332508  0.74480472  1
  V  V28  1  0.63138761  0.87467847  0.25418468  1
  V  V29  1  0.12106275  0.75439501  0.87140152  1
  V  V30  1  -0.00946187  0.25074534  0.24927601  1
  V  V31  1  0.25443335  0.00542618  0.74637011  1
  V  V32  1  0.00188273  0.37348083  0.87833200  1
  V  V33  1  0.37789013  0.87652978  -0.00375582  1
  V  V34  1  0.61111568  0.87280941  0.75745947  1
  V  V35  1  0.12847711  0.24774772  0.87412125  1
  V  V36  1  0.87874911  0.62283422  0.24771967  1
  V  V37  1  0.75273729  0.37168370  0.12709577  1
  V  V38  1  0.87809224  0.74531598  0.12453359  1
  V  V39  1  0.12759829  0.49929147  0.12454994  1
  V  V40  1  0.87718850  0.37030390  0.00727747  1
  V  V41  1  0.12396879  0.00154564  0.62279506  1
  V  V42  1  -0.00783783  0.13047598  0.12419468  1
  V  V43  1  -0.00157792  -0.00210883  -0.00315388  1
  V  V44  1  0.25234955  0.24693624  0.49470328  1
  V  V45  1  0.62345210  0.24963215  0.37960600  1
  V  V46  1  0.74744011  0.74419504  -0.00055597  1
  V  V47  1  0.49602814  0.12875342  0.12431126  1
  V  V48  1  0.49441165  0.25170260  0.24799271  1
  V  V49  1  0.12639349  0.00000982  0.12558192  1
  V  V50  1  0.24386859  0.37929763  0.62361503  1
  V  V51  1  0.74736726  0.12059554  0.37163851  1
  V  V52  1  0.37095490  0.62724539  0.25383396  1
  V  V53  1  0.50073260  0.87410460  0.37547462  1
  V  V54  1  0.25132408  0.49984087  0.25291934  1
  V  V55  1  0.50265035  0.37889829  0.86835882  1
  V  V56  1  0.37545018  0.24620812  0.63320934  1
  V  V57  1  0.86104983  0.86049087  0.51023616  1
  V  V58  1  0.12516170  0.38462099  0.74963383  1
  V  V59  1  0.12716902  0.62179423  0.51504766  1
  V  V60  1  0.36689637  0.12778244  0.25114573  1
  V  V61  1  0.37531464  0.50267173  0.86926898  1
  V  V62  1  0.74991340  0.87636258  0.12821155  1
  V  V63  1  0.74860432  0.62178398  0.85911360  1
  V  V64  1  0.12890760  0.24970357  0.37399164  1
  V  V65  1  0.12317491  0.62718766  0.00469034  1
  V  V66  1  0.00048635  0.24724198  0.74682591  1
  V  V67  1  0.75255308  0.24788335  0.00534074  1
  V  V68  1  0.87298228  0.87261476  -0.00370598  1
  V  V69  1  0.25245648  0.75035947  0.00127536  1
  V  V70  1  0.12604635  0.87350065  0.25010544  1
  V  V71  1  0.62896470  0.25074894  0.87219145  1
  V  V72  1  0.50023920  0.62627864  0.12451996  1
  V  V73  1  0.25325392  0.74583742  0.49650018  1
  V  V74  1  0.00803368  0.50390033  0.50574650  1
  V  V75  1  0.62566854  0.50143781  0.12492039  1
  V  V76  1  0.25097734  0.86996883  0.62485044  1
  V  V77  1  0.37596908  0.50438169  0.38123655  1
  V  V78  1  -0.00100216  0.37457115  0.37895483  1
  V  V79  1  0.12559193  0.12439049  -0.00175829  1
  V  V80  1  0.25425894  0.62613063  0.86825532  1
  V  V81  1  0.50034544  0.38206758  0.38451357  1
  V  V82  1  0.62825576  -0.00650148  0.62382488  1
  V  V83  1  -0.00154474  0.87215732  0.37498797  1
  V  V84  1  0.12722652  0.73755781  0.37321765  1
  Zn  Zn85  1  0.49471396  0.11969497  0.63804511  1
  Zn  Zn86  1  0.62530250  0.12701149  0.50586431  1
  Zn  Zn87  1  0.25670758  0.36675664  0.12676923  1
  Zn  Zn88  1  -0.01014702  0.86653171  0.86553377  1
  Zn  Zn89  1  0.11976100  0.87410521  0.74547785  1
  Zn  Zn90  1  0.25109071  0.50676420  0.74164029  1
  Zn  Zn91  1  0.85644872  0.27667974  0.63381719  1
  Zn  Zn92  1  0.62646913  0.12479287  -0.00079226  1
  Zn  Zn93  1  0.12768890  0.37209013  0.24689482  1
  Zn  Zn94  1  0.50028773  0.50136522  -0.00176760  1
  Zn  Zn95  1  0.61887808  0.75003372  0.87587292  1
  Zn  Zn96  1  0.50277074  0.75041192  0.25233164  1
  Zn  Zn97  1  0.25355281  0.87811792  0.12762200  1
  Zn  Zn98  1  0.25987845  0.24437835  0.00510227  1
  Zn  Zn99  1  0.37651325  0.37740624  0.50329715  1
  Zn  Zn100  1  -0.00554889  0.12646905  0.62043723  1
  Zn  Zn101  1  0.50172200  0.24759136  0.74965034  1
  Zn  Zn102  1  0.24573630  0.00409342  0.25493464  1
  Zn  Zn103  1  0.74990721  0.12202816  0.87437338  1
  Zn  Zn104  1  0.86614410  0.12401608  0.24456885  1
  Zn  Zn105  1  0.62441458  0.62513254  -0.00167267  1
  Zn  Zn106  1  0.87310448  -0.00088525  0.87188696  1
  Zn  Zn107  1  0.18403754  0.18936104  0.18562562  1
  Zn  Zn108  1  0.18714755  0.18815142  0.68310902  1
  Zn  Zn109  1  0.19033008  0.68559882  0.18571351  1
  Zn  Zn110  1  0.18576299  0.69020583  0.68834678  1
  Zn  Zn111  1  0.68370194  0.18834138  0.18936424  1
  Zn  Zn112  1  0.68404409  0.18297937  0.68599501  1
  Zn  Zn113  1  0.68965271  0.68932962  0.19286100  1
  Zn  Zn114  1  0.67519975  0.69833869  0.67694765  1
  Zn  Zn115  1  0.31372802  0.31621388  0.31259680  1
  Zn  Zn116  1  0.31184641  0.31691789  0.81336181  1
  Zn  Zn117  1  0.31128535  0.81420823  0.31425445  1
  Zn  Zn118  1  0.30944869  0.81778732  0.81438567  1
  Zn  Zn119  1  0.81209785  0.31312893  0.31830402  1
  Zn  Zn120  1  0.81724442  0.31318706  0.81742180  1
  Zn  Zn121  1  0.81189955  0.81063312  0.31681851  1
  Zn  Zn122  1  0.80795320  0.80432245  0.80280091  1
  Zn  Zn123  1  0.18838494  0.43510003  0.43469515  1
  Zn  Zn124  1  0.19223786  0.43740587  0.93824545  1
  Zn  Zn125  1  0.18605212  0.93297820  0.43634644  1
  Zn  Zn126  1  0.19257947  0.93823306  0.93859266  1
  Zn  Zn127  1  0.68858835  0.44121656  0.44312785  1
  Zn  Zn128  1  0.68884508  0.43809070  0.93745775  1
  Zn  Zn129  1  0.68855703  0.93661123  0.43984766  1
  Zn  Zn130  1  0.68820277  0.93670413  0.93517722  1
  Zn  Zn131  1  0.31365325  0.06438492  0.06236762  1
  Zn  Zn132  1  0.31131774  0.06513584  0.56023184  1
  Zn  Zn133  1  0.31382533  0.55927276  0.05883230  1
  Zn  Zn134  1  0.31139637  0.56442278  0.56268909  1
  Zn  Zn135  1  0.81104745  0.06108207  0.06156670  1
  Zn  Zn136  1  0.81006004  0.06421328  0.56044562  1
  Zn  Zn137  1  0.81388255  0.56122307  0.06283532  1
  Zn  Zn138  1  0.79496273  0.62332921  0.59542427  1
  Zn  Zn139  1  0.43885976  0.43977740  0.18959479  1
  Zn  Zn140  1  0.43616467  0.43742776  0.68548568  1
  Zn  Zn141  1  0.44109533  0.93922608  0.18874612  1
  Zn  Zn142  1  0.43773164  0.93485130  0.68576753  1
  Zn  Zn143  1  0.94013652  0.43739676  0.18939751  1
  Zn  Zn144  1  0.90239713  0.48255500  0.65843711  1
  Zn  Zn145  1  0.93920052  0.93570005  0.18475629  1
  Zn  Zn146  1  0.93793790  0.93271425  0.68545520  1
  Zn  Zn147  1  0.05698999  0.06294331  0.31082286  1
  Zn  Zn148  1  0.06137178  0.05778819  0.80878891  1
  Zn  Zn149  1  0.06155714  0.56062878  0.31109179  1
  Zn  Zn150  1  0.06266249  0.56276714  0.82021213  1
  Zn  Zn151  1  0.55928309  0.06284550  0.31302049  1
  Zn  Zn152  1  0.56478528  0.06713531  0.80919534  1
  Zn  Zn153  1  0.56204616  0.56590334  0.31363533  1
  Zn  Zn154  1  0.56543521  0.56345171  0.80558903  1
  Zn  Zn155  1  0.43571989  0.18873993  0.43770557  1
  Zn  Zn156  1  0.44318766  0.18632451  0.93181685  1
  Zn  Zn157  1  0.44026108  0.68704453  0.43972652  1
  Zn  Zn158  1  0.43981321  0.68774198  0.93500969  1
  Zn  Zn159  1  0.93556423  0.18541765  0.43592301  1
  Zn  Zn160  1  0.93504640  0.18539078  0.93350739  1
  Zn  Zn161  1  0.93983783  0.68383781  0.43782892  1
  Zn  Zn162  1  0.93623271  0.68391382  0.93215306  1
  Zn  Zn163  1  0.06783116  0.31098790  0.06368380  1
  Zn  Zn164  1  0.01748080  0.35331798  0.59552746  1
  Zn  Zn165  1  0.06116949  0.81310586  0.06098004  1
  Zn  Zn166  1  0.05801961  0.81005099  0.56330272  1
  Zn  Zn167  1  0.56277033  0.31328580  0.06029358  1
  Zn  Zn168  1  0.56546924  0.31748040  0.56604579  1
  Zn  Zn169  1  0.56331666  0.81367947  0.06300632  1
  Zn  Zn170  1  0.55724530  0.80945143  0.57179585  1
  O  O171  1  0.11356250  0.11582974  0.12058369  1
  O  O172  1  0.12687655  0.11425278  0.61093294  1
  O  O173  1  0.13064783  0.61530399  0.11324566  1
  O  O174  1  0.12945511  0.62283605  0.61378893  1
  O  O175  1  0.61516503  0.11732305  0.12578666  1
  O  O176  1  0.61765556  0.11025153  0.62391532  1
  O  O177  1  0.61846882  0.61898710  0.12804487  1
  O  O178  1  0.61036853  0.61133718  0.63604269  1
  O  O179  1  0.38444880  0.38484312  0.37509890  1
  O  O180  1  0.38420108  0.37964442  0.88176778  1
  O  O181  1  0.38018823  0.88220437  0.38354498  1
  O  O182  1  0.37021220  0.88647905  0.88805732  1
  O  O183  1  0.88490907  0.38542972  0.37066125  1
  O  O184  1  0.88074677  0.38031788  0.88959455  1
  O  O185  1  0.88033997  0.88026514  0.38079102  1
  O  O186  1  0.87133245  0.87293473  0.88601404  1
  O  O187  1  0.26277874  -0.00369260  0.37571576  1
  O  O188  1  0.25760153  0.00582333  0.86605540  1
  O  O189  1  0.25794347  0.49555114  0.36026954  1
  O  O190  1  0.25711243  0.51013468  0.87588260  1
  O  O191  1  0.75649655  0.00774969  0.37781117  1
  O  O192  1  0.75130901  0.00149575  0.86399606  1
  O  O193  1  0.75667100  0.50603607  0.37094568  1
  O  O194  1  0.75772135  0.51303806  0.88398181  1
  O  O195  1  0.24484206  0.49752316  0.13255683  1
  O  O196  1  0.25160676  0.48428413  0.62362543  1
  O  O197  1  0.23627441  1.00158992  0.12535916  1
  O  O198  1  0.24653917  0.99389713  0.62840836  1
  O  O199  1  0.74399648  0.49367840  0.13134459  1
  O  O200  1  0.73865142  0.51845087  0.62139804  1
  O  O201  1  0.73659034  0.99422683  0.12068974  1
  O  O202  1  0.73934876  1.00338352  0.63217712  1
  O  O203  1  0.00440140  0.36753247  0.25740504  1
  O  O204  1  0.01214389  0.36237198  0.76446489  1
  O  O205  1  0.00716957  0.86801993  0.25400554  1
  O  O206  1  0.00994845  0.89410289  0.75917834  1
  O  O207  1  0.50409711  0.36780496  0.25582470  1
  O  O208  1  0.50272386  0.36992333  0.76096038  1
  O  O209  1  0.51006770  0.87412965  0.25777362  1
  O  O210  1  0.50706653  0.86645358  0.74810627  1
  O  O211  1  0.49288733  0.13260318  0.24367860  1
  O  O212  1  0.49829243  0.13407300  0.75124940  1
  O  O213  1  0.49047793  0.62636244  0.23944464  1
  O  O214  1  0.49478375  0.63364103  0.74700377  1
  O  O215  1  0.99577286  0.13220654  0.24118458  1
  O  O216  1  0.99127124  0.12935422  0.74929085  1
  O  O217  1  0.98688312  0.62965381  0.25418385  1
  O  O218  1  1.00703699  0.63636887  0.75844558  1
  O  O219  1  0.37997067  0.26454295  -0.00744159  1
  O  O220  1  0.36591646  0.25363439  0.50399271  1
  O  O221  1  0.37395877  0.75931341  0.00381275  1
  O  O222  1  0.36482999  0.75961296  0.49275766  1
  O  O223  1  0.86598634  0.25796425  -0.00423556  1
  O  O224  1  0.86203207  0.24549701  0.50164780  1
  O  O225  1  0.86973175  0.75468419  0.00428913  1
  O  O226  1  0.88231080  0.76227360  0.49459803  1
  O  O227  1  0.12975389  0.23924476  0.48499636  1
  O  O228  1  0.12305290  0.24210952  0.98611649  1
  O  O229  1  0.12888060  0.73941207  0.49278913  1
  O  O230  1  0.13257380  0.74371183  0.99863795  1
  O  O231  1  0.62861191  0.25038000  0.49038685  1
  O  O232  1  0.63516491  0.25170684  0.99216239  1
  O  O233  1  0.62100106  0.75903346  0.48975926  1
  O  O234  1  0.63327709  0.75018931  0.99716859  1
  O  O235  1  0.50760511  0.24145532  0.13493723  1
  O  O236  1  0.48472595  0.25302883  0.62230643  1
  O  O237  1  0.49488179  0.74338969  0.12772942  1
  O  O238  1  0.50273028  0.73635677  0.64142510  1
  O  O239  1  1.00715403  0.24116272  0.13441948  1
  O  O240  1  1.01209479  0.24252106  0.64262947  1
  O  O241  1  0.99188039  0.75398271  0.13291928  1
  O  O242  1  1.00276288  0.74154554  0.63236801  1
  O  O243  1  0.00473796  0.25569977  0.37039392  1
  O  O244  1  0.00860355  0.25075941  0.86820799  1
  O  O245  1  0.00796412  0.75320069  0.36583860  1
  O  O246  1  0.01752587  0.75223972  0.88747632  1
  O  O247  1  0.50673335  0.25679437  0.36958160  1
  O  O248  1  0.51520841  0.25926637  0.87666857  1
  O  O249  1  0.50862778  0.75613431  0.37404343  1
  O  O250  1  0.50240789  0.74435707  0.85956038  1
  O  O251  1  0.24188448  0.13685432  0.50038589  1
  O  O252  1  0.24322662  0.12290467  0.99004044  1
  O  O253  1  0.24036776  0.63484657  0.50185443  1
  O  O254  1  0.24402271  0.63081393  0.99361678  1
  O  O255  1  0.74531169  0.13256994  0.48727715  1
  O  O256  1  0.74888796  0.13463440  0.99915819  1
  O  O257  1  0.75447292  0.61772040  0.48358832  1
  O  O258  1  0.74821138  0.63740316  1.00443481  1
  O  O259  1  0.26789461  0.37313356  -0.00150408  1
  O  O260  1  0.24565487  0.36283859  0.50649901  1
  O  O261  1  0.26038150  0.87022261  0.00505760  1
  O  O262  1  0.25590364  0.86868057  0.50543216  1
  O  O263  1  0.75808455  0.36904817  0.00617358  1
  O  O264  1  0.75193743  0.35774531  0.49048060  1
  O  O265  1  0.75510944  0.86510686  0.00457197  1
  O  O266  1  0.76231046  0.87187601  0.49569667  1
  O  O267  1  0.13348970  0.50259860  0.24097799  1
  O  O268  1  0.12800893  0.48745921  0.76115517  1
  O  O269  1  0.12334461  0.99452620  0.24265499  1
  O  O270  1  0.13550205  1.00273562  0.73751327  1
  O  O271  1  0.63042018  0.49703559  0.24175897  1
  O  O272  1  0.62642792  0.48582303  0.74412523  1
  O  O273  1  0.61900833  0.99119762  0.24205756  1
  O  O274  1  0.62790031  0.98955431  0.74549240  1
  O  O275  1  0.37461396  0.00764461  0.25794988  1
  O  O276  1  0.36899080  -0.00691996  0.75935913  1
  O  O277  1  0.36909207  0.50745318  0.25508572  1
  O  O278  1  0.36893438  0.48982443  0.76539948  1
  O  O279  1  0.87979182  -0.00172401  0.26205922  1
  O  O280  1  0.86522781  0.00458058  0.74777630  1
  O  O281  1  0.87222509  0.50675543  0.25624218  1
  O  O282  1  0.87984839  0.49052949  0.77097615  1
  O  O283  1  0.11967049  0.36544423  0.36837883  1
  O  O284  1  0.12434323  0.36493792  0.87354802  1
  O  O285  1  0.11804012  0.86644555  0.36797489  1
  O  O286  1  0.12924922  0.86036038  0.88168363  1
  O  O287  1  0.61925032  0.37131665  0.36993831  1
  O  O288  1  0.62213561  0.37344653  0.86516692  1
  O  O289  1  0.62214426  0.86972339  0.36985768  1
  O  O290  1  0.62341116  0.87505627  0.86096332  1
  O  O291  1  0.38861635  0.11846922  0.13307886  1
  O  O292  1  0.37421102  0.14166567  0.61915835  1
  O  O293  1  0.38250461  0.62954745  0.12908970  1
  O  O294  1  0.38505712  0.61830829  0.62875584  1
  O  O295  1  0.88767507  0.11754797  0.12633506  1
  O  O296  1  0.87520973  0.12799127  0.63527864  1
  O  O297  1  0.86994554  0.63211441  0.13538033  1
  O  O298  1  0.89719574  0.60075225  0.64260390  1
  O  O299  1  0.24067990  0.25408325  0.11639780  1
  O  O300  1  0.25749887  0.25593282  0.61726942  1
  O  O301  1  0.25940427  0.75172004  0.11836711  1
  O  O302  1  0.24196405  0.76309742  0.61545099  1
  O  O303  1  0.74328166  0.25686587  0.11592389  1
  O  O304  1  0.74568595  0.24617173  0.60796275  1
  O  O305  1  0.75603125  0.75668441  0.11920032  1
  O  O306  1  0.76583595  0.72583908  0.62706132  1
  O  O307  1  0.24208282  0.25527000  0.38106853  1
  O  O308  1  0.24591942  0.24095996  0.87660309  1
  O  O309  1  0.24006119  0.75797318  0.38726259  1
  O  O310  1  0.24491879  0.74504130  0.88298926  1
  O  O311  1  0.74160970  0.24437037  0.38231194  1
  O  O312  1  0.74202863  0.25248785  0.88437485  1
  O  O313  1  0.74365528  0.73621966  0.37304947  1
  O  O314  1  0.74763604  0.73758599  0.88169333  1
  O  O315  1  0.00387240  0.11948290  0.00554426  1
  O  O316  1  0.00588759  0.11364870  0.49844916  1
  O  O317  1  0.01000418  0.61607359  -0.00384568  1
  O  O318  1  0.01841495  0.61876255  0.49149016  1
  O  O319  1  0.50136689  0.11594778  0.00764921  1
  O  O320  1  0.50064136  0.11269065  0.49953962  1
  O  O321  1  0.50224531  0.62363922  0.01262450  1
  O  O322  1  0.49668184  0.63008558  0.51889661  1
  O  O323  1  0.49876128  0.37159593  0.48719743  1
  O  O324  1  0.49495145  0.37757333  0.98879944  1
  O  O325  1  0.49150154  0.88196826  0.49777649  1
  O  O326  1  0.49439568  0.88825690  1.00457846  1
  O  O327  1  1.01413195  0.38529770  0.48263533  1
  O  O328  1  0.99470648  0.37862126  0.99831152  1
  O  O329  1  0.99915026  0.88460753  0.49340639  1
  O  O330  1  0.99025937  0.88208577  0.99783190  1
  O  O331  1  0.49113665  0.49250656  0.36701437  1
  O  O332  1  0.49539495  0.49519351  0.87521316  1
  O  O333  1  0.49232773  0.99323266  0.38261470  1
  O  O334  1  0.49123341  1.00665571  0.88332181  1
  O  O335  1  0.99439392  0.49285794  0.37552545  1
  O  O336  1  0.99586884  0.49361172  0.88933463  1
  O  O337  1  0.99193603  0.99358295  0.38038473  1
  O  O338  1  0.99889192  1.00213234  0.88965290  1
  O  O339  1  0.00759154  0.00412472  0.11473165  1
  O  O340  1  0.00865870  0.00326245  0.61437339  1
  O  O341  1  0.00870079  0.49749105  0.11465399  1
  O  O342  1  0.01459172  0.48973949  0.60474419  1
  O  O343  1  0.50964395  0.00649794  0.11869251  1
  O  O344  1  0.50246679  0.00017437  0.61560638  1
  O  O345  1  0.50873153  0.50815241  0.12548800  1
  O  O346  1  0.50371038  0.51039132  0.63118153  1
  O  O347  1  0.24940718  0.38428221  0.24494187  1
  O  O348  1  0.24049852  0.37424630  0.74267693  1
  O  O349  1  0.23982678  0.87884150  0.24791435  1
  O  O350  1  0.24595970  0.88525292  0.74064520  1
  O  O351  1  0.74475894  0.37955841  0.24712752  1
  O  O352  1  0.74445666  0.37434524  0.75024802  1
  O  O353  1  0.73969270  0.87150448  0.24609761  1
  O  O354  1  0.73876936  0.88310927  0.75179747  1
  O  O355  1  0.26354093  0.12466777  0.24499048  1
  O  O356  1  0.24848139  0.11405419  0.75423865  1
  O  O357  1  0.26379979  0.61808458  0.24463853  1
  O  O358  1  0.24410121  0.62439248  0.76344097  1
  O  O359  1  0.74977087  0.13257242  0.26433486  1
  O  O360  1  0.75519872  0.11573872  0.75029221  1
  O  O361  1  0.76026212  0.61884767  0.25683866  1
  O  O362  1  0.74439033  0.62559575  0.76241287  1
  O  O363  1  0.38215640  0.11572778  0.36446415  1
  O  O364  1  0.36401502  0.11651271  0.88078561  1
  O  O365  1  0.38244453  0.61876755  0.36439502  1
  O  O366  1  0.36512332  0.61600137  0.88365920  1
  O  O367  1  0.86612813  0.11478771  0.37221339  1
  O  O368  1  0.87151033  0.12214557  0.86093541  1
  O  O369  1  0.86610300  0.61960549  0.36828474  1
  O  O370  1  0.85988138  0.61667154  0.88167944  1
  O  O371  1  0.12729082  0.38914021  0.12478095  1
  O  O372  1  0.12968963  0.36535387  0.64072113  1
  O  O373  1  0.12472713  0.88359157  0.13079411  1
  O  O374  1  0.13277663  0.88704971  0.61912250  1
  O  O375  1  0.62880289  0.38268856  0.13186228  1
  O  O376  1  0.62503445  0.38509096  0.63768211  1
  O  O377  1  0.62888188  0.88123965  0.13423393  1
  O  O378  1  0.61797875  0.88583956  0.63752386  1
  O  O379  1  0.11474767  0.24514146  0.26203549  1
  O  O380  1  0.12261845  0.24983926  0.76158070  1
  O  O381  1  0.12215410  0.75299272  0.25320905  1
  O  O382  1  0.13312884  0.75532235  0.76804041  1
  O  O383  1  0.61547808  0.25476450  0.26166307  1
  O  O384  1  0.62836485  0.26333351  0.75527183  1
  O  O385  1  0.62381562  0.75953864  0.25885013  1
  O  O386  1  0.61733813  0.76331817  0.75256706  1
  O  O387  1  0.38675086  0.24379558  0.25617720  1
  O  O388  1  0.37197369  0.25442621  0.73539607  1
  O  O389  1  0.37586447  0.74413571  0.24555146  1
  O  O390  1  0.38407162  0.75662787  0.75273852  1
  O  O391  1  0.88696897  0.24813594  0.25571083  1
  O  O392  1  0.88242921  0.24389451  0.74902417  1
  O  O393  1  0.87973556  0.74296247  0.24599765  1
  O  O394  1  0.88683521  0.74419767  0.75155711  1
  O  O395  1  0.36544419  0.49796731  0.48419801  1
  O  O396  1  0.37867474  0.48933756  0.98916431  1
  O  O397  1  0.38007431  0.99553085  0.49369848  1
  O  O398  1  0.38240460  0.99456784  0.99468403  1
  O  O399  1  0.89045346  0.50694282  0.48784425  1
  O  O400  1  0.88319764  0.49364559  0.99794033  1
  O  O401  1  0.88120666  0.99537702  0.49072988  1
  O  O402  1  0.88091230  0.99041746  0.99903445  1
  O  O403  1  0.11859832  0.00341602  0.00565274  1
  O  O404  1  0.11917578  0.00479215  0.50122297  1
  O  O405  1  0.12068605  0.50642424  0.00474661  1
  O  O406  1  0.12555185  0.51719161  0.48738517  1
  O  O407  1  0.61840872  0.00013652  0.00684755  1
  O  O408  1  0.61587174  -0.00246361  0.50701731  1
  O  O409  1  0.62466286  0.50036240  0.01429906  1
  O  O410  1  0.62353451  0.49389278  0.51851491  1
  O  O411  1  0.38111724  0.38062028  0.10789511  1
  O  O412  1  0.36474160  0.36588317  0.62188343  1
  O  O413  1  0.37652358  0.87214679  0.11639722  1
  O  O414  1  0.36603020  0.88006525  0.61128788  1
  O  O415  1  0.87092726  0.37922447  0.11493647  1
  O  O416  1  0.90735291  0.37492751  0.62535299  1
  O  O417  1  0.86957429  0.86989123  0.11528610  1
  O  O418  1  0.87672062  0.87917651  0.60789824  1
  O  O419  1  0.12150098  0.12765088  0.38266882  1
  O  O420  1  0.13581002  0.12758566  0.87659217  1
  O  O421  1  0.12735287  0.63613915  0.37068239  1
  O  O422  1  0.13310713  0.63516939  0.88696018  1
  O  O423  1  0.62793710  0.13329816  0.37660822  1
  O  O424  1  0.62948756  0.13704853  0.87786011  1
  O  O425  1  0.63767803  0.63210636  0.37047290  1
  O  O426  1  0.63708110  0.62299616  0.87905991  1
