# generated using pymatgen
data_V85Zn86O256
_symmetry_space_group_name_H-M   'P 1'
_cell_length_a   16.92660197
_cell_length_b   16.92637419
_cell_length_c   16.92567878
_cell_angle_alpha   89.99770626
_cell_angle_beta   90.01771754
_cell_angle_gamma   90.00634479
_symmetry_Int_Tables_number   1
_chemical_formula_structural   V85Zn86O256
_chemical_formula_sum   'V85 Zn86 O256'
_cell_volume   4849.30823873
_cell_formula_units_Z   1
loop_
 _symmetry_equiv_pos_site_id
 _symmetry_equiv_pos_as_xyz
  1  'x, y, z'
loop_
 _atom_site_type_symbol
 _atom_site_label
 _atom_site_symmetry_multiplicity
 _atom_site_fract_x
 _atom_site_fract_y
 _atom_site_fract_z
 _atom_site_occupancy
  V  V0  1  0.11473743  0.50022903  0.61793364  1
  V  V1  1  0.25162419  0.12366946  0.37604099  1
  V  V2  1  0.87630870  0.00612730  0.37744384  1
  V  V3  1  -0.00738906  -0.00353349  -0.01231897  1
  V  V4  1  0.10836461  0.87477386  0.75262982  1
  V  V5  1  0.49826712  0.75114378  0.25993784  1
  V  V6  1  0.75350381  0.86588985  0.12252565  1
  V  V7  1  0.12382847  -0.00332328  0.62288681  1
  V  V8  1  0.25469778  0.50236219  0.24708885  1
  V  V9  1  0.87791796  0.62615485  0.24858985  1
  V  V10  1  0.37410009  0.74308993  0.13087349  1
  V  V11  1  0.74668944  0.25161217  0.49953138  1
  V  V12  1  0.00335025  0.37671141  0.37959349  1
  V  V13  1  0.62753628  0.62982633  0.00367289  1
  V  V14  1  0.24861375  0.24366309  -0.01249652  1
  V  V15  1  0.62353950  0.50114072  0.12869802  1
  V  V16  1  0.74552354  0.38335837  0.62632374  1
  V  V17  1  0.37481419  0.24990448  0.11917576  1
  V  V18  1  0.12583236  0.37220797  0.24876407  1
  V  V19  1  0.12576125  0.12428125  -0.01197570  1
  V  V20  1  0.49572957  0.49070696  -0.00070256  1
  V  V21  1  0.00431306  0.35931135  0.87418813  1
  V  V22  1  0.24876374  0.50148351  0.74789740  1
  V  V23  1  0.62066553  0.87047490  0.74802073  1
  V  V24  1  0.75294703  0.25205212  -0.00212342  1
  V  V25  1  0.62265713  0.38683147  0.74945471  1
  V  V26  1  0.75349811  0.62233870  0.87413417  1
  V  V27  1  0.37736770  -0.01375786  0.38010191  1
  V  V28  1  0.24870621  0.62780342  0.87527948  1
  V  V29  1  0.50073219  0.25844315  0.75217195  1
  V  V30  1  0.37590611  0.87295574  0.00037682  1
  V  V31  1  0.25691573  0.87081517  0.62461083  1
  V  V32  1  0.63192092  0.74754860  0.87544222  1
  V  V33  1  0.75444233  0.63557221  0.38067128  1
  V  V34  1  0.62668419  -0.00054959  0.12539017  1
  V  V35  1  0.87508756  0.74537703  0.64438952  1
  V  V36  1  0.00659144  0.75016323  0.25058369  1
  V  V37  1  0.49624636  0.37105472  0.37630416  1
  V  V38  1  0.75159310  0.37561998  0.12515964  1
  V  V39  1  -0.00006494  0.12728226  0.62727951  1
  V  V40  1  0.37509538  0.25097631  0.62386172  1
  V  V41  1  0.25382933  0.37200531  0.11698432  1
  V  V42  1  0.12168841  0.36384635  0.75141873  1
  V  V43  1  0.86729625  0.86376203  0.49811745  1
  V  V44  1  0.24946774  0.24967536  0.49861553  1
  V  V45  1  0.87899107  0.38059046  0.50314817  1
  V  V46  1  -0.00167640  0.62161267  0.11767813  1
  V  V47  1  0.00536062  0.87310434  0.37571333  1
  V  V48  1  0.88583322  0.50477838  0.86767644  1
  V  V49  1  0.87493701  0.12289839  0.75605531  1
  V  V50  1  0.50009405  0.12739090  0.62296995  1
  V  V51  1  0.75192158  0.13111938  0.36996345  1
  V  V52  1  0.74717180  0.00150921  0.75715919  1
  V  V53  1  0.24837734  0.37516007  0.62436567  1
  V  V54  1  0.24558165  0.74915414  -0.00051262  1
  V  V55  1  0.11068651  0.75436170  0.87305424  1
  V  V56  1  0.49742573  0.62321222  0.13589534  1
  V  V57  1  0.50309878  0.24668508  0.25285204  1
  V  V58  1  -0.00635448  0.24233632  0.24942821  1
  V  V59  1  0.88186490  0.50294494  0.37843759  1
  V  V60  1  0.75242754  0.50011247  0.25111907  1
  V  V61  1  0.62483547  0.12823147  0.49382065  1
  V  V62  1  0.12041802  0.49716810  0.11546540  1
  V  V63  1  0.37493379  0.48915720  0.87880170  1
  V  V64  1  0.49954104  0.12299588  0.12545470  1
  V  V65  1  0.63014008  0.75543178  0.38298442  1
  V  V66  1  0.62589826  0.00057859  0.62722676  1
  V  V67  1  0.25198348  0.75193835  0.49923146  1
  V  V68  1  0.87808050  0.25151283  0.63268042  1
  V  V69  1  0.11807329  0.62605926  0.49465502  1
  V  V70  1  0.88190633  0.38155889  0.00063061  1
  V  V71  1  0.37556803  0.50647727  0.37432363  1
  V  V72  1  0.62095042  0.25931803  0.87594284  1
  V  V73  1  0.62158487  0.87697183  0.25342613  1
  V  V74  1  0.25044154  0.63139452  0.37171086  1
  V  V75  1  0.62666261  0.37129825  0.25795507  1
  V  V76  1  0.62642328  0.12617908  -0.00202278  1
  V  V77  1  0.50019507  -0.00348956  0.00076423  1
  V  V78  1  0.37649328  0.64122370  0.74905220  1
  V  V79  1  0.49789873  -0.01450782  0.49694731  1
  V  V80  1  0.87283030  0.87208952  -0.01420082  1
  V  V81  1  0.75849456  0.00410174  0.24642897  1
  V  V82  1  0.50206056  0.86488270  0.87545428  1
  V  V83  1  0.24914096  0.00005076  0.24988764  1
  V  V84  1  0.24586174  0.87359002  0.12713795  1
  Zn  Zn85  1  0.74931533  0.50976446  0.74463398  1
  Zn  Zn86  1  0.87470553  0.74997041  0.12097663  1
  Zn  Zn87  1  0.51648063  0.62658175  0.63083392  1
  Zn  Zn88  1  0.11852787  0.62269721  -0.00262174  1
  Zn  Zn89  1  0.37067176  0.00537795  0.87418708  1
  Zn  Zn90  1  0.37512134  0.37939213  0.49922870  1
  Zn  Zn91  1  0.38272589  0.75301445  0.62084080  1
  Zn  Zn92  1  -0.00414141  0.11725835  0.12542992  1
  Zn  Zn93  1  0.87441063  0.24458233  0.12685527  1
  Zn  Zn94  1  0.36600074  0.12668400  0.75864303  1
  Zn  Zn95  1  0.62917504  0.62086781  0.50986130  1
  Zn  Zn96  1  0.50561478  0.50483471  0.51129709  1
  Zn  Zn97  1  0.12562107  0.24756325  0.37469686  1
  Zn  Zn98  1  -0.00300720  0.00013694  0.50065608  1
  Zn  Zn99  1  0.12126895  0.00129988  0.12352573  1
  Zn  Zn100  1  0.25053503  0.00303139  0.75602372  1
  Zn  Zn101  1  -0.00815227  0.62654149  0.63429702  1
  Zn  Zn102  1  0.74665753  0.87106414  0.61888474  1
  Zn  Zn103  1  0.37521579  0.12287138  0.24997235  1
  Zn  Zn104  1  0.12610301  0.87162854  0.25477760  1
  Zn  Zn105  1  0.74973214  0.12542492  0.87409221  1
  Zn  Zn106  1  0.12283899  0.12461346  0.50089118  1
  Zn  Zn107  1  0.18241054  0.18386016  0.18171008  1
  Zn  Zn108  1  0.18909560  0.18148562  0.69135706  1
  Zn  Zn109  1  0.18355929  0.68465175  0.18739458  1
  Zn  Zn110  1  0.15709971  0.67691420  0.69802336  1
  Zn  Zn111  1  0.68830684  0.18789520  0.18541729  1
  Zn  Zn112  1  0.68740391  0.19147981  0.68695204  1
  Zn  Zn113  1  0.68618821  0.68740128  0.19533454  1
  Zn  Zn114  1  0.69153960  0.69111056  0.68585111  1
  Zn  Zn115  1  0.31500561  0.31126109  0.30820099  1
  Zn  Zn116  1  0.31327028  0.31250188  0.80851806  1
  Zn  Zn117  1  0.31188935  0.80982127  0.31340384  1
  Zn  Zn118  1  0.29858261  0.83313648  0.82001216  1
  Zn  Zn119  1  0.81492804  0.31363825  0.31562137  1
  Zn  Zn120  1  0.81180244  0.31671765  0.81297077  1
  Zn  Zn121  1  0.81771035  0.81598825  0.30813818  1
  Zn  Zn122  1  0.80393697  0.81114928  0.81070704  1
  Zn  Zn123  1  0.18939230  0.43966241  0.43730993  1
  Zn  Zn124  1  0.18758061  0.43371777  0.93554613  1
  Zn  Zn125  1  0.18729007  0.93815777  0.44090668  1
  Zn  Zn126  1  0.18238321  0.93975478  0.93565517  1
  Zn  Zn127  1  0.69170846  0.43900940  0.43692631  1
  Zn  Zn128  1  0.68849147  0.44259552  0.93737286  1
  Zn  Zn129  1  0.68736758  0.94161238  0.43558608  1
  Zn  Zn130  1  0.68899169  0.93619926  0.93811303  1
  Zn  Zn131  1  0.31155095  0.06227224  0.06063502  1
  Zn  Zn132  1  0.31324682  0.06006163  0.56522545  1
  Zn  Zn133  1  0.31298737  0.56256664  0.06240596  1
  Zn  Zn134  1  0.31391440  0.56487774  0.56178800  1
  Zn  Zn135  1  0.81801013  0.06373613  0.06298473  1
  Zn  Zn136  1  0.81271946  0.06147642  0.56331111  1
  Zn  Zn137  1  0.81272571  0.56148014  0.05900297  1
  Zn  Zn138  1  0.81349983  0.56772399  0.56377498  1
  Zn  Zn139  1  0.43625248  0.43466631  0.18785595  1
  Zn  Zn140  1  0.43518530  0.44324889  0.68739742  1
  Zn  Zn141  1  0.43407797  0.93442296  0.18942241  1
  Zn  Zn142  1  0.43833775  0.93806791  0.69015987  1
  Zn  Zn143  1  0.93940400  0.43456820  0.18905615  1
  Zn  Zn144  1  0.93927539  0.43705552  0.69161113  1
  Zn  Zn145  1  0.93828711  0.93845337  0.18421255  1
  Zn  Zn146  1  0.93227234  0.93974671  0.68347921  1
  Zn  Zn147  1  0.06686836  0.06006393  0.31439238  1
  Zn  Zn148  1  0.06140855  0.06216022  0.80853559  1
  Zn  Zn149  1  0.06555464  0.56103347  0.30889496  1
  Zn  Zn150  1  0.06254366  0.56080646  0.81069857  1
  Zn  Zn151  1  0.56380267  0.06090740  0.31535070  1
  Zn  Zn152  1  0.53576905  0.07485906  0.82447977  1
  Zn  Zn153  1  0.57709367  0.55092364  0.34466526  1
  Zn  Zn154  1  0.55661330  0.56547044  0.81570884  1
  Zn  Zn155  1  0.43374560  0.18430562  0.43672304  1
  Zn  Zn156  1  0.43878991  0.19159442  0.93769556  1
  Zn  Zn157  1  0.43718037  0.68616684  0.44162473  1
  Zn  Zn158  1  0.43855481  0.68319397  0.94106166  1
  Zn  Zn159  1  0.93643277  0.19046121  0.44062760  1
  Zn  Zn160  1  0.93714735  0.18492940  0.94070878  1
  Zn  Zn161  1  0.94291211  0.69048673  0.43872341  1
  Zn  Zn162  1  0.93245528  0.68923199  0.93932137  1
  Zn  Zn163  1  0.06426639  0.30720801  0.05988354  1
  Zn  Zn164  1  0.06356953  0.31009953  0.56411982  1
  Zn  Zn165  1  0.05755865  0.81409097  0.06077552  1
  Zn  Zn166  1  0.05957201  0.80954116  0.56092415  1
  Zn  Zn167  1  0.56457770  0.31340895  0.06672539  1
  Zn  Zn168  1  0.56429387  0.31696711  0.56146117  1
  Zn  Zn169  1  0.56418546  0.80912513  0.06705043  1
  Zn  Zn170  1  0.55881303  0.80417510  0.56700897  1
  O  O171  1  0.11713254  0.12084455  0.11306435  1
  O  O172  1  0.11600415  0.11664206  0.62512154  1
  O  O173  1  0.11695618  0.61439664  0.12315489  1
  O  O174  1  0.13928121  0.61219050  0.60398033  1
  O  O175  1  0.62013204  0.11917216  0.11865074  1
  O  O176  1  0.62190935  0.12103659  0.61344037  1
  O  O177  1  0.62100366  0.61999485  0.12229957  1
  O  O178  1  0.63396302  0.62152881  0.62360006  1
  O  O179  1  0.38107941  0.38051716  0.37403737  1
  O  O180  1  0.36993490  0.38984268  0.87201318  1
  O  O181  1  0.37082358  0.88684990  0.37483113  1
  O  O182  1  0.39057664  0.86194722  0.88616465  1
  O  O183  1  0.88237227  0.38236018  0.38308604  1
  O  O184  1  0.88625199  0.38314305  0.87861976  1
  O  O185  1  0.87950404  0.88549310  0.38194908  1
  O  O186  1  0.86444765  0.87405306  0.88725751  1
  O  O187  1  0.25506110  0.00486398  0.37066365  1
  O  O188  1  0.26573891  -0.04235612  0.86551563  1
  O  O189  1  0.25828173  0.50412524  0.36591863  1
  O  O190  1  0.25264501  0.50828233  0.87101674  1
  O  O191  1  0.75598245  0.01129099  0.36806835  1
  O  O192  1  0.74004738  0.00596892  0.86104805  1
  O  O193  1  0.76578898  0.50543747  0.36808803  1
  O  O194  1  0.76265686  0.50499754  0.87329886  1
  O  O195  1  0.24491929  0.49225908  0.12916432  1
  O  O196  1  0.24737481  0.49299052  0.63187918  1
  O  O197  1  0.25138782  0.99008279  0.13283627  1
  O  O198  1  0.24075635  0.98771474  0.62029139  1
  O  O199  1  0.74505180  0.49442240  0.13163939  1
  O  O200  1  0.75860339  0.48732873  0.62620544  1
  O  O201  1  0.74597209  0.99605018  0.13236309  1
  O  O202  1  0.73631683  1.00034384  0.62926728  1
  O  O203  1  0.00737491  0.36843571  0.26063682  1
  O  O204  1  0.00725062  0.37767964  0.76362083  1
  O  O205  1  -0.00081552  0.86754743  0.25626037  1
  O  O206  1  0.00975381  0.87822593  0.74380360  1
  O  O207  1  0.50612168  0.36680006  0.25619083  1
  O  O208  1  0.50682431  0.36540006  0.74192039  1
  O  O209  1  0.51085830  0.86625531  0.24292869  1
  O  O210  1  0.51232027  0.87836769  0.76065346  1
  O  O211  1  0.50134179  0.13076508  0.24497286  1
  O  O212  1  0.51177166  0.14132657  0.73029113  1
  O  O213  1  0.50821898  0.63423029  0.23877009  1
  O  O214  1  0.47832141  0.62658786  0.75759513  1
  O  O215  1  1.00831215  0.14055722  0.25346839  1
  O  O216  1  0.98982398  0.11960628  0.73740772  1
  O  O217  1  0.99633680  0.63020990  0.24310674  1
  O  O218  1  1.05023479  0.63448415  0.73059398  1
  O  O219  1  0.36827592  0.24215255  0.01183466  1
  O  O220  1  0.36594007  0.25263040  0.50581598  1
  O  O221  1  0.36849795  0.75211970  0.01180047  1
  O  O222  1  0.35716400  0.74521921  0.50073284  1
  O  O223  1  0.86711315  0.26149726  -0.00194643  1
  O  O224  1  0.86532003  0.26095001  0.50692508  1
  O  O225  1  0.87717968  0.76702975  0.00308631  1
  O  O226  1  0.86985838  0.76316229  0.49189630  1
  O  O227  1  0.13822866  0.24817840  0.49827468  1
  O  O228  1  0.13281635  0.23471538  1.00151593  1
  O  O229  1  0.13349585  0.73391262  0.50254502  1
  O  O230  1  0.13103564  0.75047962  0.99380390  1
  O  O231  1  0.63862612  0.24483086  0.50401923  1
  O  O232  1  0.63099608  0.24973461  0.99417779  1
  O  O233  1  0.62615222  0.75554890  0.48459409  1
  O  O234  1  0.62293469  0.73625654  0.99822930  1
  O  O235  1  0.49347209  0.24476692  0.12944643  1
  O  O236  1  0.49318217  0.24766857  0.62564210  1
  O  O237  1  0.49206093  0.74318586  0.13268435  1
  O  O238  1  0.49440787  0.74098116  0.62858506  1
  O  O239  1  1.00027069  0.25505140  0.14206680  1
  O  O240  1  0.98878535  0.24329237  0.62127296  1
  O  O241  1  0.99871568  0.74063428  0.13153557  1
  O  O242  1  0.97817473  0.74895918  0.61389636  1
  O  O243  1  0.00233704  0.25718322  0.36684362  1
  O  O244  1  -0.00400513  0.26117676  0.87341358  1
  O  O245  1  -0.00547021  0.76107812  0.36486927  1
  O  O246  1  0.01212614  0.74267289  0.87907072  1
  O  O247  1  0.49228312  0.25633049  0.36451822  1
  O  O248  1  0.50798560  0.25510147  0.86447356  1
  O  O249  1  0.50699444  0.74680587  0.36357022  1
  O  O250  1  0.51408934  0.75681089  0.88519748  1
  O  O251  1  0.25055658  0.13216064  0.49356217  1
  O  O252  1  0.23721986  0.12802673  1.00143259  1
  O  O253  1  0.24419544  0.62960486  0.48844365  1
  O  O254  1  0.24872798  0.63658109  0.99640680  1
  O  O255  1  0.74508498  0.13258571  0.49461652  1
  O  O256  1  0.74497394  0.13427884  0.99697237  1
  O  O257  1  0.75065804  0.62108783  0.48322378  1
  O  O258  1  0.73852378  0.61744139  0.99117977  1
  O  O259  1  0.24132653  0.36329828  0.01139129  1
  O  O260  1  0.25168241  0.36682151  0.50540420  1
  O  O261  1  0.25377532  0.86321650  0.00834145  1
  O  O262  1  0.23984992  0.86513904  0.51137093  1
  O  O263  1  0.75630668  0.37037886  0.00463820  1
  O  O264  1  0.75571483  0.37008611  0.50417562  1
  O  O265  1  0.76292545  0.88491371  0.00991854  1
  O  O266  1  0.76337858  0.88246581  0.49883442  1
  O  O267  1  0.13366934  0.48791049  0.24248383  1
  O  O268  1  0.13724185  0.48908304  0.74278792  1
  O  O269  1  0.13793215  0.99587093  0.24776139  1
  O  O270  1  0.12443590  0.98962675  0.74029675  1
  O  O271  1  0.63282988  0.49180076  0.25024452  1
  O  O272  1  0.62504413  0.48913227  0.76135950  1
  O  O273  1  0.63284576  0.99441128  0.24625452  1
  O  O274  1  0.62677851  0.99683903  0.74072131  1
  O  O275  1  0.36459143  0.00000085  0.25707283  1
  O  O276  1  0.37492848  0.00581768  0.75221832  1
  O  O277  1  0.35968339  0.49487353  0.25149017  1
  O  O278  1  0.36104640  0.50677779  0.75882075  1
  O  O279  1  0.86366569  -0.00461465  0.25862787  1
  O  O280  1  0.85985110  0.01006625  0.73994375  1
  O  O281  1  0.87199101  0.50451332  0.25712845  1
  O  O282  1  0.87267308  0.49816695  0.76448444  1
  O  O283  1  0.11918583  0.37504697  0.36797155  1
  O  O284  1  0.11188098  0.37791856  0.86841907  1
  O  O285  1  0.10944419  0.88240778  0.37535853  1
  O  O286  1  0.12041740  0.86984293  0.86182847  1
  O  O287  1  0.61867742  0.37257985  0.36268973  1
  O  O288  1  0.63100822  0.36615371  0.86832252  1
  O  O289  1  0.63243986  0.87185019  0.36125390  1
  O  O290  1  0.62381542  0.86521132  0.87137807  1
  O  O291  1  0.38180995  0.12986613  0.12783132  1
  O  O292  1  0.38437196  0.13656592  0.62285671  1
  O  O293  1  0.38215940  0.63308964  0.12507360  1
  O  O294  1  0.36148848  0.63094972  0.64446965  1
  O  O295  1  0.88194100  0.13171105  0.12290807  1
  O  O296  1  0.87885945  0.13346311  0.63019737  1
  O  O297  1  0.88089084  0.62369947  0.12979792  1
  O  O298  1  0.87483129  0.63808079  0.62810647  1
  O  O299  1  0.25756048  0.25424339  0.12044157  1
  O  O300  1  0.25716262  0.25257466  0.61742188  1
  O  O301  1  0.25524531  0.75232986  0.12263191  1
  O  O302  1  0.24791666  0.76217961  0.61761955  1
  O  O303  1  0.74877989  0.25731581  0.11335013  1
  O  O304  1  0.75694602  0.26075833  0.61736278  1
  O  O305  1  0.74932565  0.76285158  0.13125570  1
  O  O306  1  0.76843045  0.75659239  0.62870067  1
  O  O307  1  0.25210774  0.24274867  0.38059092  1
  O  O308  1  0.26087391  0.25158639  0.88890484  1
  O  O309  1  0.24939303  0.73908444  0.37864019  1
  O  O310  1  0.24266444  0.74697459  0.88479276  1
  O  O311  1  0.75672504  0.23930106  0.38217635  1
  O  O312  1  0.74381296  0.25156458  0.88535314  1
  O  O313  1  0.74515118  0.74576588  0.36549252  1
  O  O314  1  0.73979322  0.74197624  0.87991675  1
  O  O315  1  0.00669784  0.11497712  -0.00115842  1
  O  O316  1  -0.00011814  0.12506401  0.51201751  1
  O  O317  1  -0.00148932  0.62619472  0.01382254  1
  O  O318  1  0.01510034  0.62583483  0.50128610  1
  O  O319  1  0.50775918  0.11828228  0.00818295  1
  O  O320  1  0.50871938  0.12659478  0.50769529  1
  O  O321  1  0.50747246  0.61820292  0.01415832  1
  O  O322  1  0.50938800  0.62375439  0.49769348  1
  O  O323  1  0.50033050  0.37641563  0.48526752  1
  O  O324  1  0.50422851  0.39132117  1.00946742  1
  O  O325  1  0.50644172  0.88715932  0.50260980  1
  O  O326  1  0.49661707  0.87666972  0.99956131  1
  O  O327  1  0.99398135  0.36859631  0.48826010  1
  O  O328  1  0.99501979  0.36980248  0.98808926  1
  O  O329  1  0.98789813  0.87598645  0.49115964  1
  O  O330  1  0.98615446  0.88498607  1.00098363  1
  O  O331  1  0.48233619  0.48843667  0.35957611  1
  O  O332  1  0.48760993  0.50615902  0.88732827  1
  O  O333  1  0.49037121  1.00608298  0.38487931  1
  O  O334  1  0.50997504  0.97925196  0.88888513  1
  O  O335  1  0.98996276  0.49215512  0.36829552  1
  O  O336  1  0.98935716  0.49756704  0.87439132  1
  O  O337  1  0.99066053  0.99605608  0.37436636  1
  O  O338  1  1.00147138  1.00022056  0.88845132  1
  O  O339  1  0.00294103  -0.00217663  0.11265851  1
  O  O340  1  0.00561953  0.00751482  0.62203592  1
  O  O341  1  0.00995982  0.50667386  0.13312992  1
  O  O342  1  0.01134484  0.50160068  0.62762792  1
  O  O343  1  0.50461215  0.00179409  0.12027515  1
  O  O344  1  0.50820966  0.00900130  0.61838560  1
  O  O345  1  0.50355829  0.50660079  0.12505901  1
  O  O346  1  0.49093000  0.51259752  0.62363312  1
  O  O347  1  0.24252653  0.37755309  0.24002853  1
  O  O348  1  0.24416496  0.38087167  0.74400081  1
  O  O349  1  0.24816676  0.87974298  0.24397943  1
  O  O350  1  0.23729058  0.87734169  0.73124582  1
  O  O351  1  0.74421229  0.37636305  0.24727203  1
  O  O352  1  0.74128899  0.37740125  0.74179789  1
  O  O353  1  0.74480907  0.88506290  0.24178492  1
  O  O354  1  0.73731114  0.88497586  0.74744821  1
  O  O355  1  0.24988160  0.11724218  0.25607943  1
  O  O356  1  0.25260720  0.11770512  0.75284155  1
  O  O357  1  0.24052795  0.61410459  0.25852905  1
  O  O358  1  0.24862462  0.61852725  0.75942988  1
  O  O359  1  0.74320087  0.11854907  0.25920188  1
  O  O360  1  0.75469636  0.11978455  0.74853324  1
  O  O361  1  0.76059899  0.62030583  0.25655764  1
  O  O362  1  0.74503076  0.62507687  0.76959736  1
  O  O363  1  0.36347068  0.11750966  0.37171229  1
  O  O364  1  0.42066906  0.11107628  0.86234301  1
  O  O365  1  0.36400058  0.61746346  0.37330099  1
  O  O366  1  0.36261113  0.62298088  0.86975938  1
  O  O367  1  0.86757893  0.11534130  0.38061693  1
  O  O368  1  0.87256943  0.13211332  0.85947863  1
  O  O369  1  0.87496557  0.61988327  0.37076358  1
  O  O370  1  0.86972232  0.61172820  0.88407827  1
  O  O371  1  0.12954226  0.37888379  0.13081254  1
  O  O372  1  0.12876728  0.38245465  0.62829119  1
  O  O373  1  0.13761902  0.87381456  0.12524562  1
  O  O374  1  0.12549800  0.87948688  0.63041784  1
  O  O375  1  0.63054056  0.38183807  0.13698461  1
  O  O376  1  0.63433675  0.37276960  0.63422946  1
  O  O377  1  0.63293036  0.88041429  0.13223881  1
  O  O378  1  0.62454157  0.88223849  0.63216289  1
  O  O379  1  0.12015980  0.26075238  0.25130450  1
  O  O380  1  0.12754346  0.26501666  0.74000383  1
  O  O381  1  0.11176208  0.75124424  0.24811803  1
  O  O382  1  0.13204003  0.76912140  0.76023755  1
  O  O383  1  0.61214413  0.25672986  0.24265772  1
  O  O384  1  0.62042641  0.26020508  0.75699456  1
  O  O385  1  0.61713627  0.76071333  0.25405232  1
  O  O386  1  0.63081786  0.76023609  0.76152426  1
  O  O387  1  0.38581923  0.24704997  0.23861988  1
  O  O388  1  0.38421761  0.24820640  0.74201590  1
  O  O389  1  0.38366978  0.75556628  0.24012821  1
  O  O390  1  0.36138122  0.74065014  0.75643773  1
  O  O391  1  0.89063187  0.25615988  0.25096583  1
  O  O392  1  0.86597485  0.24458082  0.73776623  1
  O  O393  1  0.88534818  0.74271326  0.24536928  1
  O  O394  1  0.87928987  0.75706165  0.74322100  1
  O  O395  1  0.37524238  0.49846312  0.48722826  1
  O  O396  1  0.38224560  0.50526715  0.99203739  1
  O  O397  1  0.38619752  1.00520042  0.49300459  1
  O  O398  1  0.38266401  0.99173524  0.99850103  1
  O  O399  1  0.87333334  0.48896165  0.49423686  1
  O  O400  1  0.87241566  0.48630428  0.99040710  1
  O  O401  1  0.87555856  0.99306382  0.49200761  1
  O  O402  1  0.88497401  0.99216916  0.99802014  1
  O  O403  1  0.11664857  0.00622265  0.00050892  1
  O  O404  1  0.12018075  0.00202066  0.51153946  1
  O  O405  1  0.13019689  0.50007031  0.01234910  1
  O  O406  1  0.12883221  0.50771242  0.50692674  1
  O  O407  1  0.62101801  0.00414613  0.00696401  1
  O  O408  1  0.61898238  0.00855386  0.50509488  1
  O  O409  1  0.61794602  0.50860191  0.00761056  1
  O  O410  1  0.61158079  0.51237666  0.45714307  1
  O  O411  1  0.36502465  0.36447919  0.12808076  1
  O  O412  1  0.36901038  0.36378829  0.62463966  1
  O  O413  1  0.36416799  0.86647061  0.12045331  1
  O  O414  1  0.36061918  0.87390753  0.62816568  1
  O  O415  1  0.87072886  0.37277505  0.11711884  1
  O  O416  1  0.87287815  0.37004482  0.61996031  1
  O  O417  1  0.86558020  0.87413280  0.11950676  1
  O  O418  1  0.87325435  0.86880227  0.61082401  1
  O  O419  1  0.13864451  0.12531505  0.37893901  1
  O  O420  1  0.12137459  0.12099678  0.88797164  1
  O  O421  1  0.13356025  0.61413824  0.38659154  1
  O  O422  1  0.13621936  0.63069328  0.87993458  1
  O  O423  1  0.63427383  0.12183464  0.38708703  1
  O  O424  1  0.62215992  0.14023225  0.88113382  1
  O  O425  1  0.64135294  0.64319581  0.36292005  1
  O  O426  1  0.62840720  0.62945057  0.88416155  1
