# generated using pymatgen
data_V85Zn86O256
_symmetry_space_group_name_H-M   'P 1'
_cell_length_a   16.92834687
_cell_length_b   16.93353602
_cell_length_c   16.93605840
_cell_angle_alpha   90.02749389
_cell_angle_beta   89.97359667
_cell_angle_gamma   89.99399333
_symmetry_Int_Tables_number   1
_chemical_formula_structural   V85Zn86O256
_chemical_formula_sum   'V85 Zn86 O256'
_cell_volume   4854.83472189
_cell_formula_units_Z   1
loop_
 _symmetry_equiv_pos_site_id
 _symmetry_equiv_pos_as_xyz
  1  'x, y, z'
loop_
 _atom_site_type_symbol
 _atom_site_label
 _atom_site_symmetry_multiplicity
 _atom_site_fract_x
 _atom_site_fract_y
 _atom_site_fract_z
 _atom_site_occupancy
  V  V0  1  0.75338124  0.25364131  -0.00382842  1
  V  V1  1  0.00484494  -0.00243596  0.48700578  1
  V  V2  1  0.87354523  -0.00874385  0.87839731  1
  V  V3  1  0.74094635  0.49965533  0.24382736  1
  V  V4  1  0.49993437  0.37358686  0.38140797  1
  V  V5  1  0.11873813  0.38208033  0.75161117  1
  V  V6  1  0.24688443  0.38224135  0.12025482  1
  V  V7  1  0.36881737  0.25220086  0.62499566  1
  V  V8  1  0.11631190  0.00268566  0.63100784  1
  V  V9  1  0.87213859  0.61624932  0.75143770  1
  V  V10  1  0.37079187  0.37906155  0.50247710  1
  V  V11  1  -0.00310643  0.75555615  0.25222385  1
  V  V12  1  0.62388100  0.75563957  0.88037198  1
  V  V13  1  0.13364962  0.75299439  0.87034361  1
  V  V14  1  0.50344832  0.61120383  0.12304075  1
  V  V15  1  0.37964014  0.50207536  0.37927305  1
  V  V16  1  0.25233259  -0.00459979  0.75412064  1
  V  V17  1  0.74485918  0.37835904  0.12006491  1
  V  V18  1  0.39233647  0.37693328  -0.00319024  1
  V  V19  1  0.37432611  0.25079826  0.12413854  1
  V  V20  1  0.37442198  0.74648892  0.11296146  1
  V  V21  1  0.24688486  0.50381161  0.75595498  1
  V  V22  1  0.75343473  0.12434098  0.87011431  1
  V  V23  1  0.86858865  0.12621732  0.25481324  1
  V  V24  1  0.00142358  0.25089674  0.24872581  1
  V  V25  1  0.88448025  0.24561010  0.62548535  1
  V  V26  1  0.12070600  0.25139624  0.86925382  1
  V  V27  1  0.50030377  0.00006606  0.50141194  1
  V  V28  1  0.62235005  0.11839778  -0.00477767  1
  V  V29  1  0.63098522  -0.00490940  0.11919845  1
  V  V30  1  -0.00891054  0.37302540  0.87727647  1
  V  V31  1  0.37222643  -0.00539245  0.38223104  1
  V  V32  1  0.49975896  0.24852945  0.25627997  1
  V  V33  1  0.62610483  0.49789280  0.61643541  1
  V  V34  1  0.74737696  0.62344061  0.37345578  1
  V  V35  1  0.89471903  0.12777808  0.74753653  1
  V  V36  1  0.87903109  0.74617394  0.62751773  1
  V  V37  1  0.25003135  0.25363016  0.00133593  1
  V  V38  1  0.39119966  0.49800585  0.87690667  1
  V  V39  1  0.87290577  0.76129730  0.11991090  1
  V  V40  1  0.63789038  0.24663007  0.37664471  1
  V  V41  1  0.37543698  0.12028697  0.25140612  1
  V  V42  1  0.12475809  0.12443221  0.00197622  1
  V  V43  1  0.75275987  0.76475407  0.00167142  1
  V  V44  1  0.62565493  0.61176811  0.00546424  1
  V  V45  1  -0.00059021  0.12421570  0.12221032  1
  V  V46  1  0.24841057  0.62584743  0.37746080  1
  V  V47  1  0.64216051  0.12756352  0.49563930  1
  V  V48  1  0.49781335  0.87423234  0.37655093  1
  V  V49  1  0.00230247  0.50433581  0.50426809  1
  V  V50  1  0.25310634  0.75789734  0.49993325  1
  V  V51  1  0.74859139  0.74758888  0.49978214  1
  V  V52  1  0.62645654  0.00211484  0.62158563  1
  V  V53  1  -0.00138078  0.61986373  0.12491115  1
  V  V54  1  0.00066576  0.37378592  0.37299765  1
  V  V55  1  0.74995310  0.61787090  0.87450936  1
  V  V56  1  0.13191088  0.62807612  0.00566655  1
  V  V57  1  0.25318359  0.12524034  0.87444186  1
  V  V58  1  0.62945428  0.87412777  0.24484238  1
  V  V59  1  0.62724366  0.38498790  0.75322597  1
  V  V60  1  0.49995279  0.11763296  0.12019114  1
  V  V61  1  0.75004746  0.37144141  0.62750092  1
  V  V62  1  0.61892082  0.25446965  0.87291253  1
  V  V63  1  0.62310353  0.87587115  0.75265913  1
  V  V64  1  0.87507645  0.25420187  0.11810329  1
  V  V65  1  0.86596725  0.36777358  0.49784355  1
  V  V66  1  0.75314790  0.87510089  0.62242646  1
  V  V67  1  0.24973795  -0.00379519  0.25080809  1
  V  V68  1  0.87173405  0.50026552  0.37303491  1
  V  V69  1  0.49869074  0.25795332  0.74820602  1
  V  V70  1  0.37644612  0.62666597  0.24935362  1
  V  V71  1  -0.00351879  -0.01207967  0.00100831  1
  V  V72  1  0.49893355  0.62043445  0.61954369  1
  V  V73  1  0.11864754  0.75682538  0.37801622  1
  V  V74  1  0.12464377  -0.00146655  0.12498795  1
  V  V75  1  0.24549783  0.87404599  0.63137638  1
  V  V76  1  0.12421234  0.38495568  0.24352928  1
  V  V77  1  0.49953174  0.75123641  0.75344738  1
  V  V78  1  0.74678469  0.00330376  0.25658894  1
  V  V79  1  0.37725071  0.75734765  0.62372503  1
  V  V80  1  0.75280217  0.00339863  0.74833914  1
  V  V81  1  0.62527076  0.74993375  0.37375109  1
  V  V82  1  0.25160883  0.86923974  0.11692320  1
  V  V83  1  0.24438187  0.38434840  0.62291635  1
  V  V84  1  -0.00260258  0.49681463  0.00153343  1
  Zn  Zn85  1  0.12717712  0.62398865  0.50663117  1
  Zn  Zn86  1  0.00127312  0.75136009  0.75495966  1
  Zn  Zn87  1  0.50154590  0.74876165  0.24901772  1
  Zn  Zn88  1  0.37987530  0.12549987  0.75146721  1
  Zn  Zn89  1  0.25541982  0.62438771  0.88394092  1
  Zn  Zn90  1  0.38818475  0.87959104  -0.00680017  1
  Zn  Zn91  1  0.24545282  0.50378575  0.24691665  1
  Zn  Zn92  1  0.22669676  0.11912334  0.41028075  1
  Zn  Zn93  1  0.39100664  -0.00214181  0.88433962  1
  Zn  Zn94  1  0.62061394  0.61923050  0.49722884  1
  Zn  Zn95  1  0.00485373  0.87158334  0.87198363  1
  Zn  Zn96  1  0.87228492  0.62569277  0.24586774  1
  Zn  Zn97  1  0.37554084  0.62483021  0.75236580  1
  Zn  Zn98  1  0.50093289  0.12973369  0.62117088  1
  Zn  Zn99  1  0.87325760  -0.00397261  0.37398931  1
  Zn  Zn100  1  0.88350394  0.87032871  0.48762142  1
  Zn  Zn101  1  0.87049594  0.49419230  0.87681591  1
  Zn  Zn102  1  0.00855785  0.61806839  0.63550006  1
  Zn  Zn103  1  0.05876444  0.16608725  0.56699536  1
  Zn  Zn104  1  0.14030204  0.25701898  0.40729961  1
  Zn  Zn105  1  0.62026697  0.37619018  0.24588502  1
  Zn  Zn106  1  0.12108471  0.87572271  0.25279013  1
  Zn  Zn107  1  0.18824906  0.18959017  0.26306315  1
  Zn  Zn108  1  0.19195954  0.19081743  0.69092220  1
  Zn  Zn109  1  0.18547272  0.68856788  0.18838266  1
  Zn  Zn110  1  0.18597984  0.68299235  0.68732669  1
  Zn  Zn111  1  0.68586116  0.18831556  0.18579543  1
  Zn  Zn112  1  0.69008340  0.19181984  0.68259401  1
  Zn  Zn113  1  0.68951568  0.68750872  0.18402104  1
  Zn  Zn114  1  0.68800476  0.68443385  0.68841055  1
  Zn  Zn115  1  0.31235820  0.31502507  0.31187300  1
  Zn  Zn116  1  0.31113501  0.31856095  0.81371608  1
  Zn  Zn117  1  0.31208672  0.81121623  0.30930340  1
  Zn  Zn118  1  0.31300574  0.81205642  0.81789469  1
  Zn  Zn119  1  0.81300714  0.31485373  0.30648267  1
  Zn  Zn120  1  0.81103634  0.30926282  0.80639387  1
  Zn  Zn121  1  0.81202249  0.81545190  0.30866284  1
  Zn  Zn122  1  0.81102044  0.80909789  0.81166175  1
  Zn  Zn123  1  0.18745995  0.43821743  0.43460312  1
  Zn  Zn124  1  0.18426142  0.44315460  0.93819429  1
  Zn  Zn125  1  0.18411097  0.93578354  0.44422004  1
  Zn  Zn126  1  0.19313806  0.93580462  0.93855302  1
  Zn  Zn127  1  0.68537200  0.43382867  0.43624433  1
  Zn  Zn128  1  0.68686673  0.43612929  0.93764827  1
  Zn  Zn129  1  0.68843700  0.93594547  0.43620033  1
  Zn  Zn130  1  0.55126161  0.93641084  0.93643733  1
  Zn  Zn131  1  0.31258053  0.05812063  0.06084751  1
  Zn  Zn132  1  0.31326409  0.05867612  0.57016287  1
  Zn  Zn133  1  0.31821095  0.55758885  0.06084426  1
  Zn  Zn134  1  0.31349778  0.56458284  0.56446053  1
  Zn  Zn135  1  0.81075040  0.06332395  0.06193309  1
  Zn  Zn136  1  0.82339238  0.06151820  0.56032689  1
  Zn  Zn137  1  0.81528004  0.56501183  0.05973478  1
  Zn  Zn138  1  0.81084358  0.55928695  0.56361369  1
  Zn  Zn139  1  0.43318819  0.43681106  0.19088993  1
  Zn  Zn140  1  0.43882059  0.43975413  0.69012079  1
  Zn  Zn141  1  0.44036466  0.93403782  0.18353670  1
  Zn  Zn142  1  0.43664151  0.93747118  0.69260701  1
  Zn  Zn143  1  0.93100685  0.43838832  0.18448247  1
  Zn  Zn144  1  0.93446800  0.43541090  0.68965937  1
  Zn  Zn145  1  0.93409157  0.93658966  0.18913935  1
  Zn  Zn146  1  0.93864609  0.93300030  0.69185853  1
  Zn  Zn147  1  0.06150020  0.06452810  0.31080258  1
  Zn  Zn148  1  0.06772115  0.05551361  0.81488788  1
  Zn  Zn149  1  0.06049593  0.56805758  0.31448428  1
  Zn  Zn150  1  0.06016789  0.56615162  0.81946770  1
  Zn  Zn151  1  0.56303295  0.06349696  0.31396422  1
  Zn  Zn152  1  0.56672554  0.07178861  0.80295993  1
  Zn  Zn153  1  0.56053399  0.56113383  0.31207734  1
  Zn  Zn154  1  0.56630890  0.56769999  0.80856171  1
  Zn  Zn155  1  0.40177977  0.17131165  0.45616098  1
  Zn  Zn156  1  0.43767207  0.18700834  0.93640739  1
  Zn  Zn157  1  0.43652137  0.69056258  0.44005873  1
  Zn  Zn158  1  0.44222186  0.68506043  0.93731225  1
  Zn  Zn159  1  0.93603721  0.18603788  0.43577818  1
  Zn  Zn160  1  0.93897097  0.18433468  0.93538170  1
  Zn  Zn161  1  0.93320932  0.68765116  0.43563771  1
  Zn  Zn162  1  0.93967042  0.68775401  0.93775708  1
  Zn  Zn163  1  0.06474734  0.31424644  0.06073196  1
  Zn  Zn164  1  0.05815006  0.33241224  0.56700942  1
  Zn  Zn165  1  0.06496868  0.80799814  0.06273888  1
  Zn  Zn166  1  0.06429013  0.81495930  0.56531112  1
  Zn  Zn167  1  0.56573961  0.30487825  0.06493504  1
  Zn  Zn168  1  0.56143831  0.31108328  0.55918881  1
  Zn  Zn169  1  0.56359004  0.80112720  0.06889409  1
  Zn  Zn170  1  0.56323067  0.81353570  0.56256519  1
  O  O171  1  0.11492117  0.11437616  0.11941982  1
  O  O172  1  0.13430731  0.10927954  0.63108214  1
  O  O173  1  0.11462026  0.63073640  0.11597846  1
  O  O174  1  0.11981697  0.62628572  0.61896234  1
  O  O175  1  0.61924851  0.12096820  0.11442333  1
  O  O176  1  0.62393409  0.12106219  0.61486040  1
  O  O177  1  0.61990834  0.62664166  0.11383085  1
  O  O178  1  0.62036032  0.61480050  0.62430612  1
  O  O179  1  0.37759303  0.38278606  0.38092644  1
  O  O180  1  0.37496721  0.38683883  0.88367126  1
  O  O181  1  0.38822671  0.88050333  0.36658576  1
  O  O182  1  0.36737253  0.88449658  0.87900239  1
  O  O183  1  0.87904193  0.38001460  0.37927360  1
  O  O184  1  0.88737133  0.37125438  0.86754661  1
  O  O185  1  0.86965339  0.88156879  0.37487610  1
  O  O186  1  0.86819829  0.88961505  0.87257506  1
  O  O187  1  0.25602120  -0.00067964  0.37118858  1
  O  O188  1  0.24448976  0.01023520  0.86749987  1
  O  O189  1  0.25933351  0.50911887  0.37415087  1
  O  O190  1  0.25845160  0.50237785  0.86964527  1
  O  O191  1  0.74520385  0.00220997  0.35991462  1
  O  O192  1  0.75813627  0.01602537  0.86965440  1
  O  O193  1  0.75402330  0.50238000  0.36834998  1
  O  O194  1  0.75183549  0.51261128  0.88058173  1
  O  O195  1  0.25754158  0.48678462  0.12832450  1
  O  O196  1  0.25758511  0.49095443  0.63616620  1
  O  O197  1  0.24396697  0.99120941  0.13249299  1
  O  O198  1  0.24556706  0.99097800  0.63105926  1
  O  O199  1  0.75916104  0.49046009  0.13105150  1
  O  O200  1  0.74136197  0.48600591  0.62126136  1
  O  O201  1  0.73540610  1.00579824  0.13045765  1
  O  O202  1  0.74846233  0.99123651  0.62702139  1
  O  O203  1  0.00178100  0.37278837  0.25420356  1
  O  O204  1  0.01094089  0.38180035  0.75851859  1
  O  O205  1  0.00101563  0.86002229  0.24410988  1
  O  O206  1  -0.00555057  0.86553839  0.75822723  1
  O  O207  1  0.49806280  0.36629127  0.25815149  1
  O  O208  1  0.51106279  0.36591532  0.74634530  1
  O  O209  1  0.51174542  0.87405124  0.25782696  1
  O  O210  1  0.51558079  0.86724207  0.74205412  1
  O  O211  1  0.49586885  0.12984523  0.24220618  1
  O  O212  1  0.50176512  0.14409367  0.74193010  1
  O  O213  1  0.49286795  0.62529100  0.24392029  1
  O  O214  1  0.50198070  0.63578294  0.73818804  1
  O  O215  1  0.99329274  0.13422038  0.24109224  1
  O  O216  1  0.99358866  0.12210563  0.75549908  1
  O  O217  1  0.99756572  0.63411756  0.24173686  1
  O  O218  1  0.98828759  0.62946253  0.75178066  1
  O  O219  1  0.36958468  0.25775831  0.00231409  1
  O  O220  1  0.38125564  0.27083229  0.51178041  1
  O  O221  1  0.37456013  0.74387104  0.01115097  1
  O  O222  1  0.36519034  0.74809989  0.50979816  1
  O  O223  1  0.86541659  0.24171456  0.00623457  1
  O  O224  1  0.87867352  0.25828686  0.50638922  1
  O  O225  1  0.86388567  0.74581673  0.00855799  1
  O  O226  1  0.86390746  0.75014861  0.50631568  1
  O  O227  1  0.11262959  0.24987068  0.51386317  1
  O  O228  1  0.13196687  0.24506844  0.99215417  1
  O  O229  1  0.13217935  0.74905543  0.49413589  1
  O  O230  1  0.12342779  0.73420297  0.99535379  1
  O  O231  1  0.61998390  0.23940428  0.48955658  1
  O  O232  1  0.63254992  0.24177626  0.99054937  1
  O  O233  1  0.63661492  0.74853972  0.49622029  1
  O  O234  1  0.63716597  0.74220458  0.99538123  1
  O  O235  1  0.49624342  0.24050426  0.13637394  1
  O  O236  1  0.48842902  0.25529660  0.63098323  1
  O  O237  1  0.48988867  0.73541457  0.13107101  1
  O  O238  1  0.49519288  0.74751463  0.63202372  1
  O  O239  1  0.99148286  0.24737052  0.12676760  1
  O  O240  1  0.98772261  0.25273283  0.62395015  1
  O  O241  1  0.98914666  0.74277670  0.12788125  1
  O  O242  1  0.98542051  0.74812693  0.62079679  1
  O  O243  1  -0.00593837  0.26297260  0.36487419  1
  O  O244  1  0.01105352  0.25781664  0.88277465  1
  O  O245  1  0.00676410  0.74264540  0.36640868  1
  O  O246  1  0.01380571  0.75093084  0.87956468  1
  O  O247  1  0.49989644  0.25619783  0.36423763  1
  O  O248  1  0.51277809  0.24602945  0.86745148  1
  O  O249  1  0.50624227  0.75733941  0.37436708  1
  O  O250  1  0.51017023  0.74200674  0.86179182  1
  O  O251  1  0.29520720  0.13466080  0.49238532  1
  O  O252  1  0.24359157  0.13147100  0.99558746  1
  O  O253  1  0.25217125  0.63343977  0.49004218  1
  O  O254  1  0.23510912  0.61658628  1.00591927  1
  O  O255  1  0.74116943  0.11858608  0.50057806  1
  O  O256  1  0.74261246  0.13352797  0.99184363  1
  O  O257  1  0.74761657  0.63118644  0.49307337  1
  O  O258  1  0.73939857  0.62894176  0.99566313  1
  O  O259  1  0.25303607  0.37211101  0.00451288  1
  O  O260  1  0.25555846  0.38232640  0.51025624  1
  O  O261  1  0.25396089  0.87579647  0.01536627  1
  O  O262  1  0.24889876  0.86454397  0.51056270  1
  O  O263  1  0.74789061  0.36241348  0.00327376  1
  O  O264  1  0.76145013  0.37808464  0.50410549  1
  O  O265  1  0.74654665  0.85954095  -0.00154415  1
  O  O266  1  0.74955996  0.86654741  0.50808603  1
  O  O267  1  0.12385096  0.48902927  0.25666220  1
  O  O268  1  0.13317354  0.49340943  0.76238172  1
  O  O269  1  0.13233286  0.99718012  0.24406212  1
  O  O270  1  0.13761625  0.99982361  0.74087558  1
  O  O271  1  0.63705082  0.49636702  0.25368558  1
  O  O272  1  0.62183275  0.48916564  0.74156485  1
  O  O273  1  0.62974163  0.99601060  0.24214831  1
  O  O274  1  0.63329158  0.99419912  0.74085677  1
  O  O275  1  0.37039669  0.00177778  0.25489182  1
  O  O276  1  0.36264677  0.00502399  0.74910596  1
  O  O277  1  0.37036252  0.51136279  0.25873320  1
  O  O278  1  0.36894841  0.49814898  0.76327731  1
  O  O279  1  0.86397462  0.00878578  0.24470626  1
  O  O280  1  0.86960213  0.00941339  0.75462471  1
  O  O281  1  0.86480396  0.49872112  0.26082876  1
  O  O282  1  0.87526156  0.51173082  0.75287463  1
  O  O283  1  0.11610442  0.37105966  0.36746040  1
  O  O284  1  0.11766037  0.36876224  0.87086928  1
  O  O285  1  0.13099673  0.86076683  0.37328938  1
  O  O286  1  0.12863737  0.85634935  0.88610688  1
  O  O287  1  0.61493996  0.36666693  0.37305899  1
  O  O288  1  0.63188638  0.36622224  0.86565993  1
  O  O289  1  0.61829937  0.86946308  0.36746332  1
  O  O290  1  0.62751705  0.86226774  0.86682079  1
  O  O291  1  0.38332101  0.12820971  0.13237541  1
  O  O292  1  0.37807734  0.13918118  0.63100779  1
  O  O293  1  0.37929974  0.62765577  0.13165068  1
  O  O294  1  0.38253667  0.63524194  0.62863682  1
  O  O295  1  0.87942821  0.13503012  0.13113336  1
  O  O296  1  0.87096227  0.13352594  0.63560015  1
  O  O297  1  0.88347799  0.63386137  0.12578735  1
  O  O298  1  0.87383391  0.63000816  0.63279398  1
  O  O299  1  0.25992454  0.26212125  0.11579635  1
  O  O300  1  0.26248049  0.26712349  0.63600236  1
  O  O301  1  0.26106560  0.75778351  0.13531711  1
  O  O302  1  0.25603731  0.75612662  0.62161898  1
  O  O303  1  0.75542949  0.25362154  0.11501604  1
  O  O304  1  0.75916786  0.26405434  0.62470410  1
  O  O305  1  0.76192350  0.74603136  0.11370093  1
  O  O306  1  0.75556799  0.75378310  0.61769501  1
  O  O307  1  0.24325143  0.23986146  0.35571894  1
  O  O308  1  0.24430754  0.24538652  0.88139313  1
  O  O309  1  0.24645409  0.74542712  0.38264745  1
  O  O310  1  0.23902016  0.74111064  0.87317570  1
  O  O311  1  0.73705289  0.25613541  0.36868417  1
  O  O312  1  0.74475307  0.24231489  0.87880096  1
  O  O313  1  0.74495977  0.74407408  0.38072734  1
  O  O314  1  0.74466545  0.74301815  0.88630911  1
  O  O315  1  0.00625735  0.11741796  0.00457348  1
  O  O316  1  -0.00978714  0.10628787  0.50041990  1
  O  O317  1  0.00640320  0.61981126  0.00869098  1
  O  O318  1  -0.00527471  0.60956170  0.49606819  1
  O  O319  1  0.51050076  0.13590212  0.00984716  1
  O  O320  1  0.49921330  0.11018248  0.50005312  1
  O  O321  1  0.51734574  0.62998645  0.00725153  1
  O  O322  1  0.50290559  0.63264841  0.51469191  1
  O  O323  1  0.49353389  0.37492851  0.48642816  1
  O  O324  1  0.49120112  0.36664279  1.00463222  1
  O  O325  1  0.50957897  0.88664640  0.48918107  1
  O  O326  1  0.50246671  0.86043171  0.99867255  1
  O  O327  1  0.98804772  0.38697533  0.49015782  1
  O  O328  1  1.00538203  0.38433030  0.99137625  1
  O  O329  1  0.99983118  0.89220775  0.50831008  1
  O  O330  1  1.00202031  0.88551028  0.99968379  1
  O  O331  1  0.48744335  0.49116619  0.36936605  1
  O  O332  1  0.48992373  0.50227124  0.86713689  1
  O  O333  1  0.49517502  0.99179033  0.37974607  1
  O  O334  1  0.50461395  1.00773597  0.86655720  1
  O  O335  1  0.98999159  0.49219155  0.37670310  1
  O  O336  1  0.99639126  0.49025488  0.88307785  1
  O  O337  1  1.00528073  0.99703976  0.38433385  1
  O  O338  1  0.99273958  0.99766547  0.88402011  1
  O  O339  1  0.00218442  0.00308508  0.11945953  1
  O  O340  1  0.01434286  -0.00083828  0.62837600  1
  O  O341  1  -0.00637975  0.51124999  0.12078818  1
  O  O342  1  -0.01011179  0.49833075  0.60710992  1
  O  O343  1  0.51187300  0.01248236  0.13236220  1
  O  O344  1  0.50652552  -0.00121777  0.61722791  1
  O  O345  1  0.49425627  0.51163357  0.12893059  1
  O  O346  1  0.50843638  0.50994931  0.62999249  1
  O  O347  1  0.24022645  0.37707186  0.24065850  1
  O  O348  1  0.24158398  0.38695132  0.74724316  1
  O  O349  1  0.25053851  0.88531839  0.24408346  1
  O  O350  1  0.25266963  0.88084316  0.73985691  1
  O  O351  1  0.74766035  0.38222796  0.23912397  1
  O  O352  1  0.74017485  0.37275405  0.74096430  1
  O  O353  1  0.73636783  0.88430085  0.24848973  1
  O  O354  1  0.74084915  0.87911781  0.74375734  1
  O  O355  1  0.26305190  0.10715553  0.23942431  1
  O  O356  1  0.25288442  0.11902135  0.76024175  1
  O  O357  1  0.25516683  0.62547575  0.26196739  1
  O  O358  1  0.25410997  0.61199763  0.75105632  1
  O  O359  1  0.75752696  0.11849891  0.24267099  1
  O  O360  1  0.75062642  0.12117500  0.75602825  1
  O  O361  1  0.75024761  0.61693943  0.25404170  1
  O  O362  1  0.75573606  0.63039469  0.76355241  1
  O  O363  1  0.38620623  0.10982543  0.35741634  1
  O  O364  1  0.36249019  0.12569968  0.87412854  1
  O  O365  1  0.37166526  0.62005833  0.37055782  1
  O  O366  1  0.37549719  0.61258317  0.87526108  1
  O  O367  1  0.88004107  0.12006557  0.35804311  1
  O  O368  1  0.86973231  0.12178615  0.86507099  1
  O  O369  1  0.86584473  0.61610338  0.37063146  1
  O  O370  1  0.86592756  0.62642564  0.86904940  1
  O  O371  1  0.13389071  0.37578506  0.13041174  1
  O  O372  1  0.13280363  0.38043052  0.63877827  1
  O  O373  1  0.13308850  0.87886979  0.12757541  1
  O  O374  1  0.13538988  0.88765617  0.62334079  1
  O  O375  1  0.63971759  0.36752325  0.12674860  1
  O  O376  1  0.63039640  0.37884142  0.62879006  1
  O  O377  1  0.61855086  0.88374731  0.13255926  1
  O  O378  1  0.63657427  0.87849246  0.63044529  1
  O  O379  1  0.10655114  0.26525037  0.23807715  1
  O  O380  1  0.13182085  0.26145722  0.76308635  1
  O  O381  1  0.11501323  0.74994246  0.25879135  1
  O  O382  1  0.12377143  0.74177852  0.76721010  1
  O  O383  1  0.61590258  0.24941396  0.25713907  1
  O  O384  1  0.62055750  0.25917068  0.75488409  1
  O  O385  1  0.62615401  0.75762702  0.25339430  1
  O  O386  1  0.62180461  0.75669482  0.75678423  1
  O  O387  1  0.38160956  0.24014150  0.24468017  1
  O  O388  1  0.38332040  0.25596520  0.74590208  1
  O  O389  1  0.37690301  0.73606559  0.24769451  1
  O  O390  1  0.38486480  0.74792258  0.74505792  1
  O  O391  1  0.88245847  0.24541251  0.24149806  1
  O  O392  1  0.87305171  0.23802409  0.74079067  1
  O  O393  1  0.87727114  0.74788482  0.23699184  1
  O  O394  1  0.87133569  0.73916357  0.74099786  1
  O  O395  1  0.37342225  0.49198912  0.49237781  1
  O  O396  1  0.37785306  0.49210615  0.98666353  1
  O  O397  1  0.38325306  0.99405203  0.48748181  1
  O  O398  1  0.38146099  0.99721980  1.00128578  1
  O  O399  1  0.87822744  0.49379847  0.48748840  1
  O  O400  1  0.89045107  0.50530070  0.99564892  1
  O  O401  1  0.88881362  0.99393974  0.49704955  1
  O  O402  1  0.88382015  1.00952813  0.99045292  1
  O  O403  1  0.11772042  0.00399342  0.00448214  1
  O  O404  1  0.11502080  0.00229036  0.51099295  1
  O  O405  1  0.11095804  0.51478889  -0.00439653  1
  O  O406  1  0.10535679  0.49963346  0.49001375  1
  O  O407  1  0.62451480  0.01178808  0.00438742  1
  O  O408  1  0.62019176  0.00695997  0.50282309  1
  O  O409  1  0.62588764  0.51298505  -0.00200656  1
  O  O410  1  0.62462738  0.49836157  0.51134918  1
  O  O411  1  0.37061644  0.37016977  0.11748769  1
  O  O412  1  0.36899509  0.37602091  0.61892942  1
  O  O413  1  0.37049341  0.86196465  0.12706236  1
  O  O414  1  0.36908407  0.86313052  0.62939587  1
  O  O415  1  0.86441117  0.36069734  0.12763470  1
  O  O416  1  0.86928304  0.36918028  0.61837813  1
  O  O417  1  0.87650426  0.86039079  0.12305853  1
  O  O418  1  0.86279814  0.86635833  0.62597122  1
  O  O419  1  0.12929641  0.13988444  0.35841137  1
  O  O420  1  0.13365993  0.13277332  0.87904528  1
  O  O421  1  0.13390700  0.63417888  0.37966694  1
  O  O422  1  0.12711160  0.63282352  0.88941702  1
  O  O423  1  0.62074759  0.13486856  0.38322540  1
  O  O424  1  0.63471206  0.13392593  0.87859877  1
  O  O425  1  0.62859345  0.63092201  0.37634044  1
  O  O426  1  0.63098223  0.63344155  0.88300232  1
