# generated using pymatgen
data_V85Zn86O256
_symmetry_space_group_name_H-M   'P 1'
_cell_length_a   16.91971639
_cell_length_b   16.92666688
_cell_length_c   16.92133178
_cell_angle_alpha   89.98684709
_cell_angle_beta   90.04801220
_cell_angle_gamma   89.89885987
_symmetry_Int_Tables_number   1
_chemical_formula_structural   V85Zn86O256
_chemical_formula_sum   'V85 Zn86 O256'
_cell_volume   4846.16533463
_cell_formula_units_Z   1
loop_
 _symmetry_equiv_pos_site_id
 _symmetry_equiv_pos_as_xyz
  1  'x, y, z'
loop_
 _atom_site_type_symbol
 _atom_site_label
 _atom_site_symmetry_multiplicity
 _atom_site_fract_x
 _atom_site_fract_y
 _atom_site_fract_z
 _atom_site_occupancy
  V  V0  1  0.75888126  0.24905277  0.50394922  1
  V  V1  1  0.76335891  0.74905179  0.50195312  1
  V  V2  1  0.37837366  0.37309612  0.49405773  1
  V  V3  1  -0.00471668  0.12489978  0.61990055  1
  V  V4  1  0.63155002  0.37925955  0.23656078  1
  V  V5  1  0.50070530  0.50564936  0.01247175  1
  V  V6  1  0.25022437  0.50663114  0.24879779  1
  V  V7  1  -0.00502668  0.88275605  0.37660062  1
  V  V8  1  0.00690963  0.86316221  0.87054170  1
  V  V9  1  0.38810160  0.74653512  0.12847553  1
  V  V10  1  0.12142804  0.88230812  0.24678536  1
  V  V11  1  0.63569812  0.12724494  0.00396349  1
  V  V12  1  0.36912870  0.50240057  0.37538047  1
  V  V13  1  0.62365731  0.12393727  0.50876606  1
  V  V14  1  0.87900555  -0.00072629  0.87736113  1
  V  V15  1  0.37172905  0.25310193  0.12844313  1
  V  V16  1  0.12502243  0.24732523  0.87610884  1
  V  V17  1  0.87705013  0.63965844  0.74730014  1
  V  V18  1  0.24995964  0.25595499  0.00408670  1
  V  V19  1  0.63096912  0.00089367  0.12568959  1
  V  V20  1  0.75040395  0.87328284  0.62644524  1
  V  V21  1  0.87559650  0.86598938  0.00072536  1
  V  V22  1  0.49635447  0.87670133  0.87464290  1
  V  V23  1  -0.00143413  0.64257838  0.62518441  1
  V  V24  1  0.25699904  0.74199842  0.50040914  1
  V  V25  1  0.49871382  0.25749028  0.25671271  1
  V  V26  1  0.75323465  0.50311306  0.75027139  1
  V  V27  1  0.24695496  0.24851867  0.50056359  1
  V  V28  1  0.62642762  0.62729628  0.49940934  1
  V  V29  1  0.49043958  0.00503771  0.50381647  1
  V  V30  1  0.37614559  0.00132598  0.87580464  1
  V  V31  1  0.75137540  0.62357877  0.37254564  1
  V  V32  1  0.75928217  0.37140903  0.62629870  1
  V  V33  1  0.87443963  0.50276546  0.37235099  1
  V  V34  1  -0.00321902  0.24963701  0.74528943  1
  V  V35  1  0.12549316  0.51080054  0.12017666  1
  V  V36  1  0.37683257  0.11555561  0.25651004  1
  V  V37  1  0.62364044  0.26047777  0.37887338  1
  V  V38  1  0.62202890  0.87179968  0.25112034  1
  V  V39  1  0.49185785  0.75342509  0.74618637  1
  V  V40  1  0.12351151  0.24938020  0.37486399  1
  V  V41  1  0.37481661  0.62405689  0.74688260  1
  V  V42  1  0.87927032  0.89372485  0.50054916  1
  V  V43  1  0.24661102  0.88021968  0.12557336  1
  V  V44  1  0.37587710  0.87367809  0.00147854  1
  V  V45  1  0.12629899  0.74213181  0.37228491  1
  V  V46  1  0.24549217  0.74773337  0.00224767  1
  V  V47  1  0.00074386  0.25013100  0.23846690  1
  V  V48  1  0.85667737  0.25120924  0.12169256  1
  V  V49  1  0.50035953  0.49656582  0.49561116  1
  V  V50  1  0.62310924  0.74753669  0.87439154  1
  V  V51  1  0.50312920  0.24768024  0.74791798  1
  V  V52  1  0.75173124  0.12725097  0.87956818  1
  V  V53  1  0.87553426  0.62562562  0.22954575  1
  V  V54  1  0.11983172  -0.00199095  0.62721495  1
  V  V55  1  0.62188696  0.62425486  0.01306192  1
  V  V56  1  0.00097422  0.37470152  0.37304128  1
  V  V57  1  0.49638401  0.63122612  0.62245133  1
  V  V58  1  0.85760332  0.37758606  0.00534573  1
  V  V59  1  0.38895527  0.62858016  0.24919553  1
  V  V60  1  0.62582067  0.37604017  0.75095763  1
  V  V61  1  0.87379224  0.12819636  0.74833395  1
  V  V62  1  0.49244700  0.88131658  0.37386032  1
  V  V63  1  0.50205929  0.12563760  0.12524335  1
  V  V64  1  0.12454516  0.37496136  0.74910041  1
  V  V65  1  0.24269587  0.62775707  0.87576916  1
  V  V66  1  0.38109089  0.24640633  0.62298897  1
  V  V67  1  0.75472835  0.86540275  0.12564025  1
  V  V68  1  0.25142046  0.49801895  0.74994351  1
  V  V69  1  0.37539359  0.37796663  0.00367287  1
  V  V70  1  0.75614058  -0.00289160  0.25573922  1
  V  V71  1  0.62489324  0.50082963  0.62470845  1
  V  V72  1  0.13255317  0.37508295  0.23999956  1
  V  V73  1  0.62689732  0.25241487  0.88269944  1
  V  V74  1  0.24988532  0.12598997  0.87750011  1
  V  V75  1  0.37768734  0.12808681  0.74908742  1
  V  V76  1  0.88128714  0.12298165  0.25110263  1
  V  V77  1  0.12042176  0.12164249  0.01579973  1
  V  V78  1  -0.00280977  0.37706026  0.88062358  1
  V  V79  1  0.75172990  0.12125468  0.37702759  1
  V  V80  1  0.12211252  0.11490081  0.49813170  1
  V  V81  1  0.24733733  -0.00041495  0.74875194  1
  V  V82  1  0.61949843  0.75028244  0.37453322  1
  V  V83  1  0.00038262  0.49917236  0.50410167  1
  V  V84  1  -0.00471456  0.74508108  0.23857844  1
  Zn  Zn85  1  0.50239920  0.00245545  0.00031915  1
  Zn  Zn86  1  0.25072926  0.87034798  0.62069205  1
  Zn  Zn87  1  0.74579673  -0.00025818  0.74920375  1
  Zn  Zn88  1  0.11185470  0.85374345  0.74420875  1
  Zn  Zn89  1  0.74764183  0.62656242  0.87356486  1
  Zn  Zn90  1  0.37085595  0.87468552  0.49859151  1
  Zn  Zn91  1  0.74839833  0.49737844  0.23402411  1
  Zn  Zn92  1  0.11337950  0.63370417  -0.00395152  1
  Zn  Zn93  1  0.62065117  0.00003085  0.62778571  1
  Zn  Zn94  1  0.12450623  0.49989148  0.62373764  1
  Zn  Zn95  1  0.25025696  0.37547923  0.62388661  1
  Zn  Zn96  1  0.37824277  0.50014747  0.87687392  1
  Zn  Zn97  1  0.25598659  0.11432171  0.38059373  1
  Zn  Zn98  1  -0.00861017  0.50495761  0.01184540  1
  Zn  Zn99  1  0.50062838  0.37896973  0.87597348  1
  Zn  Zn100  1  0.12806815  0.62065630  0.49568295  1
  Zn  Zn101  1  0.62313158  0.87797701  0.74813660  1
  Zn  Zn102  1  0.75057049  0.74505047  0.00289408  1
  Zn  Zn103  1  0.01013243  -0.00374206  0.01079377  1
  Zn  Zn104  1  0.87805435  0.37229107  0.50146324  1
  Zn  Zn105  1  0.87593251  0.50424309  0.87525038  1
  Zn  Zn106  1  0.24757441  -0.00118110  0.25164325  1
  Zn  Zn107  1  0.19241120  0.18853974  0.18983596  1
  Zn  Zn108  1  0.18744423  0.18612952  0.68538980  1
  Zn  Zn109  1  0.19278745  0.68985568  0.18900061  1
  Zn  Zn110  1  0.18271380  0.68493916  0.68272960  1
  Zn  Zn111  1  0.68832055  0.18896068  0.19305477  1
  Zn  Zn112  1  0.68957975  0.18880280  0.68956048  1
  Zn  Zn113  1  0.68612103  0.68598665  0.19150613  1
  Zn  Zn114  1  0.68561691  0.69240972  0.68651673  1
  Zn  Zn115  1  0.31006221  0.31316161  0.31596608  1
  Zn  Zn116  1  0.31425706  0.31394906  0.81615819  1
  Zn  Zn117  1  0.30908994  0.80939282  0.31246177  1
  Zn  Zn118  1  0.28436232  0.79448973  0.79426099  1
  Zn  Zn119  1  0.81274383  0.31144544  0.31500560  1
  Zn  Zn120  1  0.81191534  0.31167338  0.81688057  1
  Zn  Zn121  1  0.81426426  0.80982259  0.31612490  1
  Zn  Zn122  1  0.81170351  0.81408126  0.81443402  1
  Zn  Zn123  1  0.18746448  0.43614141  0.43495920  1
  Zn  Zn124  1  0.18912350  0.43775062  0.93595151  1
  Zn  Zn125  1  0.18889833  0.93243352  0.43104508  1
  Zn  Zn126  1  0.18723065  0.93827419  0.93844137  1
  Zn  Zn127  1  0.69095647  0.43774999  0.43592230  1
  Zn  Zn128  1  0.68461201  0.44361355  0.94037621  1
  Zn  Zn129  1  0.68616081  0.93768100  0.44046343  1
  Zn  Zn130  1  0.68886984  0.93859407  0.93784844  1
  Zn  Zn131  1  0.31215922  0.06369995  0.06472894  1
  Zn  Zn132  1  0.31181325  0.06174982  0.56461301  1
  Zn  Zn133  1  0.30917938  0.56200475  0.06809653  1
  Zn  Zn134  1  0.30983526  0.56489674  0.56296508  1
  Zn  Zn135  1  0.84816383  0.04336936  0.08190176  1
  Zn  Zn136  1  0.81031024  0.06127523  0.56603794  1
  Zn  Zn137  1  0.80068079  0.55567997  0.06177772  1
  Zn  Zn138  1  0.81668541  0.56303554  0.56386528  1
  Zn  Zn139  1  0.43876480  0.43572521  0.18921688  1
  Zn  Zn140  1  0.43752969  0.43538149  0.68296679  1
  Zn  Zn141  1  0.44183398  0.93522121  0.18335950  1
  Zn  Zn142  1  0.43079504  0.93656914  0.68231359  1
  Zn  Zn143  1  0.93551340  0.43689574  0.18532015  1
  Zn  Zn144  1  0.93701551  0.44043867  0.68958158  1
  Zn  Zn145  1  0.94024859  0.93438399  0.18582259  1
  Zn  Zn146  1  0.93509751  0.93775195  0.68785886  1
  Zn  Zn147  1  0.06302923  0.06126032  0.31257843  1
  Zn  Zn148  1  0.06149548  0.05980769  0.81643685  1
  Zn  Zn149  1  0.05860175  0.56184741  0.30753936  1
  Zn  Zn150  1  0.05953836  0.56397171  0.81191252  1
  Zn  Zn151  1  0.56578847  0.06373675  0.31694717  1
  Zn  Zn152  1  0.56395648  0.06334534  0.81176572  1
  Zn  Zn153  1  0.56137674  0.55716970  0.31413762  1
  Zn  Zn154  1  0.55994296  0.56167110  0.81674530  1
  Zn  Zn155  1  0.44068625  0.18629639  0.43727353  1
  Zn  Zn156  1  0.44205679  0.18873425  0.93854057  1
  Zn  Zn157  1  0.43812315  0.68535221  0.43036954  1
  Zn  Zn158  1  0.43299040  0.68642011  0.93572499  1
  Zn  Zn159  1  0.93820501  0.18533419  0.43362793  1
  Zn  Zn160  1  0.93766312  0.19148228  0.94108355  1
  Zn  Zn161  1  0.94288301  0.68702693  0.43198909  1
  Zn  Zn162  1  0.93779681  0.68536794  0.93487909  1
  Zn  Zn163  1  0.06088954  0.31519307  0.06234382  1
  Zn  Zn164  1  0.06142765  0.31141089  0.56411766  1
  Zn  Zn165  1  0.06225713  0.81354505  0.06070534  1
  Zn  Zn166  1  0.06723267  0.81629080  0.55468501  1
  Zn  Zn167  1  0.55844312  0.31267749  0.06292250  1
  Zn  Zn168  1  0.56573569  0.31306988  0.56389704  1
  Zn  Zn169  1  0.56445776  0.81289977  0.06214191  1
  Zn  Zn170  1  0.56297378  0.81534052  0.55909965  1
  O  O171  1  0.12798083  0.13036489  0.11461289  1
  O  O172  1  0.11504751  0.12128815  0.61847652  1
  O  O173  1  0.13015735  0.61347116  0.12356683  1
  O  O174  1  0.10943983  0.61980975  0.62450471  1
  O  O175  1  0.62419930  0.12381107  0.12071114  1
  O  O176  1  0.63035566  0.12612000  0.61197663  1
  O  O177  1  0.62315891  0.63137256  0.11229956  1
  O  O178  1  0.61785337  0.61984287  0.61910507  1
  O  O179  1  0.37514059  0.38010782  0.38761334  1
  O  O180  1  0.37740928  0.37453024  0.89099632  1
  O  O181  1  0.38958492  0.86913989  0.37191771  1
  O  O182  1  0.38637644  0.87899448  0.88023525  1
  O  O183  1  0.88115507  0.38639333  0.37397639  1
  O  O184  1  0.88095159  0.37098855  0.88820489  1
  O  O185  1  0.88034390  0.86993297  0.38994160  1
  O  O186  1  0.88339134  0.88186849  0.87710666  1
  O  O187  1  0.24210481  0.00341961  0.36521565  1
  O  O188  1  0.25580154  0.00703589  0.86990102  1
  O  O189  1  0.26270710  0.49717075  0.37038870  1
  O  O190  1  0.25428460  0.50486374  0.86504264  1
  O  O191  1  0.74404711  0.00917611  0.36884104  1
  O  O192  1  0.75403779  0.01237372  0.87158556  1
  O  O193  1  0.75879193  0.50569565  0.37110418  1
  O  O194  1  0.74829017  0.50278386  0.86041569  1
  O  O195  1  0.23794123  0.49682556  0.13478305  1
  O  O196  1  0.24767306  0.49755608  0.63693326  1
  O  O197  1  0.25763385  0.98457590  0.12976638  1
  O  O198  1  0.23555907  1.00717628  0.63233109  1
  O  O199  1  0.75459725  0.47981696  0.12460030  1
  O  O200  1  0.74604737  0.49463798  0.63287467  1
  O  O201  1  0.74918680  0.98956756  0.13522551  1
  O  O202  1  0.74711620  0.98719784  0.62574846  1
  O  O203  1  0.00747279  0.36793285  0.25454847  1
  O  O204  1  0.00449776  0.36691547  0.75368191  1
  O  O205  1  0.00122228  0.86432370  0.25458951  1
  O  O206  1  -0.00044221  0.87930242  0.76380581  1
  O  O207  1  0.50876427  0.36362273  0.24908119  1
  O  O208  1  0.50683167  0.36633405  0.75018581  1
  O  O209  1  0.51480051  0.88382528  0.25784139  1
  O  O210  1  0.49679535  0.86801858  0.75534469  1
  O  O211  1  0.49399607  0.13431069  0.24703200  1
  O  O212  1  0.49482632  0.14018856  0.75631713  1
  O  O213  1  0.48807104  0.62014864  0.25051084  1
  O  O214  1  0.49331111  0.62978501  0.74281474  1
  O  O215  1  0.98824169  0.13369426  0.25840350  1
  O  O216  1  0.99452255  0.13158368  0.74489304  1
  O  O217  1  0.99093220  0.63649798  0.25019109  1
  O  O218  1  0.98857194  0.62206961  0.73817729  1
  O  O219  1  0.37114428  0.25510112  0.00844845  1
  O  O220  1  0.37111117  0.25401813  0.50397298  1
  O  O221  1  0.37098405  0.75406374  0.01009110  1
  O  O222  1  0.35968571  0.74785051  0.48680030  1
  O  O223  1  0.87594888  0.25628126  0.01491719  1
  O  O224  1  0.86269389  0.25117829  0.49575525  1
  O  O225  1  0.86825680  0.76184296  -0.01161105  1
  O  O226  1  0.86469814  0.74841025  0.49493152  1
  O  O227  1  0.13152200  0.24298938  0.49810357  1
  O  O228  1  0.13342233  0.24633862  0.99763585  1
  O  O229  1  0.12928787  0.74615902  0.48521996  1
  O  O230  1  0.14038553  0.74922011  1.00497881  1
  O  O231  1  0.63150656  0.24370117  0.49544730  1
  O  O232  1  0.62026559  0.24516787  0.98981077  1
  O  O233  1  0.63407239  0.74497628  0.49298971  1
  O  O234  1  0.62123238  0.73896930  0.99278616  1
  O  O235  1  0.49067128  0.24445311  0.13294121  1
  O  O236  1  0.49340246  0.25330441  0.63347520  1
  O  O237  1  0.48755494  0.75721789  0.12642344  1
  O  O238  1  0.50428767  0.73937626  0.62990732  1
  O  O239  1  0.99528514  0.25230197  0.13640448  1
  O  O240  1  1.00231706  0.24223642  0.63786415  1
  O  O241  1  1.00239358  0.75316667  0.13984307  1
  O  O242  1  1.00522695  0.74092898  0.62168789  1
  O  O243  1  0.00421073  0.25622508  0.36601590  1
  O  O244  1  0.00443690  0.25853516  0.86657654  1
  O  O245  1  0.00892368  0.75744839  0.36699518  1
  O  O246  1  0.00090369  0.76440418  0.87361498  1
  O  O247  1  0.51008779  0.24599883  0.36774113  1
  O  O248  1  0.50946517  0.25496792  0.86825657  1
  O  O249  1  0.51375634  0.75963738  0.38240794  1
  O  O250  1  0.50358468  0.75639404  0.86754433  1
  O  O251  1  0.24044197  0.13149684  0.50032982  1
  O  O252  1  0.24366905  0.13597432  0.99831803  1
  O  O253  1  0.24608449  0.63449425  0.49724804  1
  O  O254  1  0.24951097  0.63011735  0.99299444  1
  O  O255  1  0.74573799  0.13060080  0.49573064  1
  O  O256  1  0.73948080  0.12349781  0.99470679  1
  O  O257  1  0.74634211  0.63001884  0.49581109  1
  O  O258  1  0.73543676  0.62605842  0.99516377  1
  O  O259  1  0.25680639  0.36297337  -0.00334364  1
  O  O260  1  0.25693027  0.36629548  0.50126965  1
  O  O261  1  0.25596786  0.86849681  0.00520215  1
  O  O262  1  0.24861107  0.85870802  0.49537548  1
  O  O263  1  0.75952635  0.37223057  -0.00831143  1
  O  O264  1  0.75077410  0.36724702  0.50851483  1
  O  O265  1  0.75358175  0.87110713  0.00896333  1
  O  O266  1  0.76153528  0.86939239  0.50308769  1
  O  O267  1  0.13184244  0.49507388  0.24501192  1
  O  O268  1  0.13187440  0.49067868  0.74996153  1
  O  O269  1  0.11894024  0.98583389  0.24512671  1
  O  O270  1  0.13310875  1.00248807  0.74380670  1
  O  O271  1  0.62369598  0.48238510  0.25575676  1
  O  O272  1  0.63075309  0.49731047  0.74398265  1
  O  O273  1  0.63714676  0.99541044  0.24660832  1
  O  O274  1  0.62647211  0.99750251  0.74595129  1
  O  O275  1  0.38128779  0.01443529  0.24551943  1
  O  O276  1  0.37322834  0.01260554  0.75570243  1
  O  O277  1  0.37133372  0.50466667  0.25577297  1
  O  O278  1  0.36876773  0.50299883  0.75027813  1
  O  O279  1  0.86400407  0.00866457  0.25066832  1
  O  O280  1  0.87460197  0.01152294  0.76129302  1
  O  O281  1  0.87833891  0.50880838  0.25602349  1
  O  O282  1  0.86610047  0.50706538  0.75123433  1
  O  O283  1  0.11985492  0.36854785  0.36579702  1
  O  O284  1  0.11918124  0.36877332  0.86680747  1
  O  O285  1  0.11471338  0.86359839  0.36558052  1
  O  O286  1  0.10935959  0.88311490  0.87453992  1
  O  O287  1  0.62557689  0.36300170  0.37664419  1
  O  O288  1  0.62682082  0.36731613  0.86984032  1
  O  O289  1  0.62118280  0.86832680  0.36957384  1
  O  O290  1  0.61186899  0.86909279  0.87623791  1
  O  O291  1  0.38173443  0.13267853  0.13332669  1
  O  O292  1  0.37148065  0.13917443  0.63053093  1
  O  O293  1  0.37170254  0.63147460  0.13890064  1
  O  O294  1  0.38290440  0.62021105  0.63628595  1
  O  O295  1  0.86530594  0.14292741  0.13852815  1
  O  O296  1  0.88349788  0.11960159  0.63470683  1
  O  O297  1  0.86924449  0.62386896  0.13041190  1
  O  O298  1  0.88772195  0.62313001  0.63376108  1
  O  O299  1  0.26367556  0.24816343  0.11952039  1
  O  O300  1  0.25607163  0.25096158  0.61412848  1
  O  O301  1  0.26034358  0.75826023  0.11975126  1
  O  O302  1  0.24423746  0.74803910  0.60310535  1
  O  O303  1  0.75859256  0.25565883  0.12929528  1
  O  O304  1  0.74487597  0.25958375  0.61700441  1
  O  O305  1  0.74372632  0.76206651  0.12546506  1
  O  O306  1  0.74601309  0.76125656  0.61462153  1
  O  O307  1  0.24395591  0.24525776  0.38675086  1
  O  O308  1  0.24629010  0.24481627  0.88357885  1
  O  O309  1  0.23251563  0.75119591  0.37754672  1
  O  O310  1  0.26586923  0.73729254  0.89232061  1
  O  O311  1  0.74301652  0.24416437  0.38406464  1
  O  O312  1  0.74160669  0.23632154  0.87080497  1
  O  O313  1  0.74139334  0.74334741  0.38197746  1
  O  O314  1  0.73271552  0.75168946  0.87402488  1
  O  O315  1  0.01937167  0.13069603  -0.00468756  1
  O  O316  1  0.00550986  0.13204845  0.51157817  1
  O  O317  1  0.00353905  0.61445153  -0.01243342  1
  O  O318  1  -0.00081998  0.61873783  0.51135399  1
  O  O319  1  0.51236193  0.12530874  0.00740417  1
  O  O320  1  0.50931145  0.11393269  0.49391970  1
  O  O321  1  0.50607256  0.61510662  -0.00285909  1
  O  O322  1  0.50347685  0.62053989  0.50637970  1
  O  O323  1  0.49207054  0.38501135  0.50802588  1
  O  O324  1  0.49433377  0.38638595  1.00000386  1
  O  O325  1  0.49831108  0.88707973  0.49150545  1
  O  O326  1  0.49431915  0.87776891  0.99283322  1
  O  O327  1  0.99897632  0.38027189  0.49360617  1
  O  O328  1  0.99361321  0.37877130  0.99301960  1
  O  O329  1  0.98619772  0.87233258  0.49376989  1
  O  O330  1  0.99298119  0.87608353  0.99111047  1
  O  O331  1  0.48890598  0.50349872  0.38916548  1
  O  O332  1  0.49644633  0.49674937  0.88655552  1
  O  O333  1  0.50844375  0.99136643  0.38658290  1
  O  O334  1  0.49446962  0.99349908  0.87659759  1
  O  O335  1  0.99450818  0.49636046  0.38319207  1
  O  O336  1  0.99714857  0.48380774  0.86837978  1
  O  O337  1  1.00174891  0.98255759  0.36975724  1
  O  O338  1  0.99050783  0.99836439  0.88448453  1
  O  O339  1  -0.04035877  0.01253759  0.11022728  1
  O  O340  1  0.01100382  0.01015366  0.63187895  1
  O  O341  1  0.02020503  0.49382022  0.12815652  1
  O  O342  1  -0.00023328  0.49932778  0.61241260  1
  O  O343  1  0.51189293  0.00807943  0.12445855  1
  O  O344  1  0.50184526  -0.00194254  0.60807472  1
  O  O345  1  0.49746191  0.49872832  0.11189191  1
  O  O346  1  0.50314275  0.50979195  0.61579281  1
  O  O347  1  0.24215497  0.38634929  0.25757128  1
  O  O348  1  0.24271971  0.37977258  0.75107638  1
  O  O349  1  0.23904866  0.87180229  0.24264930  1
  O  O350  1  0.26237055  0.89744766  0.74754247  1
  O  O351  1  0.73340186  0.37205258  0.25803912  1
  O  O352  1  0.74666365  0.38060891  0.74467727  1
  O  O353  1  0.74609716  0.88017807  0.24791244  1
  O  O354  1  0.74941105  0.87576486  0.73990275  1
  O  O355  1  0.26667935  0.12430982  0.24873549  1
  O  O356  1  0.25606757  0.12001366  0.75605868  1
  O  O357  1  0.25766953  0.61162200  0.24909861  1
  O  O358  1  0.25772373  0.61590405  0.75344747  1
  O  O359  1  0.75543770  0.11825995  0.25864427  1
  O  O360  1  0.75905776  0.12455767  0.75660668  1
  O  O361  1  0.75832677  0.62174053  0.25545103  1
  O  O362  1  0.75986348  0.62007180  0.74400081  1
  O  O363  1  0.37536214  0.13157021  0.35961985  1
  O  O364  1  0.36917882  0.12373616  0.87180745  1
  O  O365  1  0.37677431  0.61616053  0.36123698  1
  O  O366  1  0.36876846  0.62101669  0.86169990  1
  O  O367  1  0.86139258  0.13174756  0.36582499  1
  O  O368  1  0.86932483  0.12091955  0.87391460  1
  O  O369  1  0.87265835  0.61444526  0.37061853  1
  O  O370  1  0.87021888  0.62449751  0.85889680  1
  O  O371  1  0.12642110  0.37702900  0.13706380  1
  O  O372  1  0.12659943  0.37423221  0.63835508  1
  O  O373  1  0.13375639  0.86908546  0.13310650  1
  O  O374  1  0.12758593  0.88385181  0.62743419  1
  O  O375  1  0.62373253  0.36785222  0.13856263  1
  O  O376  1  0.63476836  0.38205458  0.63125012  1
  O  O377  1  0.63062076  0.88019942  0.13388871  1
  O  O378  1  0.63507729  0.87599233  0.62483108  1
  O  O379  1  0.12042717  0.25536667  0.25309527  1
  O  O380  1  0.11892997  0.25471016  0.75545539  1
  O  O381  1  0.11590847  0.75315766  0.25571095  1
  O  O382  1  0.17656950  0.76407578  0.75867300  1
  O  O383  1  0.61808621  0.25650878  0.25893960  1
  O  O384  1  0.61952376  0.25358374  0.75878551  1
  O  O385  1  0.63046331  0.76106095  0.26045239  1
  O  O386  1  0.60968172  0.75107139  0.75638469  1
  O  O387  1  0.38083385  0.24796462  0.24559577  1
  O  O388  1  0.38209224  0.24976483  0.74292721  1
  O  O389  1  0.37158933  0.73530127  0.24639037  1
  O  O390  1  0.38436814  0.74089073  0.75203066  1
  O  O391  1  0.88041689  0.24826658  0.24145634  1
  O  O392  1  0.88290946  0.23795829  0.75697844  1
  O  O393  1  0.88679881  0.74118362  0.25459103  1
  O  O394  1  0.87003950  0.73813776  0.74791478  1
  O  O395  1  0.37836877  0.49395360  0.49514779  1
  O  O396  1  0.38112389  0.49448827  1.00275547  1
  O  O397  1  0.38755155  1.00782401  0.49562654  1
  O  O398  1  0.37596843  0.99436345  0.99372642  1
  O  O399  1  0.88232590  0.49768404  0.49125673  1
  O  O400  1  0.87404574  0.48845398  0.99462544  1
  O  O401  1  0.87347707  0.99210795  0.49625979  1
  O  O402  1  0.86264741  0.98438839  0.98366441  1
  O  O403  1  0.12803635  0.01652972  0.00188958  1
  O  O404  1  0.12682167  0.01044184  0.50758804  1
  O  O405  1  0.12968556  0.49713762  0.01482911  1
  O  O406  1  0.11650652  0.50090352  0.49998413  1
  O  O407  1  0.62606070  0.00926986  0.00783601  1
  O  O408  1  0.61821844  0.00957628  0.50189291  1
  O  O409  1  0.61328536  0.51333946  -0.00236616  1
  O  O410  1  0.61798364  0.50522004  0.50277144  1
  O  O411  1  0.37939663  0.36653430  0.11473843  1
  O  O412  1  0.37242177  0.36404837  0.61454762  1
  O  O413  1  0.37028787  0.86764700  0.12170799  1
  O  O414  1  0.36430423  0.88274230  0.61277622  1
  O  O415  1  0.87961159  0.36394031  0.11408215  1
  O  O416  1  0.86301089  0.37796341  0.62434776  1
  O  O417  1  0.86604414  0.87292816  0.11460571  1
  O  O418  1  0.86999159  0.87987150  0.61002310  1
  O  O419  1  0.12088607  0.13215327  0.38409150  1
  O  O420  1  0.13338656  0.13148686  0.87934333  1
  O  O421  1  0.11601053  0.63836769  0.37323536  1
  O  O422  1  0.13911516  0.62075246  0.87292418  1
  O  O423  1  0.63618664  0.13497987  0.38211061  1
  O  O424  1  0.63143365  0.13150534  0.88315932  1
  O  O425  1  0.62849886  0.63100922  0.37870037  1
  O  O426  1  0.62374018  0.63455564  0.88067419  1
