# generated using pymatgen
data_V85Zn86O256
_symmetry_space_group_name_H-M   'P 1'
_cell_length_a   16.92160732
_cell_length_b   16.92280562
_cell_length_c   16.91984288
_cell_angle_alpha   89.95801338
_cell_angle_beta   90.06558411
_cell_angle_gamma   89.97433929
_symmetry_Int_Tables_number   1
_chemical_formula_structural   V85Zn86O256
_chemical_formula_sum   'V85 Zn86 O256'
_cell_volume   4845.17937293
_cell_formula_units_Z   1
loop_
 _symmetry_equiv_pos_site_id
 _symmetry_equiv_pos_as_xyz
  1  'x, y, z'
loop_
 _atom_site_type_symbol
 _atom_site_label
 _atom_site_symmetry_multiplicity
 _atom_site_fract_x
 _atom_site_fract_y
 _atom_site_fract_z
 _atom_site_occupancy
  V  V0  1  -0.00208275  0.63134307  0.62471789  1
  V  V1  1  0.75091846  0.49923061  0.75363036  1
  V  V2  1  -0.00728412  0.49349094  0.49902575  1
  V  V3  1  0.87912045  0.49293138  0.87782715  1
  V  V4  1  0.62473352  0.00133456  0.12373158  1
  V  V5  1  0.63537570  0.74890072  0.87963759  1
  V  V6  1  0.62447731  0.25084468  0.37485895  1
  V  V7  1  0.00838730  0.87759902  0.38196563  1
  V  V8  1  0.12192125  0.00378113  0.12903706  1
  V  V9  1  0.75421582  0.86478683  0.62211188  1
  V  V10  1  0.12296169  0.37200963  0.76275669  1
  V  V11  1  0.63463807  0.62947543  0.01257180  1
  V  V12  1  0.00450085  0.25162807  0.76157371  1
  V  V13  1  0.63222999  0.62503362  0.49399701  1
  V  V14  1  0.74992060  0.12405066  0.37453539  1
  V  V15  1  0.87392324  0.74974894  0.12091471  1
  V  V16  1  0.50515395  0.37105291  0.87507635  1
  V  V17  1  0.24922756  0.62809951  0.87493059  1
  V  V18  1  0.25617737  0.87453027  0.13027350  1
  V  V19  1  0.87632793  0.62801717  0.74985315  1
  V  V20  1  0.87099078  0.62515602  0.26136924  1
  V  V21  1  0.50112025  0.37608407  0.37359784  1
  V  V22  1  0.37221167  0.25016410  0.12966085  1
  V  V23  1  0.75124501  0.87289044  0.11482646  1
  V  V24  1  0.50982343  0.50140057  0.00513063  1
  V  V25  1  -0.00061012  -0.00667512  0.00041790  1
  V  V26  1  0.24660268  0.37274656  0.62388839  1
  V  V27  1  0.50005750  0.62469897  0.62406328  1
  V  V28  1  0.49902004  0.24374625  0.25100493  1
  V  V29  1  0.49344124  0.12471984  0.12440118  1
  V  V30  1  0.87857467  0.86858793  0.50158779  1
  V  V31  1  0.50088408  0.74913973  0.75286550  1
  V  V32  1  -0.00901965  0.36849328  0.37067124  1
  V  V33  1  0.61845109  0.13143191  -0.00767462  1
  V  V34  1  0.75160266  -0.00180624  0.24893541  1
  V  V35  1  0.37646676  0.37678961  0.00176665  1
  V  V36  1  0.37501314  0.62567530  0.75001980  1
  V  V37  1  0.00358949  0.75819234  0.75629988  1
  V  V38  1  0.50342954  0.24596214  0.75089495  1
  V  V39  1  0.62434063  0.49882401  0.62498590  1
  V  V40  1  0.75301320  0.24802211  0.00770839  1
  V  V41  1  0.36912954  0.50357867  0.36064732  1
  V  V42  1  0.12903829  0.62914393  0.49673163  1
  V  V43  1  0.37388744  0.75484565  0.61390592  1
  V  V44  1  0.12348926  0.11724962  0.48972741  1
  V  V45  1  0.74938004  0.00035434  0.74815334  1
  V  V46  1  0.25086103  0.38487767  0.13028862  1
  V  V47  1  0.87921666  0.36861764  0.00954781  1
  V  V48  1  0.48701163  0.75329863  0.24467131  1
  V  V49  1  0.48756830  0.62575439  0.12985796  1
  V  V50  1  -0.00469219  0.13913442  0.12826576  1
  V  V51  1  0.12307307  0.62598154  0.00311885  1
  V  V52  1  0.74534360  0.13215491  0.87225355  1
  V  V53  1  0.87897925  -0.00598034  0.87432206  1
  V  V54  1  0.36756242  0.11651713  0.74677227  1
  V  V55  1  0.87982329  -0.00054691  0.38026768  1
  V  V56  1  0.00217722  0.49539257  0.00123374  1
  V  V57  1  0.24691806  0.88299871  0.62113024  1
  V  V58  1  0.25905358  0.01836949  0.25250737  1
  V  V59  1  0.12873302  0.37776819  0.25522139  1
  V  V60  1  0.00187850  0.12271946  0.61942480  1
  V  V61  1  0.62010749  0.12041771  0.49853038  1
  V  V62  1  0.25238519  0.75077284  0.00645787  1
  V  V63  1  0.49272696  0.87644161  0.38756605  1
  V  V64  1  0.37958068  0.50306123  0.87507573  1
  V  V65  1  0.49813525  0.00099825  -0.00301009  1
  V  V66  1  0.75696027  0.37601870  0.62153383  1
  V  V67  1  0.37576962  0.24833796  0.62293272  1
  V  V68  1  0.37759634  0.87053248  0.00293560  1
  V  V69  1  0.87666174  0.13667408  0.24823971  1
  V  V70  1  0.12372607  0.49895946  0.62582434  1
  V  V71  1  0.12971542  0.87145313  0.25635465  1
  V  V72  1  0.49646955  0.49992117  0.49919638  1
  V  V73  1  0.62549621  0.37227140  0.75215063  1
  V  V74  1  0.36459071  -0.00407042  0.87070156  1
  V  V75  1  0.63082058  0.75070054  0.37100760  1
  V  V76  1  0.24927893  0.62845634  0.36204692  1
  V  V77  1  0.75581257  0.25425555  0.49866427  1
  V  V78  1  0.37735298  0.01067030  0.38345950  1
  V  V79  1  0.61935417  -0.00394715  0.61915363  1
  V  V80  1  0.73975162  0.50440275  0.25055590  1
  V  V81  1  0.87493631  0.12909953  0.74670772  1
  V  V82  1  0.62723588  0.87339684  0.75020870  1
  V  V83  1  0.00288801  0.74992445  0.25504727  1
  V  V84  1  0.24636275  0.24694335  0.48980717  1
  Zn  Zn85  1  0.12770079  0.50441848  0.13221494  1
  Zn  Zn86  1  0.86917574  0.50090451  0.37930446  1
  Zn  Zn87  1  0.24021607  0.13187440  0.87296120  1
  Zn  Zn88  1  0.75405864  0.62496487  0.88324633  1
  Zn  Zn89  1  0.49728454  0.11728866  0.62042017  1
  Zn  Zn90  1  -0.00013296  0.62451764  0.12936091  1
  Zn  Zn91  1  0.24892040  0.75182515  0.49330596  1
  Zn  Zn92  1  0.11864205  0.76058968  0.87990646  1
  Zn  Zn93  1  0.12352009  0.24511043  0.36676953  1
  Zn  Zn94  1  0.12289220  0.13258583  -0.00837075  1
  Zn  Zn95  1  0.11814902  -0.00286706  0.62130147  1
  Zn  Zn96  1  0.87902573  0.25598260  0.62142929  1
  Zn  Zn97  1  0.15074975  -0.09582104  0.77180971  1
  Zn  Zn98  1  0.87760121  0.86714490  -0.00696686  1
  Zn  Zn99  1  0.62191367  0.37907852  0.23596416  1
  Zn  Zn100  1  0.23899555  0.25377744  -0.00688230  1
  Zn  Zn101  1  0.50178943  0.87333806  0.87693113  1
  Zn  Zn102  1  0.24901034  0.50078810  0.75068655  1
  Zn  Zn103  1  0.75670147  0.74334278  0.49568739  1
  Zn  Zn104  1  0.62275022  0.87483178  0.24880331  1
  Zn  Zn105  1  0.37202803  0.37609316  0.49895658  1
  Zn  Zn106  1  0.74441150  0.38123253  0.12315263  1
  Zn  Zn107  1  0.18135747  0.19676672  0.17943315  1
  Zn  Zn108  1  0.18402819  0.18560208  0.68500712  1
  Zn  Zn109  1  0.18883155  0.69013936  0.18736124  1
  Zn  Zn110  1  0.18629790  0.69151133  0.68692324  1
  Zn  Zn111  1  0.68368958  0.18664644  0.18692200  1
  Zn  Zn112  1  0.68567313  0.18786871  0.68333271  1
  Zn  Zn113  1  0.68849243  0.68882129  0.19096127  1
  Zn  Zn114  1  0.68896464  0.68461324  0.68766475  1
  Zn  Zn115  1  0.31417870  0.31593294  0.30970252  1
  Zn  Zn116  1  0.31426557  0.31373141  0.80859260  1
  Zn  Zn117  1  0.31473672  0.81402916  0.31605968  1
  Zn  Zn118  1  0.31157947  0.81130146  0.81172227  1
  Zn  Zn119  1  0.80826273  0.31875637  0.31039748  1
  Zn  Zn120  1  0.81535000  0.31215303  0.81621392  1
  Zn  Zn121  1  0.81496331  0.81468701  0.31003323  1
  Zn  Zn122  1  0.81512825  0.81059463  0.80886487  1
  Zn  Zn123  1  0.18450957  0.43999765  0.43766252  1
  Zn  Zn124  1  0.19114989  0.44049731  0.94237199  1
  Zn  Zn125  1  0.19792626  0.93801965  0.43861028  1
  Zn  Zn126  1  0.18634875  0.94199707  0.94548143  1
  Zn  Zn127  1  0.68825852  0.43941817  0.43302120  1
  Zn  Zn128  1  0.68874639  0.43692106  0.94062473  1
  Zn  Zn129  1  0.68732663  0.93328958  0.43590304  1
  Zn  Zn130  1  0.68834412  0.94215583  0.93547141  1
  Zn  Zn131  1  0.30985573  0.06345022  0.05973492  1
  Zn  Zn132  1  0.30885508  0.06472041  0.55808977  1
  Zn  Zn133  1  0.31555319  0.56235609  0.06141083  1
  Zn  Zn134  1  0.31143137  0.56369211  0.56060367  1
  Zn  Zn135  1  0.81443402  0.06315685  0.06110049  1
  Zn  Zn136  1  0.80913612  0.05972086  0.56191933  1
  Zn  Zn137  1  0.81719028  0.56159109  0.07086478  1
  Zn  Zn138  1  0.81397061  0.56212213  0.56583998  1
  Zn  Zn139  1  0.44352604  0.43769541  0.18639905  1
  Zn  Zn140  1  0.43511813  0.43553786  0.68765686  1
  Zn  Zn141  1  0.43604843  0.93844089  0.19025908  1
  Zn  Zn142  1  0.43654520  0.93282032  0.68540698  1
  Zn  Zn143  1  0.93663488  0.43985231  0.18923734  1
  Zn  Zn144  1  0.94042745  0.43787888  0.69056474  1
  Zn  Zn145  1  0.93708865  0.93761445  0.19086815  1
  Zn  Zn146  1  0.93879383  0.94150311  0.68455640  1
  Zn  Zn147  1  0.06154770  0.06030091  0.30922347  1
  Zn  Zn148  1  0.06399401  0.06358092  0.81192076  1
  Zn  Zn149  1  0.06252687  0.55952110  0.31474458  1
  Zn  Zn150  1  0.06258427  0.56283197  0.81529797  1
  Zn  Zn151  1  0.56010003  0.05997166  0.31239906  1
  Zn  Zn152  1  0.55706506  0.06035881  0.81096941  1
  Zn  Zn153  1  0.55993397  0.56687020  0.31176911  1
  Zn  Zn154  1  0.56747992  0.56409598  0.81693689  1
  Zn  Zn155  1  0.43579300  0.18654169  0.43878044  1
  Zn  Zn156  1  0.40497384  0.20012342  0.92512400  1
  Zn  Zn157  1  0.44062315  0.68395995  0.43072376  1
  Zn  Zn158  1  0.44153853  0.68893674  0.94039596  1
  Zn  Zn159  1  0.93825980  0.18814506  0.43587826  1
  Zn  Zn160  1  0.93820659  0.18199982  0.93967633  1
  Zn  Zn161  1  0.94449436  0.69010003  0.43776165  1
  Zn  Zn162  1  0.93784033  0.68344541  0.93675857  1
  Zn  Zn163  1  0.06354577  0.31639314  0.06586096  1
  Zn  Zn164  1  0.06130197  0.30866233  0.56076351  1
  Zn  Zn165  1  0.06442019  0.81388015  0.06737659  1
  Zn  Zn166  1  0.06347283  0.81083996  0.56380676  1
  Zn  Zn167  1  0.56576775  0.30936685  0.06105132  1
  Zn  Zn168  1  0.56512474  0.31173618  0.56223187  1
  Zn  Zn169  1  0.56429334  0.81076951  0.06557572  1
  Zn  Zn170  1  0.56447095  0.80943708  0.56174396  1
  O  O171  1  0.10970000  0.11790920  0.13174116  1
  O  O172  1  0.11674732  0.12493978  0.61272727  1
  O  O173  1  0.12559662  0.62424544  0.11517047  1
  O  O174  1  0.12055731  0.61532171  0.62082069  1
  O  O175  1  0.61400014  0.12067534  0.11579574  1
  O  O176  1  0.62530839  0.11411885  0.61653832  1
  O  O177  1  0.61662053  0.63279540  0.11471283  1
  O  O178  1  0.61805392  0.61885677  0.61861979  1
  O  O179  1  0.38364890  0.38615279  0.37724248  1
  O  O180  1  0.38737792  0.38546501  0.87753911  1
  O  O181  1  0.38724674  0.88340631  0.37238106  1
  O  O182  1  0.37703160  0.87901791  0.88203731  1
  O  O183  1  0.88780059  0.37665116  0.37269926  1
  O  O184  1  0.87168297  0.38755128  0.88436662  1
  O  O185  1  0.88337661  0.88143910  0.38040574  1
  O  O186  1  0.86699613  0.88872231  0.87509568  1
  O  O187  1  0.26451760  -0.00260357  0.36214633  1
  O  O188  1  0.26247750  0.00105824  0.87730746  1
  O  O189  1  0.26427195  0.50540231  0.37996210  1
  O  O190  1  0.25896351  0.51385876  0.87750047  1
  O  O191  1  0.75450601  0.00334810  0.36638852  1
  O  O192  1  0.75584094  0.01095434  0.86746121  1
  O  O193  1  0.75420752  0.49694590  0.36115852  1
  O  O194  1  0.75705414  0.50181330  0.86968288  1
  O  O195  1  0.25175703  0.48921633  0.12072144  1
  O  O196  1  0.24180453  0.49239689  0.62558976  1
  O  O197  1  0.24526234  0.99569964  0.13637885  1
  O  O198  1  0.25414214  0.98481072  0.62224199  1
  O  O199  1  0.75461810  0.50093803  0.14428637  1
  O  O200  1  0.74357370  0.49357628  0.63110668  1
  O  O201  1  0.74675798  0.99608472  0.13096934  1
  O  O202  1  0.74047476  0.99126511  0.63080661  1
  O  O203  1  0.00645932  0.37954558  0.26412089  1
  O  O204  1  0.00727006  0.36139031  0.74675681  1
  O  O205  1  0.00988489  0.87150204  0.25865639  1
  O  O206  1  -0.00831177  0.85650418  0.74082262  1
  O  O207  1  0.50246941  0.36552628  0.25704214  1
  O  O208  1  0.50453214  0.36858622  0.75587080  1
  O  O209  1  0.50098115  0.86371351  0.25097614  1
  O  O210  1  0.50695952  0.86131777  0.74978615  1
  O  O211  1  0.50614147  0.13586605  0.24100354  1
  O  O212  1  0.49181291  0.13169322  0.74458631  1
  O  O213  1  0.50218659  0.63485769  0.23731367  1
  O  O214  1  0.49942607  0.63339263  0.74514911  1
  O  O215  1  0.99055798  0.12086706  0.23899193  1
  O  O216  1  0.99146738  0.13655357  0.74150324  1
  O  O217  1  0.99667106  0.63456374  0.25182735  1
  O  O218  1  0.99465858  0.62844313  0.74385754  1
  O  O219  1  0.38763477  0.26334557  0.01984133  1
  O  O220  1  0.36869051  0.25016531  0.50909902  1
  O  O221  1  0.36974520  0.76252049  -0.00334622  1
  O  O222  1  0.37987669  0.74135672  0.51301850  1
  O  O223  1  0.86681321  0.25724402  -0.00740912  1
  O  O224  1  0.85969616  0.24472356  0.50085090  1
  O  O225  1  0.88251712  0.74932873  0.01511574  1
  O  O226  1  0.87399916  0.76269679  0.49455720  1
  O  O227  1  0.13250060  0.24202475  0.49500963  1
  O  O228  1  0.12791498  0.24548277  1.01271314  1
  O  O229  1  0.12471490  0.73277661  0.50330472  1
  O  O230  1  0.13246102  0.74377008  1.00110532  1
  O  O231  1  0.63363446  0.24278512  0.49454929  1
  O  O232  1  0.63108286  0.23612003  0.99608060  1
  O  O233  1  0.62602661  0.74087185  0.49180272  1
  O  O234  1  0.62146893  0.73839579  0.99397262  1
  O  O235  1  0.49720298  0.24277918  0.13366380  1
  O  O236  1  0.49097754  0.25001120  0.62936308  1
  O  O237  1  0.50152622  0.74272249  0.13676001  1
  O  O238  1  0.49203893  0.74619686  0.63123624  1
  O  O239  1  0.99547851  0.23729781  0.12545481  1
  O  O240  1  0.99573882  0.24098940  0.62965843  1
  O  O241  1  0.99364690  0.75266915  0.13883985  1
  O  O242  1  1.00392293  0.73600465  0.63331026  1
  O  O243  1  0.00213138  0.26536814  0.37912337  1
  O  O244  1  -0.00527545  0.24518845  0.85991568  1
  O  O245  1  -0.00082533  0.76229854  0.36358491  1
  O  O246  1  -0.00076948  0.74657732  0.86141878  1
  O  O247  1  0.50068143  0.25734625  0.36925827  1
  O  O248  1  0.49049179  0.26001759  0.86405942  1
  O  O249  1  0.50297104  0.75898567  0.36502196  1
  O  O250  1  0.51093855  0.75015321  0.86755211  1
  O  O251  1  0.23492968  0.13429449  0.50318053  1
  O  O252  1  0.24709015  0.13039093  0.99740197  1
  O  O253  1  0.24330148  0.62536127  0.49183667  1
  O  O254  1  0.24639747  0.63296574  0.99693830  1
  O  O255  1  0.74130138  0.13145382  0.49362805  1
  O  O256  1  0.74359356  0.12844141  0.99156415  1
  O  O257  1  0.73710791  0.62447139  0.50613461  1
  O  O258  1  0.73775699  0.61989839  1.00485867  1
  O  O259  1  0.26065640  0.37490924  0.00809636  1
  O  O260  1  0.24853350  0.36953630  0.51016774  1
  O  O261  1  0.25728119  0.86995921  0.01029041  1
  O  O262  1  0.25169668  0.86713938  0.51254942  1
  O  O263  1  0.75709458  0.36418080  -0.00124809  1
  O  O264  1  0.74140793  0.36750926  0.50908920  1
  O  O265  1  0.75353422  0.88139710  0.01156175  1
  O  O266  1  0.75815905  0.87161703  0.50603052  1
  O  O267  1  0.12027940  0.48576120  0.24836183  1
  O  O268  1  0.12470590  0.49344332  0.74166501  1
  O  O269  1  0.13618332  0.99259467  0.24537236  1
  O  O270  1  0.10668798  0.99752244  0.73413555  1
  O  O271  1  0.63543313  0.50241121  0.25510726  1
  O  O272  1  0.63019320  0.49510465  0.74549780  1
  O  O273  1  0.63319391  1.00001125  0.24209587  1
  O  O274  1  0.63002284  0.99218584  0.74402148  1
  O  O275  1  0.36269372  0.00185902  0.25264860  1
  O  O276  1  0.38086487  0.00483277  0.75595882  1
  O  O277  1  0.37988576  0.49949484  0.26258528  1
  O  O278  1  0.37344235  0.50763213  0.75535795  1
  O  O279  1  0.86755640  0.00487738  0.26042317  1
  O  O280  1  0.87036629  0.00840596  0.75515989  1
  O  O281  1  0.86974824  0.51084248  0.25426899  1
  O  O282  1  0.87357769  0.50573835  0.75907545  1
  O  O283  1  0.11895764  0.37521668  0.36735278  1
  O  O284  1  0.13657677  0.38010843  0.86134856  1
  O  O285  1  0.12059033  0.88244444  0.36914935  1
  O  O286  1  0.13482225  0.87224237  0.87650140  1
  O  O287  1  0.61144200  0.37082470  0.37455308  1
  O  O288  1  0.61281876  0.37948950  0.87033335  1
  O  O289  1  0.61140115  0.87014673  0.37201165  1
  O  O290  1  0.62598599  0.86733132  0.87029069  1
  O  O291  1  0.38653619  0.13262574  0.12054777  1
  O  O292  1  0.37747529  0.12974652  0.62763421  1
  O  O293  1  0.38891776  0.62913290  0.11946752  1
  O  O294  1  0.38053667  0.63172065  0.63101863  1
  O  O295  1  0.88632159  0.11817909  0.13433038  1
  O  O296  1  0.87431203  0.12668380  0.63502381  1
  O  O297  1  0.87824519  0.63509739  0.13781772  1
  O  O298  1  0.88618553  0.61746625  0.63645938  1
  O  O299  1  0.26052874  0.26329284  0.12655918  1
  O  O300  1  0.25593464  0.25627328  0.61817102  1
  O  O301  1  0.24913873  0.75839566  0.11491960  1
  O  O302  1  0.26346458  0.74894391  0.62037235  1
  O  O303  1  0.74794412  0.24421621  0.11018365  1
  O  O304  1  0.75004035  0.25914114  0.61708981  1
  O  O305  1  0.75985946  0.76164379  0.13332530  1
  O  O306  1  0.74639003  0.76135683  0.62252616  1
  O  O307  1  0.25278850  0.25649781  0.38724166  1
  O  O308  1  0.29247428  0.23999086  0.88876704  1
  O  O309  1  0.25801401  0.73335359  0.37617574  1
  O  O310  1  0.25234079  0.73984453  0.88657099  1
  O  O311  1  0.74345454  0.24704163  0.38062328  1
  O  O312  1  0.75235243  0.23666864  0.88052581  1
  O  O313  1  0.73502300  0.75962492  0.37435313  1
  O  O314  1  0.73937651  0.74652741  0.87081637  1
  O  O315  1  -0.00380131  0.11439450  0.01573811  1
  O  O316  1  0.01338117  0.13224250  0.50406775  1
  O  O317  1  0.00958892  0.62013947  0.00353653  1
  O  O318  1  0.00664072  0.61851968  0.50685730  1
  O  O319  1  0.50445064  0.12119231  0.00457440  1
  O  O320  1  0.51570173  0.13059638  0.50143486  1
  O  O321  1  0.50788031  0.62116766  0.01091263  1
  O  O322  1  0.50796832  0.61786075  0.50433879  1
  O  O323  1  0.49903696  0.38238953  0.49262459  1
  O  O324  1  0.49918638  0.38363301  0.99355743  1
  O  O325  1  0.50064083  0.87047527  0.48610404  1
  O  O326  1  0.49258293  0.87947983  1.00273813  1
  O  O327  1  1.00779206  0.38305568  0.48737573  1
  O  O328  1  0.99250500  0.38311308  1.00357855  1
  O  O329  1  0.99525706  0.87120508  0.49188344  1
  O  O330  1  0.99798285  0.88871962  1.00769873  1
  O  O331  1  0.49181569  0.49627088  0.37969562  1
  O  O332  1  0.49777860  0.49654659  0.88328661  1
  O  O333  1  0.49028365  0.98603328  0.36691726  1
  O  O334  1  0.49369524  0.99365350  0.88296605  1
  O  O335  1  0.99728482  0.49109768  0.38431990  1
  O  O336  1  0.99308263  0.50541050  0.88916795  1
  O  O337  1  0.99142755  0.98953563  0.37001689  1
  O  O338  1  0.98839575  1.00843651  0.88692223  1
  O  O339  1  0.00796944  0.00221964  0.12382746  1
  O  O340  1  -0.00794686  0.01887647  0.61965774  1
  O  O341  1  0.00075469  0.50418897  0.11411659  1
  O  O342  1  0.00791865  0.50434500  0.61993138  1
  O  O343  1  0.50221252  0.00744541  0.11952229  1
  O  O344  1  0.51466341  -0.00396281  0.62764390  1
  O  O345  1  0.49917978  0.51462922  0.11961874  1
  O  O346  1  0.50397176  0.50247132  0.61771367  1
  O  O347  1  0.24059078  0.37790758  0.24573879  1
  O  O348  1  0.24398902  0.37481584  0.73919096  1
  O  O349  1  0.24600256  0.87734108  0.24581311  1
  O  O350  1  0.25076731  0.86275610  0.72950485  1
  O  O351  1  0.74497500  0.38793802  0.24694916  1
  O  O352  1  0.74384458  0.37796264  0.74584457  1
  O  O353  1  0.74973033  0.88769580  0.24322575  1
  O  O354  1  0.74652803  0.87839979  0.74120150  1
  O  O355  1  0.24491754  0.11568949  0.24456764  1
  O  O356  1  0.26455604  0.13232300  0.74913507  1
  O  O357  1  0.24535619  0.62416367  0.26272130  1
  O  O358  1  0.25389648  0.62609179  0.75963735  1
  O  O359  1  0.75383298  0.11526858  0.25345714  1
  O  O360  1  0.75479241  0.12340717  0.75372407  1
  O  O361  1  0.75689223  0.61676214  0.25016834  1
  O  O362  1  0.75920683  0.61695713  0.74981861  1
  O  O363  1  0.38687235  0.11002731  0.36993994  1
  O  O364  1  0.38171766  0.10829639  0.86164394  1
  O  O365  1  0.36551680  0.61227352  0.37745950  1
  O  O366  1  0.37145708  0.62305049  0.87093580  1
  O  O367  1  0.87053476  0.11748779  0.37013536  1
  O  O368  1  0.86760732  0.11811270  0.86291775  1
  O  O369  1  0.87893225  0.62799384  0.36505479  1
  O  O370  1  0.87231624  0.61345581  0.87009271  1
  O  O371  1  0.13338617  0.38000476  0.13669426  1
  O  O372  1  0.13016720  0.38128170  0.63018148  1
  O  O373  1  0.13610296  0.88411426  0.13333614  1
  O  O374  1  0.13883881  0.87539421  0.62120728  1
  O  O375  1  0.62916481  0.37523809  0.12210648  1
  O  O376  1  0.63227383  0.38083895  0.63163809  1
  O  O377  1  0.63337510  0.88219374  0.12585944  1
  O  O378  1  0.63262642  0.87827164  0.62778389  1
  O  O379  1  0.12606232  0.26871285  0.25132784  1
  O  O380  1  0.11285569  0.25658903  0.74556878  1
  O  O381  1  0.11934793  0.76354253  0.24573527  1
  O  O382  1  0.10951191  0.74589702  0.75364150  1
  O  O383  1  0.61781334  0.25103925  0.25862936  1
  O  O384  1  0.61065049  0.25324038  0.74392296  1
  O  O385  1  0.61541884  0.75180855  0.25742625  1
  O  O386  1  0.61978550  0.75196551  0.75662963  1
  O  O387  1  0.38441432  0.25402099  0.23985157  1
  O  O388  1  0.38435392  0.24448034  0.73665288  1
  O  O389  1  0.38834801  0.75008975  0.25212817  1
  O  O390  1  0.38464325  0.74407092  0.74366678  1
  O  O391  1  0.86557712  0.23540582  0.25526104  1
  O  O392  1  0.88293854  0.24520570  0.74745556  1
  O  O393  1  0.88261504  0.74604377  0.24456583  1
  O  O394  1  0.88384183  0.73505282  0.75456554  1
  O  O395  1  0.38706283  0.49950133  0.49659992  1
  O  O396  1  0.38960667  0.49661081  0.99582056  1
  O  O397  1  0.37241182  1.00489951  0.48341205  1
  O  O398  1  0.37870666  0.98916795  0.99340095  1
  O  O399  1  0.88837335  0.50452500  0.50003591  1
  O  O400  1  0.88146023  0.49490731  0.99622794  1
  O  O401  1  0.86716488  0.99200830  0.48568900  1
  O  O402  1  0.88130463  0.99889822  0.99130713  1
  O  O403  1  0.11834218  0.00477000  0.01598201  1
  O  O404  1  0.13142648  0.01395706  0.50055587  1
  O  O405  1  0.11905314  0.50765244  0.00294697  1
  O  O406  1  0.11708532  0.50718282  0.50904423  1
  O  O407  1  0.61902453  0.00943877  0.00411334  1
  O  O408  1  0.63263995  0.00745324  0.50691037  1
  O  O409  1  0.61599826  0.51376077  -0.00430484  1
  O  O410  1  0.61481044  0.50574408  0.50148842  1
  O  O411  1  0.37090087  0.37172308  0.12405212  1
  O  O412  1  0.36587437  0.36698790  0.62330198  1
  O  O413  1  0.36372089  0.88081241  0.11874503  1
  O  O414  1  0.36896721  0.86043061  0.62569019  1
  O  O415  1  0.87000805  0.37799478  0.11277443  1
  O  O416  1  0.86097595  0.37727804  0.62992649  1
  O  O417  1  0.86783634  0.86841931  0.12605505  1
  O  O418  1  0.86650815  0.88312163  0.61307266  1
  O  O419  1  0.11913130  0.12628080  0.38461010  1
  O  O420  1  0.12687323  0.12594390  0.87636441  1
  O  O421  1  0.14079098  0.61488987  0.38235303  1
  O  O422  1  0.13390860  0.62706671  0.88658733  1
  O  O423  1  0.63006835  0.12811712  0.37995229  1
  O  O424  1  0.63239372  0.11733351  0.88061572  1
  O  O425  1  0.61648289  0.63660774  0.38393690  1
  O  O426  1  0.62811566  0.63283980  0.88818379  1
