# generated using pymatgen
data_V85Zn86O256
_symmetry_space_group_name_H-M   'P 1'
_cell_length_a   16.92870276
_cell_length_b   16.92305002
_cell_length_c   16.93234558
_cell_angle_alpha   90.06945792
_cell_angle_beta   89.96817629
_cell_angle_gamma   90.02177662
_symmetry_Int_Tables_number   1
_chemical_formula_structural   V85Zn86O256
_chemical_formula_sum   'V85 Zn86 O256'
_cell_volume   4850.86316286
_cell_formula_units_Z   1
loop_
 _symmetry_equiv_pos_site_id
 _symmetry_equiv_pos_as_xyz
  1  'x, y, z'
loop_
 _atom_site_type_symbol
 _atom_site_label
 _atom_site_symmetry_multiplicity
 _atom_site_fract_x
 _atom_site_fract_y
 _atom_site_fract_z
 _atom_site_occupancy
  V  V0  1  0.49920688  0.37634778  0.37402763  1
  V  V1  1  0.37510042  0.25189098  0.62416978  1
  V  V2  1  0.24481700  0.75563038  0.00623005  1
  V  V3  1  0.49643288  0.86809085  0.87202155  1
  V  V4  1  0.61768547  0.62655672  0.00435074  1
  V  V5  1  0.37248130  0.12627615  0.24888172  1
  V  V6  1  0.87634708  0.49528970  0.37492476  1
  V  V7  1  0.37773770  -0.01051487  0.37184501  1
  V  V8  1  0.12435590  0.12492432  0.49793493  1
  V  V9  1  0.00011722  -0.00103589  0.49858303  1
  V  V10  1  0.75312806  0.49801753  0.75224369  1
  V  V11  1  0.00510656  0.86314641  0.36473488  1
  V  V12  1  0.24714428  -0.00213797  0.74947652  1
  V  V13  1  0.62059872  0.87306447  0.25253204  1
  V  V14  1  0.00234485  0.62705475  0.62258520  1
  V  V15  1  0.37702650  0.49419948  0.88019971  1
  V  V16  1  0.11894780  0.25169598  0.37057653  1
  V  V17  1  0.37319774  0.74977998  0.62170013  1
  V  V18  1  0.50191681  0.50035763  0.50138448  1
  V  V19  1  0.26051373  0.25676236  -0.00206698  1
  V  V20  1  0.50169480  0.12736505  0.12396601  1
  V  V21  1  0.75768947  0.37706893  0.11970386  1
  V  V22  1  0.50005885  0.12239779  0.62248712  1
  V  V23  1  0.87610676  0.74917610  0.62963900  1
  V  V24  1  0.62952966  0.49665147  0.62629659  1
  V  V25  1  0.62865467  0.75070277  0.87951665  1
  V  V26  1  0.75041698  -0.00219009  0.24766980  1
  V  V27  1  0.87912809  0.75005213  0.12659801  1
  V  V28  1  -0.00178791  0.12362633  0.62750111  1
  V  V29  1  0.00376132  0.75059379  0.76344317  1
  V  V30  1  0.88345401  0.62968489  0.25135894  1
  V  V31  1  0.75796996  0.25130081  -0.00182613  1
  V  V32  1  0.37319145  0.61891559  0.23479399  1
  V  V33  1  0.24575988  0.63357903  0.87410891  1
  V  V34  1  0.74885723  0.86937598  0.11322035  1
  V  V35  1  0.62794634  0.37409165  0.74955991  1
  V  V36  1  0.11916595  0.50025208  0.12247045  1
  V  V37  1  0.25106641  -0.01169043  0.24386928  1
  V  V38  1  0.87631429  0.87411427  0.50029139  1
  V  V39  1  0.24808416  0.24933352  0.49869426  1
  V  V40  1  0.11801056  0.62230493  -0.00318561  1
  V  V41  1  0.74873173  0.50107268  0.24907671  1
  V  V42  1  0.24432786  0.49996056  0.75114812  1
  V  V43  1  0.87807677  0.37550886  0.50140737  1
  V  V44  1  0.12207132  0.87002339  0.76071109  1
  V  V45  1  0.87094852  0.25615709  0.62957961  1
  V  V46  1  0.74854886  0.62622760  0.37580836  1
  V  V47  1  0.50000506  -0.00971798  0.49616870  1
  V  V48  1  0.75074293  0.12500652  0.37480914  1
  V  V49  1  0.01122257  0.26067551  0.74936488  1
  V  V50  1  0.88389396  0.48939227  0.89194292  1
  V  V51  1  0.62139275  0.87039511  0.75019489  1
  V  V52  1  0.38460595  0.75757281  0.12052641  1
  V  V53  1  0.61531110  0.75166988  0.37708057  1
  V  V54  1  0.12115270  0.12059364  -0.00188714  1
  V  V55  1  -0.00072905  0.12112483  0.12723783  1
  V  V56  1  0.25766663  0.38139132  0.12950426  1
  V  V57  1  0.37382292  0.37505392  0.49912720  1
  V  V58  1  0.75121092  0.62593330  0.88152731  1
  V  V59  1  0.86821148  0.12373376  0.75580862  1
  V  V60  1  0.00361442  0.50038188  0.49230602  1
  V  V61  1  0.12298164  0.50094214  0.62370953  1
  V  V62  1  0.24796133  0.87092586  0.61816349  1
  V  V63  1  0.61912780  0.50271464  0.12531448  1
  V  V64  1  0.74892902  0.74969078  0.50122817  1
  V  V65  1  0.12273807  0.38800375  0.25570691  1
  V  V66  1  0.36338975  0.50851218  0.37287484  1
  V  V67  1  0.24458482  0.37545352  0.62862405  1
  V  V68  1  0.50041947  0.25107018  0.75045268  1
  V  V69  1  0.37810686  0.62940071  0.75151092  1
  V  V70  1  0.24348886  0.13043138  0.87354954  1
  V  V71  1  0.63243803  0.12378430  -0.00431715  1
  V  V72  1  0.88048793  0.00085029  0.88348502  1
  V  V73  1  0.19160164  0.69171620  0.44558528  1
  V  V74  1  0.75092708  0.87777424  0.62882692  1
  V  V75  1  0.87713367  -0.00099110  0.37326500  1
  V  V76  1  0.07416140  0.30750544  0.91989640  1
  V  V77  1  0.50353012  0.63065670  0.63020554  1
  V  V78  1  0.49899085  -0.00031513  -0.00320752  1
  V  V79  1  0.12737036  -0.00702874  0.12239952  1
  V  V80  1  0.75009575  0.25479658  0.50293308  1
  V  V81  1  0.37392338  0.12427552  0.75035181  1
  V  V82  1  0.89336332  0.86958041  -0.00573191  1
  V  V83  1  0.62495566  0.24968491  0.37406223  1
  V  V84  1  0.63106426  0.24672728  0.87495427  1
  Zn  Zn85  1  0.00323537  0.62578105  0.12683434  1
  Zn  Zn86  1  0.12279343  -0.00328697  0.62455832  1
  Zn  Zn87  1  0.38001964  0.25534038  0.12240848  1
  Zn  Zn88  1  0.62596964  -0.00092295  0.12409944  1
  Zn  Zn89  1  0.37166309  0.86548841  0.48990659  1
  Zn  Zn90  1  -0.00345328  0.25315196  0.25354108  1
  Zn  Zn91  1  0.37401107  -0.00112394  0.87418294  1
  Zn  Zn92  1  0.62556635  0.37508013  0.24918838  1
  Zn  Zn93  1  0.62473223  -0.00110308  0.62588119  1
  Zn  Zn94  1  0.87784149  0.25297883  0.12555255  1
  Zn  Zn95  1  0.49315542  0.49531510  0.01006222  1
  Zn  Zn96  1  0.74795270  0.00221258  0.75863146  1
  Zn  Zn97  1  0.62502879  0.12168826  0.50017384  1
  Zn  Zn98  1  0.36989757  0.87929336  -0.00067807  1
  Zn  Zn99  1  0.50079274  0.74657267  0.24806935  1
  Zn  Zn100  1  0.49705605  0.37051630  0.88596892  1
  Zn  Zn101  1  0.12932857  0.86066406  0.24562542  1
  Zn  Zn102  1  0.62616090  0.62475891  0.50202987  1
  Zn  Zn103  1  0.87715241  0.62308193  0.75530985  1
  Zn  Zn104  1  0.49980345  0.24927430  0.25010176  1
  Zn  Zn105  1  0.25012062  0.12245143  0.37366837  1
  Zn  Zn106  1  0.87517237  0.12915256  0.24739275  1
  Zn  Zn107  1  0.18937062  0.18819173  0.18572302  1
  Zn  Zn108  1  0.18575111  0.18559517  0.68478280  1
  Zn  Zn109  1  0.19736991  0.68258745  0.18616910  1
  Zn  Zn110  1  0.18553803  0.68778093  0.68153002  1
  Zn  Zn111  1  0.68873151  0.18773595  0.18569557  1
  Zn  Zn112  1  0.68707947  0.18717717  0.68553522  1
  Zn  Zn113  1  0.69073096  0.68854225  0.18704608  1
  Zn  Zn114  1  0.68787452  0.68814937  0.69399000  1
  Zn  Zn115  1  0.30976657  0.31161031  0.31108241  1
  Zn  Zn116  1  0.30714943  0.31241651  0.81099466  1
  Zn  Zn117  1  0.31006808  0.80400355  0.30841068  1
  Zn  Zn118  1  0.31237474  0.81138662  0.81060065  1
  Zn  Zn119  1  0.81360305  0.31459623  0.31094284  1
  Zn  Zn120  1  0.81259435  0.31467256  0.81382882  1
  Zn  Zn121  1  0.80913878  0.81297033  0.31143541  1
  Zn  Zn122  1  0.81327015  0.81267661  0.81553598  1
  Zn  Zn123  1  0.18449448  0.44048437  0.43842331  1
  Zn  Zn124  1  0.19402627  0.44253055  0.94193473  1
  Zn  Zn125  1  0.18750828  0.93588167  0.43335618  1
  Zn  Zn126  1  0.18558965  0.93879426  0.93588958  1
  Zn  Zn127  1  0.68923832  0.43558744  0.43900831  1
  Zn  Zn128  1  0.68646404  0.43696180  0.93790376  1
  Zn  Zn129  1  0.68655406  0.93579089  0.43822210  1
  Zn  Zn130  1  0.68983641  0.94121426  0.93341605  1
  Zn  Zn131  1  0.31132148  0.06574863  0.06179034  1
  Zn  Zn132  1  0.31345193  0.05861282  0.56074558  1
  Zn  Zn133  1  0.30588626  0.56403897  0.06093513  1
  Zn  Zn134  1  0.31420832  0.56271217  0.56149062  1
  Zn  Zn135  1  0.81463633  0.05867090  0.06064998  1
  Zn  Zn136  1  0.81258339  0.06455765  0.56303359  1
  Zn  Zn137  1  0.80994125  0.56509429  0.06157260  1
  Zn  Zn138  1  0.81241803  0.56369524  0.56593867  1
  Zn  Zn139  1  0.43838966  0.43805733  0.19218809  1
  Zn  Zn140  1  0.43849866  0.43987778  0.69174896  1
  Zn  Zn141  1  0.43981884  0.93821121  0.18482925  1
  Zn  Zn142  1  0.43628483  0.93614673  0.68757891  1
  Zn  Zn143  1  0.94083625  0.43881950  0.18866909  1
  Zn  Zn144  1  0.93684943  0.43744447  0.68866769  1
  Zn  Zn145  1  0.93823681  0.93976107  0.18313858  1
  Zn  Zn146  1  0.93806839  0.93742057  0.69409096  1
  Zn  Zn147  1  0.06459095  0.06106521  0.30861913  1
  Zn  Zn148  1  0.05952938  0.06059428  0.81211514  1
  Zn  Zn149  1  0.06833325  0.68678605  0.30858229  1
  Zn  Zn150  1  0.06180626  0.56203731  0.81220005  1
  Zn  Zn151  1  0.56219535  0.06173228  0.31307669  1
  Zn  Zn152  1  0.56383333  0.05944433  0.81166285  1
  Zn  Zn153  1  0.55804803  0.56618341  0.31080906  1
  Zn  Zn154  1  0.56198299  0.56354890  0.81408677  1
  Zn  Zn155  1  0.43666756  0.18260602  0.43584359  1
  Zn  Zn156  1  0.43869275  0.18593670  0.93487912  1
  Zn  Zn157  1  0.43727990  0.68423483  0.44042130  1
  Zn  Zn158  1  0.43819515  0.68559800  0.93807685  1
  Zn  Zn159  1  0.93748776  0.18725635  0.43648627  1
  Zn  Zn160  1  0.93699458  0.18208255  0.93731680  1
  Zn  Zn161  1  0.93635239  0.68449795  0.44161505  1
  Zn  Zn162  1  0.93221836  0.68524380  0.94080025  1
  Zn  Zn163  1  0.06818843  0.30783611  0.08091474  1
  Zn  Zn164  1  0.06155549  0.31479430  0.56322726  1
  Zn  Zn165  1  0.06536398  0.80590885  0.06931299  1
  Zn  Zn166  1  0.06289866  0.81408273  0.56485238  1
  Zn  Zn167  1  0.56622590  0.31656644  0.06095937  1
  Zn  Zn168  1  0.56392130  0.31324937  0.56216025  1
  Zn  Zn169  1  0.56298037  0.81351076  0.05933618  1
  Zn  Zn170  1  0.56086641  0.81107766  0.56439849  1
  O  O171  1  0.12093873  0.11950358  0.11663855  1
  O  O172  1  0.11193554  0.12369486  0.61811999  1
  O  O173  1  0.12941345  0.61440904  0.11692090  1
  O  O174  1  0.11667774  0.61100217  0.62851820  1
  O  O175  1  0.61807293  0.12209141  0.11753914  1
  O  O176  1  0.61232373  0.12317756  0.62356652  1
  O  O177  1  0.63370076  0.61814463  0.11569000  1
  O  O178  1  0.61866306  0.61899378  0.62844362  1
  O  O179  1  0.38159495  0.38167803  0.37745816  1
  O  O180  1  0.37289482  0.39119667  0.86705748  1
  O  O181  1  0.37399970  0.88513449  0.37106119  1
  O  O182  1  0.38322315  0.87656663  0.87549134  1
  O  O183  1  0.87077876  0.38798040  0.38316155  1
  O  O184  1  0.86960978  0.39039282  0.87537643  1
  O  O185  1  0.88176625  0.88048816  0.37897646  1
  O  O186  1  0.87488202  0.87866034  0.88935550  1
  O  O187  1  0.25796673  0.00176425  0.36438371  1
  O  O188  1  0.25191592  0.00668936  0.86381370  1
  O  O189  1  0.26585066  0.49403743  0.37808479  1
  O  O190  1  0.25986638  0.50805112  0.86781425  1
  O  O191  1  0.75982537  0.00116202  0.36989771  1
  O  O192  1  0.76914968  -0.00569458  0.87276986  1
  O  O193  1  0.75492302  0.50547887  0.36949702  1
  O  O194  1  0.75511153  0.50568896  0.86905451  1
  O  O195  1  0.24378647  0.48623725  0.12172027  1
  O  O196  1  0.24384808  0.49492861  0.63020386  1
  O  O197  1  0.24253410  1.00541189  0.13255952  1
  O  O198  1  0.24946822  0.99561565  0.63666755  1
  O  O199  1  0.74402916  0.49663882  0.13244025  1
  O  O200  1  0.73673908  0.50608754  0.63416942  1
  O  O201  1  0.74972304  0.98928699  0.13229071  1
  O  O202  1  0.74987414  0.98731870  0.62406763  1
  O  O203  1  0.01817503  0.37256828  0.24528336  1
  O  O204  1  -0.00162095  0.35961108  0.74571864  1
  O  O205  1  -0.00307107  0.87822997  0.26354614  1
  O  O206  1  0.00924062  0.86190188  0.74277587  1
  O  O207  1  0.50294370  0.37178330  0.26297198  1
  O  O208  1  0.50962075  0.36806787  0.75215526  1
  O  O209  1  0.51686341  0.87271839  0.24183391  1
  O  O210  1  0.50860468  0.87968379  0.75891005  1
  O  O211  1  0.49228409  0.12308328  0.24106753  1
  O  O212  1  0.49548433  0.12934827  0.74243737  1
  O  O213  1  0.48044574  0.63083686  0.25790301  1
  O  O214  1  0.49040121  0.61864668  0.74235464  1
  O  O215  1  0.99824864  0.12694660  0.24163718  1
  O  O216  1  0.99066242  0.13223280  0.74308989  1
  O  O217  1  0.98605401  0.62405189  0.25028495  1
  O  O218  1  0.99964263  0.63239455  0.73945931  1
  O  O219  1  0.36407769  0.24502901  0.00132880  1
  O  O220  1  0.36915416  0.25451093  0.50412262  1
  O  O221  1  0.36951114  0.74844477  0.00851205  1
  O  O222  1  0.38213610  0.75075688  0.51574628  1
  O  O223  1  0.86114506  0.24330213  -0.00034381  1
  O  O224  1  0.87104572  0.25650787  0.50598415  1
  O  O225  1  0.87354661  0.76278893  0.00644579  1
  O  O226  1  0.86936374  0.75533145  0.50866660  1
  O  O227  1  0.12838941  0.24577857  0.49514347  1
  O  O228  1  0.13159060  0.24703853  0.99053413  1
  O  O229  1  0.13113061  0.74886540  0.50512908  1
  O  O230  1  0.13925563  0.74267517  1.00683256  1
  O  O231  1  0.63313239  0.25002659  0.49147488  1
  O  O232  1  0.63248022  0.24250775  0.99215032  1
  O  O233  1  0.63112385  0.75032275  0.49396094  1
  O  O234  1  0.62292723  0.74347789  0.98864360  1
  O  O235  1  0.50231037  0.23913376  0.12637996  1
  O  O236  1  0.49551390  0.24315777  0.62874148  1
  O  O237  1  0.48825109  0.74826644  0.12110742  1
  O  O238  1  0.49578336  0.73695467  0.62611123  1
  O  O239  1  0.99787451  0.23628825  0.12948469  1
  O  O240  1  0.99323355  0.24418062  0.63309149  1
  O  O241  1  0.98381076  0.74769427  0.12509739  1
  O  O242  1  0.99394382  0.74187732  0.62782281  1
  O  O243  1  0.01438616  0.24863113  0.37690299  1
  O  O244  1  0.00341837  0.24844723  0.86405656  1
  O  O245  1  -0.00564829  0.75957040  0.37498562  1
  O  O246  1  -0.00466472  0.74223796  0.86181056  1
  O  O247  1  0.50807896  0.25621707  0.37739876  1
  O  O248  1  0.50952325  0.24963595  0.86737843  1
  O  O249  1  0.51222752  0.74902496  0.37781159  1
  O  O250  1  0.50679846  0.76163744  0.87937705  1
  O  O251  1  0.24165004  0.13014510  0.50149144  1
  O  O252  1  0.24132078  0.13432694  0.99275898  1
  O  O253  1  0.24643025  0.62801259  0.50357704  1
  O  O254  1  0.24310963  0.63442942  0.99176454  1
  O  O255  1  0.75029789  0.13621223  0.49372472  1
  O  O256  1  0.73758328  0.13013778  1.00717458  1
  O  O257  1  0.74838046  0.63150544  0.49538764  1
  O  O258  1  0.73825491  0.62112933  0.98738048  1
  O  O259  1  0.24712958  0.36738692  0.01409247  1
  O  O260  1  0.25435838  0.37148764  0.51053397  1
  O  O261  1  0.25149054  0.85908247  -0.00909275  1
  O  O262  1  0.25355534  0.88677607  0.51476411  1
  O  O263  1  0.74338138  0.36447528  0.00853544  1
  O  O264  1  0.76049914  0.36302121  0.49707666  1
  O  O265  1  0.75200042  0.87979468  0.01236469  1
  O  O266  1  0.75646988  0.86964430  0.50786029  1
  O  O267  1  0.12937090  0.48712467  0.24415257  1
  O  O268  1  0.13803925  0.50312851  0.74391422  1
  O  O269  1  0.13659958  0.99926370  0.24173395  1
  O  O270  1  0.13107313  0.99385128  0.74660769  1
  O  O271  1  0.63345983  0.50308520  0.24532026  1
  O  O272  1  0.63150351  0.49296784  0.74738863  1
  O  O273  1  0.63564654  0.99283365  0.25112339  1
  O  O274  1  0.62950459  0.98789097  0.74836037  1
  O  O275  1  0.37086520  0.00424869  0.25247091  1
  O  O276  1  0.36577620  0.00752199  0.74977116  1
  O  O277  1  0.37861914  0.50966633  0.26064350  1
  O  O278  1  0.36408524  0.50997646  0.75390997  1
  O  O279  1  0.86447549  -0.00180402  0.25636946  1
  O  O280  1  0.87230239  0.00764693  0.75739853  1
  O  O281  1  0.86997648  0.50494350  0.25890731  1
  O  O282  1  0.86044131  0.49977498  0.74777128  1
  O  O283  1  0.13310982  0.36954519  0.36206843  1
  O  O284  1  0.13319802  0.37187025  0.87158255  1
  O  O285  1  0.10817827  0.87961893  0.36973348  1
  O  O286  1  0.12794962  0.87623080  0.86021242  1
  O  O287  1  0.61727314  0.36805005  0.37558556  1
  O  O288  1  0.62231296  0.36654419  0.86665015  1
  O  O289  1  0.63434021  0.86390207  0.36461618  1
  O  O290  1  0.62088241  0.86848585  0.87079631  1
  O  O291  1  0.38423314  0.12753184  0.13099877  1
  O  O292  1  0.38338949  0.13011413  0.62872324  1
  O  O293  1  0.37554644  0.62811452  0.12979214  1
  O  O294  1  0.38225085  0.62844293  0.63187891  1
  O  O295  1  0.88526888  0.12306514  0.12445215  1
  O  O296  1  0.88377483  0.13424686  0.62897899  1
  O  O297  1  0.87255074  0.63293742  0.13282751  1
  O  O298  1  0.88108749  0.63177196  0.63128393  1
  O  O299  1  0.25076488  0.25996402  0.11520686  1
  O  O300  1  0.25328919  0.25741132  0.62068486  1
  O  O301  1  0.26450852  0.74581860  0.10990010  1
  O  O302  1  0.25952329  0.75975642  0.63059178  1
  O  O303  1  0.75020911  0.25892040  0.11702967  1
  O  O304  1  0.75876258  0.24505526  0.61531194  1
  O  O305  1  0.75889060  0.76398858  0.12797007  1
  O  O306  1  0.75479597  0.75878156  0.62349250  1
  O  O307  1  0.24061844  0.24737840  0.38256873  1
  O  O308  1  0.25127819  0.24252633  0.88157712  1
  O  O309  1  0.25240760  0.75377909  0.38928682  1
  O  O310  1  0.25857258  0.73905031  0.88560994  1
  O  O311  1  0.74381705  0.24687074  0.38114917  1
  O  O312  1  0.73922018  0.25267694  0.88114385  1
  O  O313  1  0.74411628  0.74393333  0.38131644  1
  O  O314  1  0.74120739  0.74023017  0.87094949  1
  O  O315  1  0.01502067  0.13067150  0.00512535  1
  O  O316  1  0.00283083  0.11970542  0.50746134  1
  O  O317  1  0.01490887  0.63377386  0.00254302  1
  O  O318  1  -0.00845290  0.61492116  0.51492471  1
  O  O319  1  0.50838240  0.11979771  0.00453011  1
  O  O320  1  0.49985655  0.11630514  0.50852420  1
  O  O321  1  0.51369353  0.61655201  -0.00672508  1
  O  O322  1  0.50409069  0.61645816  0.51051957  1
  O  O323  1  0.49470124  0.37867258  0.49171499  1
  O  O324  1  0.50206430  0.38212859  0.99868783  1
  O  O325  1  0.49456684  0.88692471  0.50721769  1
  O  O326  1  0.49920172  0.88478741  0.99206029  1
  O  O327  1  0.98621403  0.38306848  0.50597437  1
  O  O328  1  1.02023885  0.35821493  0.98596746  1
  O  O329  1  0.99479136  0.88011248  0.49092816  1
  O  O330  1  0.99132888  0.87039560  1.00165562  1
  O  O331  1  0.49647363  0.49151128  0.38162359  1
  O  O332  1  0.48315315  0.49888536  0.86950627  1
  O  O333  1  0.49201289  1.00389058  0.38401190  1
  O  O334  1  0.49843085  0.99126620  0.88132585  1
  O  O335  1  0.98842140  0.50539041  0.39083606  1
  O  O336  1  0.98115421  0.50429197  0.86713464  1
  O  O337  1  0.98928396  0.99501627  0.37672599  1
  O  O338  1  0.98121934  0.99766707  0.86684880  1
  O  O339  1  0.01051683  0.01154857  0.12918454  1
  O  O340  1  -0.00228654  0.00833566  0.61979530  1
  O  O341  1  0.01438598  0.50249982  0.12700058  1
  O  O342  1  0.00567161  0.50510339  0.62161102  1
  O  O343  1  0.50329972  0.00967348  0.11600576  1
  O  O344  1  0.49875840  0.00759203  0.61806254  1
  O  O345  1  0.51492032  0.49794904  0.13062530  1
  O  O346  1  0.50926709  0.50748654  0.62276077  1
  O  O347  1  0.24044772  0.36828464  0.23629322  1
  O  O348  1  0.25555834  0.38361141  0.73612642  1
  O  O349  1  0.24983655  0.88472468  0.24923577  1
  O  O350  1  0.24459720  0.88160456  0.74375792  1
  O  O351  1  0.74834935  0.38891824  0.24676775  1
  O  O352  1  0.73690230  0.38198302  0.75267683  1
  O  O353  1  0.74313340  0.88103425  0.24050139  1
  O  O354  1  0.74417380  0.87494128  0.74265770  1
  O  O355  1  0.26208829  0.11832773  0.24810458  1
  O  O356  1  0.25091590  0.11948172  0.75478422  1
  O  O357  1  0.27422876  0.62906965  0.25376676  1
  O  O358  1  0.25459679  0.62004737  0.75595930  1
  O  O359  1  0.75028601  0.11430000  0.25504448  1
  O  O360  1  0.76447802  0.12381128  0.74205422  1
  O  O361  1  0.75742129  0.61505776  0.25479977  1
  O  O362  1  0.74864389  0.61534885  0.76233443  1
  O  O363  1  0.37380087  0.11518885  0.36441648  1
  O  O364  1  0.36348023  0.12375926  0.86769962  1
  O  O365  1  0.37731721  0.61037020  0.37680948  1
  O  O366  1  0.36913807  0.61883399  0.86732504  1
  O  O367  1  0.86966070  0.11511660  0.37380442  1
  O  O368  1  0.87598391  0.11354515  0.86928615  1
  O  O369  1  0.86819977  0.61692831  0.37061367  1
  O  O370  1  0.86504251  0.61686928  0.87502604  1
  O  O371  1  0.13530319  0.38108631  0.13511467  1
  O  O372  1  0.13274667  0.38625404  0.62291228  1
  O  O373  1  0.11975284  0.88954636  0.12541815  1
  O  O374  1  0.13380198  0.87728188  0.63311124  1
  O  O375  1  0.63746172  0.38425758  0.13003854  1
  O  O376  1  0.61990896  0.38456266  0.63438771  1
  O  O377  1  0.63577734  0.87491662  0.12875838  1
  O  O378  1  0.63221418  0.87325368  0.63363615  1
  O  O379  1  0.12569839  0.25625896  0.25783299  1
  O  O380  1  0.11028185  0.24711993  0.74516179  1
  O  O381  1  0.12132112  0.74904060  0.23270912  1
  O  O382  1  0.11517939  0.75619255  0.74546011  1
  O  O383  1  0.62512113  0.25086507  0.26317459  1
  O  O384  1  0.62320780  0.25520506  0.75536836  1
  O  O385  1  0.62462234  0.75484668  0.25768327  1
  O  O386  1  0.62662392  0.76183432  0.76146355  1
  O  O387  1  0.37826825  0.23980531  0.24869440  1
  O  O388  1  0.37889046  0.24490036  0.74300218  1
  O  O389  1  0.37791328  0.74464736  0.23382811  1
  O  O390  1  0.37167979  0.73641929  0.74141049  1
  O  O391  1  0.87750638  0.24786755  0.24728022  1
  O  O392  1  0.87984577  0.24483969  0.74517968  1
  O  O393  1  0.86619981  0.74077350  0.24218645  1
  O  O394  1  0.88355530  0.74990619  0.74456727  1
  O  O395  1  0.38132621  0.49400285  0.49161444  1
  O  O396  1  0.37332299  0.50774505  0.98337317  1
  O  O397  1  0.38153028  0.99866365  0.48835086  1
  O  O398  1  0.38578527  1.00138527  0.99770910  1
  O  O399  1  0.87575427  0.49247840  0.49676801  1
  O  O400  1  0.87536798  0.50229242  0.99180941  1
  O  O401  1  0.87895069  0.99474683  0.49214724  1
  O  O402  1  0.87656844  0.98755526  0.99208407  1
  O  O403  1  0.13318322  0.00980461  0.00814187  1
  O  O404  1  0.11783631  0.00702670  0.49998650  1
  O  O405  1  0.13125986  0.51005280  0.00900843  1
  O  O406  1  0.11331527  0.49403771  0.50862918  1
  O  O407  1  0.61622111  0.00681993  -0.00174446  1
  O  O408  1  0.61632982  0.00074108  0.50224509  1
  O  O409  1  0.62595548  0.50777022  0.00972936  1
  O  O410  1  0.62194900  0.49897641  0.51018641  1
  O  O411  1  0.36272559  0.37435152  0.13306395  1
  O  O412  1  0.36986387  0.37173720  0.61953326  1
  O  O413  1  0.37859645  0.86190828  0.12021525  1
  O  O414  1  0.36722007  0.86476171  0.62820280  1
  O  O415  1  0.86229534  0.37723706  0.12937932  1
  O  O416  1  0.87539928  0.36316449  0.61956769  1
  O  O417  1  0.86907986  0.87186251  0.11493525  1
  O  O418  1  0.86892543  0.86994876  0.62196830  1
  O  O419  1  0.12712184  0.13143275  0.38133740  1
  O  O420  1  0.13513088  0.11855308  0.88052286  1
  O  O421  1  0.12975258  0.63455154  0.38621230  1
  O  O422  1  0.13633745  0.61748341  0.88157568  1
  O  O423  1  0.63112477  0.13262071  0.37779938  1
  O  O424  1  0.62118085  0.13316875  0.88287280  1
  O  O425  1  0.63154231  0.63295187  0.37651354  1
  O  O426  1  0.62922577  0.63231641  0.87894587  1
