# generated using pymatgen
data_V85Zn86O256
_symmetry_space_group_name_H-M   'P 1'
_cell_length_a   16.94072136
_cell_length_b   16.93698518
_cell_length_c   16.92774011
_cell_angle_alpha   90.03796242
_cell_angle_beta   90.02506077
_cell_angle_gamma   89.99015212
_symmetry_Int_Tables_number   1
_chemical_formula_structural   V85Zn86O256
_chemical_formula_sum   'V85 Zn86 O256'
_cell_volume   4856.98593820
_cell_formula_units_Z   1
loop_
 _symmetry_equiv_pos_site_id
 _symmetry_equiv_pos_as_xyz
  1  'x, y, z'
loop_
 _atom_site_type_symbol
 _atom_site_label
 _atom_site_symmetry_multiplicity
 _atom_site_fract_x
 _atom_site_fract_y
 _atom_site_fract_z
 _atom_site_occupancy
  V  V0  1  0.75322654  0.01401463  0.26243082  1
  V  V1  1  0.75082718  0.50025334  0.24729720  1
  V  V2  1  0.87588881  0.75278084  0.12720585  1
  V  V3  1  0.37982561  0.00254950  0.86962066  1
  V  V4  1  0.63179995  0.38095208  0.75580256  1
  V  V5  1  0.89148594  0.00614413  0.38095841  1
  V  V6  1  0.25023952  0.12392204  0.86576541  1
  V  V7  1  0.12201482  0.37745972  0.75206602  1
  V  V8  1  0.74869140  0.87552093  0.62242093  1
  V  V9  1  0.49807791  0.12033336  0.11977209  1
  V  V10  1  0.38203351  0.88148258  0.00224897  1
  V  V11  1  0.12478112  0.62333100  -0.00039919  1
  V  V12  1  0.62954349  0.12486369  0.49566315  1
  V  V13  1  0.62066041  0.49635710  0.12703408  1
  V  V14  1  0.37291877  0.12531901  0.24914689  1
  V  V15  1  0.74963780  0.25146805  -0.00238373  1
  V  V16  1  0.50738369  0.24724018  0.75636240  1
  V  V17  1  0.37705825  0.00099392  0.37491310  1
  V  V18  1  0.00391496  0.00201841  0.00021607  1
  V  V19  1  0.62350547  0.00102991  0.62434186  1
  V  V20  1  0.25356812  0.25420939  -0.00256179  1
  V  V21  1  0.61826953  0.86672196  0.74774031  1
  V  V22  1  0.87475653  0.87692812  0.00064842  1
  V  V23  1  0.00014283  0.11954726  0.12900920  1
  V  V24  1  0.87291880  0.00102026  0.87406630  1
  V  V25  1  0.87277241  0.12726862  0.74827300  1
  V  V26  1  0.65274884  0.60644224  -0.01237013  1
  V  V27  1  0.62345281  0.86674334  0.24923310  1
  V  V28  1  0.00203844  0.62450616  0.62255859  1
  V  V29  1  0.87649316  0.24592102  0.12319564  1
  V  V30  1  0.12867743  0.87874703  0.74562423  1
  V  V31  1  0.12676642  0.12091902  0.00169837  1
  V  V32  1  0.62705805  -0.00011643  0.12270702  1
  V  V33  1  0.49840589  0.62629795  0.12491383  1
  V  V34  1  0.12230324  0.25397105  0.38223211  1
  V  V35  1  0.50103704  0.50229789  0.49574469  1
  V  V36  1  0.87674625  0.62524166  0.24932221  1
  V  V37  1  0.25163080  0.37507430  0.62406875  1
  V  V38  1  0.11631730  0.25032514  0.87668383  1
  V  V39  1  0.50254010  0.87297509  0.87834002  1
  V  V40  1  0.74403987  0.74717772  0.49490534  1
  V  V41  1  0.37515224  0.24755327  0.62975921  1
  V  V42  1  0.49950557  0.24963602  0.25335668  1
  V  V43  1  0.37191774  0.48673887  0.87871582  1
  V  V44  1  0.25376282  0.50433457  0.26314805  1
  V  V45  1  0.48816108  0.48914964  0.00515421  1
  V  V46  1  0.87748218  0.49732555  0.36992960  1
  V  V47  1  0.74553754  0.12933327  0.87331628  1
  V  V48  1  0.12271932  0.10497775  0.50350127  1
  V  V49  1  0.37430408  0.86671110  0.49638190  1
  V  V50  1  0.86157280  0.61308773  0.76184923  1
  V  V51  1  -0.05460360  0.43567659  0.94228228  1
  V  V52  1  0.00187910  0.75751539  0.25731942  1
  V  V53  1  0.87678040  0.37627401  0.49514645  1
  V  V54  1  0.49356231  0.12375206  0.62681704  1
  V  V55  1  0.14113027  0.62753063  0.49305387  1
  V  V56  1  0.25275615  0.62511527  0.87486886  1
  V  V57  1  0.37988133  0.74742390  0.62533326  1
  V  V58  1  0.25364234  0.37810706  0.12124646  1
  V  V59  1  0.25155725  0.87476137  0.62113876  1
  V  V60  1  0.24001811  0.88011203  0.12314409  1
  V  V61  1  0.87137504  0.74768012  0.62471872  1
  V  V62  1  0.62012665  0.12659247  -0.00527589  1
  V  V63  1  0.12449558  0.50160201  0.12320400  1
  V  V64  1  0.37600279  0.37608374  0.49181095  1
  V  V65  1  -0.00471993  0.25226652  0.25399681  1
  V  V66  1  0.12698180  0.74899754  0.87516537  1
  V  V67  1  0.25148525  0.50104686  0.75055822  1
  V  V68  1  0.24328657  0.00276986  0.24533415  1
  V  V69  1  0.14273314  0.75314768  0.37394098  1
  V  V70  1  0.62773308  0.74497623  0.87602027  1
  V  V71  1  -0.00014790  0.50361680  0.49085434  1
  V  V72  1  0.25247900  0.75231633  0.00066890  1
  V  V73  1  0.37600828  0.62482142  0.26097360  1
  V  V74  1  -0.00107665  0.62366129  0.12142942  1
  V  V75  1  0.37411479  0.25229356  0.12197075  1
  V  V76  1  -0.00010936  0.74576949  0.75137842  1
  V  V77  1  0.75407379  0.37439355  0.12095221  1
  V  V78  1  0.38517221  0.62838418  0.75378538  1
  V  V79  1  0.63424039  0.24796407  0.37415460  1
  V  V80  1  -0.00305665  0.25505795  0.74872889  1
  V  V81  1  0.11993287  0.37744027  0.25546667  1
  V  V82  1  -0.00070176  0.87409359  0.87390251  1
  V  V83  1  0.37957627  0.75127888  0.12989247  1
  V  V84  1  0.87419508  0.25128327  0.62138490  1
  Zn  Zn85  1  0.61855913  0.74091706  0.36547927  1
  Zn  Zn86  1  0.62620720  0.62150456  0.49969161  1
  Zn  Zn87  1  0.74936849  0.62441725  0.37494843  1
  Zn  Zn88  1  0.49856917  -0.00073149  0.49727468  1
  Zn  Zn89  1  0.74680509  0.00034969  0.75029322  1
  Zn  Zn90  1  0.24939034  0.24789897  0.49948526  1
  Zn  Zn91  1  0.50410726  0.62411930  0.62795968  1
  Zn  Zn92  1  0.24978800  0.12747777  0.37597774  1
  Zn  Zn93  1  0.50055968  0.36663833  0.88139297  1
  Zn  Zn94  1  0.88782692  0.88437907  0.49692586  1
  Zn  Zn95  1  0.75238640  0.75344382  -0.00380365  1
  Zn  Zn96  1  0.75345160  0.88181236  0.12783635  1
  Zn  Zn97  1  0.75467529  0.24789783  0.49438955  1
  Zn  Zn98  1  0.49779674  0.86799896  0.36799466  1
  Zn  Zn99  1  0.49955693  0.37555057  0.37462754  1
  Zn  Zn100  1  -0.00384135  0.11022370  0.61247403  1
  Zn  Zn101  1  0.12649910  0.50264640  0.62300501  1
  Zn  Zn102  1  0.63178853  0.50290661  0.62758426  1
  Zn  Zn103  1  0.25443596  0.00396108  0.74341341  1
  Zn  Zn104  1  0.11949753  0.88380274  0.25408504  1
  Zn  Zn105  1  0.75190030  0.37969226  0.62867468  1
  Zn  Zn106  1  0.62384863  0.37371241  0.25191187  1
  Zn  Zn107  1  0.18378223  0.18937792  0.18727292  1
  Zn  Zn108  1  0.18305694  0.18794746  0.68353839  1
  Zn  Zn109  1  0.19140309  0.68913046  0.18976302  1
  Zn  Zn110  1  0.19260448  0.69068325  0.68380165  1
  Zn  Zn111  1  0.68498536  0.18693332  0.18561321  1
  Zn  Zn112  1  0.68699402  0.19126629  0.68401325  1
  Zn  Zn113  1  0.69191633  0.68348526  0.17311016  1
  Zn  Zn114  1  0.68486567  0.68390910  0.68743981  1
  Zn  Zn115  1  0.30741236  0.31268561  0.31046187  1
  Zn  Zn116  1  0.31187906  0.30838399  0.80822198  1
  Zn  Zn117  1  0.31423251  0.81489730  0.30751706  1
  Zn  Zn118  1  0.31578185  0.81198900  0.81095327  1
  Zn  Zn119  1  0.81438209  0.31457231  0.30961419  1
  Zn  Zn120  1  0.81651166  0.31820155  0.81954205  1
  Zn  Zn121  1  0.81006526  0.82194776  0.31426924  1
  Zn  Zn122  1  0.80819726  0.80912482  0.80956141  1
  Zn  Zn123  1  0.18556189  0.43683330  0.43916047  1
  Zn  Zn124  1  0.17999824  0.43715527  0.93712582  1
  Zn  Zn125  1  0.19434186  0.93470076  0.43409180  1
  Zn  Zn126  1  0.18897295  0.93897099  0.93348205  1
  Zn  Zn127  1  0.68781828  0.43483617  0.43707190  1
  Zn  Zn128  1  0.68299744  0.43396572  0.93493872  1
  Zn  Zn129  1  0.68891825  0.93476857  0.43571635  1
  Zn  Zn130  1  0.68688117  0.94045585  0.93893234  1
  Zn  Zn131  1  0.31224598  0.06174840  0.05824559  1
  Zn  Zn132  1  0.30908807  0.06038845  0.55939147  1
  Zn  Zn133  1  0.31127126  0.56394495  0.06476321  1
  Zn  Zn134  1  0.32016725  0.55816464  0.56420089  1
  Zn  Zn135  1  0.81196935  0.06467710  0.06485839  1
  Zn  Zn136  1  0.81284973  0.06201840  0.55717608  1
  Zn  Zn137  1  0.80625624  0.54889086  0.03138545  1
  Zn  Zn138  1  0.81011906  0.56285396  0.56581454  1
  Zn  Zn139  1  0.43315266  0.43637400  0.19213401  1
  Zn  Zn140  1  0.44240514  0.43604689  0.68566932  1
  Zn  Zn141  1  0.43832282  0.93959682  0.18720326  1
  Zn  Zn142  1  0.43792522  0.93454096  0.68798913  1
  Zn  Zn143  1  0.93705820  0.43621014  0.17505145  1
  Zn  Zn144  1  0.93560341  0.44005712  0.68533418  1
  Zn  Zn145  1  0.93593503  0.94258236  0.19382819  1
  Zn  Zn146  1  0.93397669  0.93582018  0.68426894  1
  Zn  Zn147  1  0.06321009  0.07000636  0.31525760  1
  Zn  Zn148  1  0.04251658  0.04545725  0.77723100  1
  Zn  Zn149  1  0.06432909  0.56898334  0.31207512  1
  Zn  Zn150  1  0.05928521  0.56073699  0.81338275  1
  Zn  Zn151  1  0.56364289  0.06162831  0.30970545  1
  Zn  Zn152  1  0.56040739  0.05906042  0.81060058  1
  Zn  Zn153  1  0.55940296  0.56448893  0.31536327  1
  Zn  Zn154  1  0.56008311  0.55587582  0.81849119  1
  Zn  Zn155  1  0.43971838  0.18751222  0.44048566  1
  Zn  Zn156  1  0.43354383  0.18462126  0.93751381  1
  Zn  Zn157  1  0.44099008  0.69144300  0.43709547  1
  Zn  Zn158  1  0.44273795  0.68659543  0.94084950  1
  Zn  Zn159  1  0.93848292  0.18148235  0.43352229  1
  Zn  Zn160  1  0.93561668  0.19031642  0.93844161  1
  Zn  Zn161  1  0.95938420  0.72371597  0.45726626  1
  Zn  Zn162  1  0.93667155  0.68505598  0.93904447  1
  Zn  Zn163  1  0.06574782  0.31118247  0.06610143  1
  Zn  Zn164  1  0.05641367  0.31659805  0.56539371  1
  Zn  Zn165  1  0.06056892  0.81114032  0.06307275  1
  Zn  Zn166  1  0.06950969  0.81462391  0.56128649  1
  Zn  Zn167  1  0.56417591  0.30942724  0.06342423  1
  Zn  Zn168  1  0.56402628  0.31437427  0.56514260  1
  Zn  Zn169  1  0.56510716  0.80840387  0.06027296  1
  Zn  Zn170  1  0.55702505  0.81099687  0.55869682  1
  O  O171  1  0.11685809  0.13392225  0.10968200  1
  O  O172  1  0.12361439  0.12913856  0.60653615  1
  O  O173  1  0.12179558  0.61969615  0.12172245  1
  O  O174  1  0.11941768  0.62809397  0.61397567  1
  O  O175  1  0.61638071  0.11961654  0.11785515  1
  O  O176  1  0.61769425  0.11720324  0.62117323  1
  O  O177  1  0.61554902  0.61297934  0.11724422  1
  O  O178  1  0.62012024  0.62225562  0.62013488  1
  O  O179  1  0.37433883  0.36575602  0.38877702  1
  O  O180  1  0.37311172  0.38418977  0.87191732  1
  O  O181  1  0.37431113  0.88154483  0.37947698  1
  O  O182  1  0.38335376  0.87720086  0.88277298  1
  O  O183  1  0.87613088  0.38745730  0.37784898  1
  O  O184  1  0.87538764  0.38551377  0.88617697  1
  O  O185  1  0.86111920  0.89854584  0.38086187  1
  O  O186  1  0.87858646  0.87785908  0.88033551  1
  O  O187  1  0.26167346  0.00225660  0.36423811  1
  O  O188  1  0.25894872  0.00891547  0.87422470  1
  O  O189  1  0.24736489  0.49719573  0.36146813  1
  O  O190  1  0.25505537  0.50460066  0.87181390  1
  O  O191  1  0.74153989  0.00707317  0.36363309  1
  O  O192  1  0.75481410  0.01214940  0.87577073  1
  O  O193  1  0.75673832  0.49738774  0.36164527  1
  O  O194  1  0.72764539  0.53705050  0.94014711  1
  O  O195  1  0.24153481  0.49426641  0.13068942  1
  O  O196  1  0.24976444  0.48916082  0.63117633  1
  O  O197  1  0.25618875  0.99166240  0.13125908  1
  O  O198  1  0.26003554  0.98277136  0.62923157  1
  O  O199  1  0.74115768  0.49027450  0.12437408  1
  O  O200  1  0.74655597  0.49257083  0.62132980  1
  O  O201  1  0.74285440  1.00140649  0.13228545  1
  O  O202  1  0.74166499  0.99242391  0.62457043  1
  O  O203  1  0.01040106  0.36650329  0.23841835  1
  O  O204  1  0.00805450  0.36582691  0.74320624  1
  O  O205  1  0.00481706  0.86357256  0.24219830  1
  O  O206  1  0.00677619  0.86055510  0.75273985  1
  O  O207  1  0.49874880  0.36135350  0.24987225  1
  O  O208  1  0.50688970  0.36203008  0.75215568  1
  O  O209  1  0.51874874  0.88146421  0.24508822  1
  O  O210  1  0.51210956  0.87670072  0.75794968  1
  O  O211  1  0.49393982  0.13388815  0.24179260  1
  O  O212  1  0.50511971  0.13588954  0.74072748  1
  O  O213  1  0.48946248  0.61337891  0.23472270  1
  O  O214  1  0.48759284  0.61765111  0.75209717  1
  O  O215  1  1.01109221  0.13816718  0.23733552  1
  O  O216  1  0.98812423  0.14522921  0.75940451  1
  O  O217  1  0.99691816  0.63185859  0.23825992  1
  O  O218  1  1.00085792  0.63427081  0.74367615  1
  O  O219  1  0.36115190  0.24720247  0.00489658  1
  O  O220  1  0.37451003  0.25660172  0.51199602  1
  O  O221  1  0.37128005  0.75924136  0.00802544  1
  O  O222  1  0.37439971  0.75638711  0.50831324  1
  O  O223  1  0.86467034  0.24467942  0.01259781  1
  O  O224  1  0.88005925  0.25734091  0.50383119  1
  O  O225  1  0.87752179  0.75980333  0.00843432  1
  O  O226  1  0.85964847  0.74372289  0.51598055  1
  O  O227  1  0.12257848  0.26260679  0.48727759  1
  O  O228  1  0.13450583  0.24583675  0.99276620  1
  O  O229  1  0.13047467  0.73734082  0.48603661  1
  O  O230  1  0.13128953  0.74484110  0.99504488  1
  O  O231  1  0.62526882  0.24367528  0.49139036  1
  O  O232  1  0.63337396  0.23537244  1.00521971  1
  O  O233  1  0.63670576  0.75119627  0.50135593  1
  O  O234  1  0.62867969  0.73703756  0.99291030  1
  O  O235  1  0.49504503  0.24134699  0.13113974  1
  O  O236  1  0.49417413  0.24282876  0.63273323  1
  O  O237  1  0.49146317  0.73937878  0.11878566  1
  O  O238  1  0.48574067  0.74660628  0.62351672  1
  O  O239  1  0.99314828  0.24354187  0.12923234  1
  O  O240  1  0.98969060  0.24665434  0.63266325  1
  O  O241  1  0.99428584  0.74452383  0.13326194  1
  O  O242  1  0.99365445  0.74013600  0.63320099  1
  O  O243  1  0.00498252  0.24699022  0.36112121  1
  O  O244  1  0.01154990  0.24979354  0.87156447  1
  O  O245  1  0.01510598  0.73665687  0.35830834  1
  O  O246  1  0.00493639  0.75406046  0.86865913  1
  O  O247  1  0.50541944  0.25000049  0.36580692  1
  O  O248  1  0.48960063  0.24806630  0.85953568  1
  O  O249  1  0.50608528  0.75511475  0.37409647  1
  O  O250  1  0.51015995  0.76315340  0.88188499  1
  O  O251  1  0.23698005  0.12815335  0.49795223  1
  O  O252  1  0.24311371  0.13205908  0.99407044  1
  O  O253  1  0.23837680  0.61604740  0.50596403  1
  O  O254  1  0.24550993  0.63286450  0.99525234  1
  O  O255  1  0.73370460  0.12912426  0.50666217  1
  O  O256  1  0.74330566  0.13244745  0.99410083  1
  O  O257  1  0.74914319  0.63419678  0.49711544  1
  O  O258  1  0.74223144  0.64346188  1.03673540  1
  O  O259  1  0.24095430  0.36626183  0.00900482  1
  O  O260  1  0.25644609  0.37510136  0.50870964  1
  O  O261  1  0.25739438  0.87168796  0.00528985  1
  O  O262  1  0.26374570  0.87747587  0.50665080  1
  O  O263  1  0.73930181  0.35898585  0.00585084  1
  O  O264  1  0.76629012  0.37072947  0.49636230  1
  O  O265  1  0.76373249  0.87640679  0.00236658  1
  O  O266  1  0.74895453  0.86911255  0.51226786  1
  O  O267  1  0.13411669  0.49689598  0.24579038  1
  O  O268  1  0.13108496  0.49289879  0.74746385  1
  O  O269  1  0.13926024  1.00260717  0.25569288  1
  O  O270  1  0.13614297  0.98016980  0.76466165  1
  O  O271  1  0.63083877  0.49930948  0.23956942  1
  O  O272  1  0.61914223  0.48467475  0.75108919  1
  O  O273  1  0.63149742  0.99703334  0.23889978  1
  O  O274  1  0.62632368  0.99265186  0.73774141  1
  O  O275  1  0.36741040  0.00659274  0.25358040  1
  O  O276  1  0.37297713  -0.00783978  0.76516050  1
  O  O277  1  0.36106817  0.50670383  0.24723957  1
  O  O278  1  0.36972851  0.50418025  0.75867387  1
  O  O279  1  0.85982391  -0.00187174  0.25953063  1
  O  O280  1  0.86682313  0.00569422  0.75929052  1
  O  O281  1  0.87020288  0.50101122  0.25010216  1
  O  O282  1  0.87938049  0.51438100  0.74915571  1
  O  O283  1  0.12615164  0.37162561  0.36295083  1
  O  O284  1  0.13412311  0.36474907  0.85980907  1
  O  O285  1  0.13276755  0.85808626  0.37303033  1
  O  O286  1  0.11947769  0.86561165  0.87087991  1
  O  O287  1  0.62132897  0.36333584  0.37117764  1
  O  O288  1  0.61899060  0.37369841  0.86330276  1
  O  O289  1  0.62421390  0.87510373  0.35815745  1
  O  O290  1  0.62008435  0.87165074  0.86984916  1
  O  O291  1  0.38100763  0.13042167  0.12624195  1
  O  O292  1  0.38409868  0.13133832  0.61891327  1
  O  O293  1  0.37924995  0.63405134  0.12915776  1
  O  O294  1  0.37466685  0.63075821  0.63604278  1
  O  O295  1  0.88667632  0.13331995  0.12192826  1
  O  O296  1  0.87603771  0.13232860  0.63015584  1
  O  O297  1  0.88568494  0.63480333  0.12943467  1
  O  O298  1  0.88369571  0.63198773  0.63375852  1
  O  O299  1  0.25166478  0.25825368  0.11765147  1
  O  O300  1  0.25687431  0.25912913  0.62564674  1
  O  O301  1  0.25804881  0.75874940  0.11931459  1
  O  O302  1  0.26473764  0.76214305  0.62932458  1
  O  O303  1  0.75611370  0.25363329  0.12076977  1
  O  O304  1  0.76404744  0.25396364  0.62181963  1
  O  O305  1  0.76933248  0.76102106  0.13174980  1
  O  O306  1  0.75589139  0.75680527  0.62292922  1
  O  O307  1  0.23768045  0.24882660  0.37600672  1
  O  O308  1  0.24516445  0.24382022  0.88005589  1
  O  O309  1  0.24099671  0.74488188  0.36453245  1
  O  O310  1  0.24703609  0.74575138  0.88144320  1
  O  O311  1  0.73830569  0.25119931  0.37103039  1
  O  O312  1  0.75622956  0.23805452  0.88386557  1
  O  O313  1  0.74841733  0.74958440  0.38295301  1
  O  O314  1  0.73399438  0.75466105  0.87826316  1
  O  O315  1  0.00758111  0.12135147  0.00425649  1
  O  O316  1  0.01786397  0.12695699  0.49856608  1
  O  O317  1  0.00925807  0.63447831  0.01402067  1
  O  O318  1  0.00692187  0.62344798  0.50714355  1
  O  O319  1  0.50765960  0.13048071  0.00708493  1
  O  O320  1  0.50934138  0.12309413  0.51141349  1
  O  O321  1  0.49565851  0.60977388  0.01307047  1
  O  O322  1  0.49630714  0.61023284  0.50161963  1
  O  O323  1  0.49138787  0.37997504  0.50048127  1
  O  O324  1  0.50017637  0.38319608  1.00177582  1
  O  O325  1  0.48640377  0.88002202  0.49776251  1
  O  O326  1  0.49266156  0.87389573  0.99424759  1
  O  O327  1  0.98933859  0.39102182  0.50448457  1
  O  O328  1  1.00498034  0.37073322  0.99396541  1
  O  O329  1  0.98695247  0.83126661  0.49342635  1
  O  O330  1  0.99238296  0.88062702  0.99533409  1
  O  O331  1  0.50037941  0.49388739  0.38897756  1
  O  O332  1  0.48777233  0.49483357  0.88777562  1
  O  O333  1  0.48720566  0.99709318  0.37100810  1
  O  O334  1  0.49376181  0.98766159  0.87361974  1
  O  O335  1  0.99456320  0.50754641  0.38300222  1
  O  O336  1  1.00622149  0.49328706  0.88384451  1
  O  O337  1  0.99017851  0.99791008  0.36357423  1
  O  O338  1  0.99218593  0.99231362  0.87577796  1
  O  O339  1  -0.00371428  0.01250692  0.12024327  1
  O  O340  1  0.00938938  0.01343557  0.66831815  1
  O  O341  1  0.01621780  0.50967289  0.13364065  1
  O  O342  1  0.00202341  0.51291900  0.61614484  1
  O  O343  1  0.50644917  0.01440208  0.12869256  1
  O  O344  1  0.50528843  0.00763327  0.62561419  1
  O  O345  1  0.50288175  0.49976054  0.12283045  1
  O  O346  1  0.50294697  0.50034885  0.61265951  1
  O  O347  1  0.24342798  0.38606571  0.24302611  1
  O  O348  1  0.24424498  0.37932974  0.74235878  1
  O  O349  1  0.24934399  0.88510589  0.23899217  1
  O  O350  1  0.24301113  0.87206796  0.74378381  1
  O  O351  1  0.74866913  0.38563400  0.23997446  1
  O  O352  1  0.73441028  0.36577684  0.75412926  1
  O  O353  1  0.73740511  0.88854656  0.24694957  1
  O  O354  1  0.73914271  0.87534273  0.73849703  1
  O  O355  1  0.25563362  0.12046679  0.24783779  1
  O  O356  1  0.24216584  0.12517270  0.76169318  1
  O  O357  1  0.25790160  0.61089449  0.24352481  1
  O  O358  1  0.25589957  0.61831201  0.75591607  1
  O  O359  1  0.74545734  0.11217730  0.24614259  1
  O  O360  1  0.75346008  0.12732720  0.75745497  1
  O  O361  1  0.75728326  0.61166595  0.24116838  1
  O  O362  1  0.76316262  0.62740402  0.75015362  1
  O  O363  1  0.37332951  0.11927912  0.36963649  1
  O  O364  1  0.36440446  0.11398934  0.88027901  1
  O  O365  1  0.37842262  0.62980615  0.35986359  1
  O  O366  1  0.37045896  0.61975016  0.87085923  1
  O  O367  1  0.87371120  0.10782079  0.37665730  1
  O  O368  1  0.86692520  0.12115580  0.87016790  1
  O  O369  1  0.87055736  0.60949173  0.36294922  1
  O  O370  1  0.87847508  0.62936540  0.86116543  1
  O  O371  1  0.13379148  0.38207959  0.13402812  1
  O  O372  1  0.13280455  0.37526136  0.63483523  1
  O  O373  1  0.13749468  0.87184618  0.12473962  1
  O  O374  1  0.13684830  0.86582406  0.63355317  1
  O  O375  1  0.63352118  0.37915200  0.12856975  1
  O  O376  1  0.62757024  0.37213919  0.64131507  1
  O  O377  1  0.62691330  0.88372971  0.12803952  1
  O  O378  1  0.62669976  0.87971939  0.62994734  1
  O  O379  1  0.11952417  0.25981345  0.25746018  1
  O  O380  1  0.11692886  0.25545665  0.75555084  1
  O  O381  1  0.12161304  0.74993023  0.25878464  1
  O  O382  1  0.11895185  0.75406338  0.75559224  1
  O  O383  1  0.61575011  0.24821474  0.25585786  1
  O  O384  1  0.61140654  0.25464020  0.74765306  1
  O  O385  1  0.63449611  0.76418372  0.24085884  1
  O  O386  1  0.62626564  0.75706296  0.75893090  1
  O  O387  1  0.37859599  0.24433325  0.24333121  1
  O  O388  1  0.38524725  0.25365851  0.73649139  1
  O  O389  1  0.36990245  0.74282254  0.23603941  1
  O  O390  1  0.37309773  0.73782672  0.74460874  1
  O  O391  1  0.88406136  0.25613107  0.23791932  1
  O  O392  1  0.87994875  0.25183413  0.74353427  1
  O  O393  1  0.88388067  0.74898206  0.24730194  1
  O  O394  1  0.88184326  0.74541467  0.74165192  1
  O  O395  1  0.38641736  0.48780901  0.50370930  1
  O  O396  1  0.37650091  0.50128693  0.99254438  1
  O  O397  1  0.37580670  0.99462355  0.48878865  1
  O  O398  1  0.37114969  0.98706610  0.99043906  1
  O  O399  1  0.88150280  0.49730707  0.48922236  1
  O  O400  1  0.89952939  0.49481633  1.01407192  1
  O  O401  1  0.88169459  1.00094653  0.49074669  1
  O  O402  1  0.88154497  0.99526560  0.99417537  1
  O  O403  1  0.11773009  0.00936199  -0.00660562  1
  O  O404  1  0.12698101  0.00616120  0.49555582  1
  O  O405  1  0.13205907  0.51037397  0.01140149  1
  O  O406  1  0.11734607  0.51019890  0.49957721  1
  O  O407  1  0.63077087  0.01071113  0.01345071  1
  O  O408  1  0.62186446  0.00382799  0.50921309  1
  O  O409  1  0.60757300  0.50053876  0.01354060  1
  O  O410  1  0.61166789  0.49488755  0.50081226  1
  O  O411  1  0.36059588  0.36941295  0.12891767  1
  O  O412  1  0.36775738  0.36801902  0.61969258  1
  O  O413  1  0.37188472  0.86979750  0.11907450  1
  O  O414  1  0.37286086  0.86702753  0.61874775  1
  O  O415  1  0.86072714  0.36645161  0.12405701  1
  O  O416  1  0.87628177  0.36787326  0.61554538  1
  O  O417  1  0.87983095  0.87140665  0.11628025  1
  O  O418  1  0.86533561  0.86748065  0.62450407  1
  O  O419  1  0.12749723  0.13523086  0.38709811  1
  O  O420  1  0.13297232  0.13530511  0.88627201  1
  O  O421  1  0.12851090  0.63050554  0.38645940  1
  O  O422  1  0.13152948  0.62993949  0.87942567  1
  O  O423  1  0.61481168  0.13321811  0.38492188  1
  O  O424  1  0.63171126  0.11754722  0.88314917  1
  O  O425  1  0.63150782  0.62494112  0.37810387  1
  O  O426  1  0.61364248  0.63166054  0.88636921  1
