# generated using pymatgen
data_V85Zn86O256
_symmetry_space_group_name_H-M   'P 1'
_cell_length_a   16.92593156
_cell_length_b   16.92578180
_cell_length_c   16.92557419
_cell_angle_alpha   89.96213004
_cell_angle_beta   89.98059691
_cell_angle_gamma   90.01326993
_symmetry_Int_Tables_number   1
_chemical_formula_structural   V85Zn86O256
_chemical_formula_sum   'V85 Zn86 O256'
_cell_volume   4848.91529549
_cell_formula_units_Z   1
loop_
 _symmetry_equiv_pos_site_id
 _symmetry_equiv_pos_as_xyz
  1  'x, y, z'
loop_
 _atom_site_type_symbol
 _atom_site_label
 _atom_site_symmetry_multiplicity
 _atom_site_fract_x
 _atom_site_fract_y
 _atom_site_fract_z
 _atom_site_occupancy
  V  V0  1  0.00066635  0.74990601  0.76483738  1
  V  V1  1  0.12973378  0.12685839  0.50365810  1
  V  V2  1  0.38026692  0.13089740  0.25269697  1
  V  V3  1  0.87432336  0.00083920  0.37594999  1
  V  V4  1  0.74890793  0.63232975  0.88175730  1
  V  V5  1  0.37415243  0.50100115  0.87003775  1
  V  V6  1  0.86963858  0.61801035  0.75023645  1
  V  V7  1  0.12900108  0.24856692  0.88683756  1
  V  V8  1  0.13814379  0.49906504  0.62486969  1
  V  V9  1  0.50040965  0.00127921  -0.00123797  1
  V  V10  1  0.24926420  0.87382526  0.12761038  1
  V  V11  1  -0.00056049  0.25098284  0.25589490  1
  V  V12  1  0.00271011  0.63097068  0.12740828  1
  V  V13  1  0.12220133  0.74827454  0.36870125  1
  V  V14  1  0.37436596  0.87425435  0.50143194  1
  V  V15  1  0.50299081  0.74923160  0.25608557  1
  V  V16  1  0.24798442  -0.00057355  0.75063728  1
  V  V17  1  0.61444614  0.26357955  0.35938920  1
  V  V18  1  0.87952011  0.75238386  0.12698193  1
  V  V19  1  0.87352993  0.87363839  0.50241492  1
  V  V20  1  -0.00063917  0.00011965  0.50090658  1
  V  V21  1  0.49881016  0.49560215  0.47746229  1
  V  V22  1  0.50891382  0.87644137  0.86567080  1
  V  V23  1  0.50657127  0.63030013  0.12146096  1
  V  V24  1  0.62312854  0.12940498  0.49979462  1
  V  V25  1  0.75015015  -0.00049427  0.25073114  1
  V  V26  1  0.12337665  0.25420342  0.38214751  1
  V  V27  1  0.61345648  0.50477528  0.63286710  1
  V  V28  1  0.87214274  0.25395912  0.62507283  1
  V  V29  1  0.74683641  0.12797406  0.87639003  1
  V  V30  1  0.74370169  0.74503207  0.49285283  1
  V  V31  1  0.00171178  0.25246736  0.75149778  1
  V  V32  1  0.62244700  0.26829422  0.87512109  1
  V  V33  1  0.24716206  0.87185609  0.62793404  1
  V  V34  1  0.00007707  0.12602289  0.62564048  1
  V  V35  1  0.25076752  0.12941740  0.37880809  1
  V  V36  1  0.12047377  0.86896496  0.76311222  1
  V  V37  1  0.24944316  -0.00126877  0.25278611  1
  V  V38  1  0.37438561  0.12617832  0.75002372  1
  V  V39  1  0.37914339  0.24881435  0.12302546  1
  V  V40  1  -0.00084564  0.87117727  0.36629847  1
  V  V41  1  0.24605629  0.36791145  0.11601453  1
  V  V42  1  0.24729222  0.74556070  0.49925279  1
  V  V43  1  0.87501965  0.62705804  0.25114524  1
  V  V44  1  0.87873669  0.24862064  0.11784512  1
  V  V45  1  -0.00340203  0.49787010  -0.00124639  1
  V  V46  1  0.24664081  0.12689361  0.88549061  1
  V  V47  1  0.88247326  0.37499265  0.49626058  1
  V  V48  1  0.87730058  0.12546495  0.24945619  1
  V  V49  1  0.49934128  0.00161052  0.50204175  1
  V  V50  1  0.37689162  0.87452385  -0.00288392  1
  V  V51  1  0.74429065  0.25733249  0.49870789  1
  V  V52  1  0.11929804  0.37582945  0.25357512  1
  V  V53  1  0.37783374  0.73864574  0.62695513  1
  V  V54  1  0.00641517  0.00364830  -0.00053694  1
  V  V55  1  0.88045268  0.49618894  0.37293262  1
  V  V56  1  0.87477841  0.12530099  0.74951678  1
  V  V57  1  -0.00248897  0.37601314  0.87651566  1
  V  V58  1  0.74305870  -0.00599390  0.74996877  1
  V  V59  1  0.24459859  0.62350820  0.86710203  1
  V  V60  1  0.87955075  -0.00298758  0.87512795  1
  V  V61  1  0.50472867  0.26311278  0.75359248  1
  V  V62  1  0.59279125  0.46195017  0.14278212  1
  V  V63  1  0.62446302  0.87468489  0.25449138  1
  V  V64  1  0.13987705  0.37881018  0.74804460  1
  V  V65  1  0.50423809  0.87203694  0.37955738  1
  V  V66  1  0.76177469  0.38198248  0.12924511  1
  V  V67  1  0.87697128  0.87195505  -0.00284131  1
  V  V68  1  0.87743062  0.74739124  0.62486401  1
  V  V69  1  0.51104118  0.74387930  0.74550828  1
  V  V70  1  0.36756308  0.37669064  0.48307149  1
  V  V71  1  0.62599482  0.00126578  0.12431322  1
  V  V72  1  0.24143066  0.74779349  -0.00474188  1
  V  V73  1  0.49996165  0.12959789  0.62644726  1
  V  V74  1  0.25270653  0.49933119  0.25549537  1
  V  V75  1  0.49951207  0.49884926  -0.00613976  1
  V  V76  1  0.12493591  0.50028266  0.12253763  1
  V  V77  1  0.36227092  0.26264253  0.62228002  1
  V  V78  1  0.74146700  0.38381952  0.63562526  1
  V  V79  1  0.75208217  0.25836188  -0.00052786  1
  V  V80  1  0.74943266  0.86849949  0.12081946  1
  V  V81  1  0.37475203  0.36969005  -0.00750820  1
  V  V82  1  0.37544829  0.74747737  0.12465021  1
  V  V83  1  0.74803279  0.12690272  0.37591706  1
  V  V84  1  0.86413938  0.49308204  0.87428814  1
  Zn  Zn85  1  0.12029120  0.62294019  0.49937672  1
  Zn  Zn86  1  0.37722593  0.62031759  0.74768983  1
  Zn  Zn87  1  0.61102786  0.62660899  0.49607866  1
  Zn  Zn88  1  0.12105278  0.62865569  -0.00670769  1
  Zn  Zn89  1  0.50184103  0.12440850  0.13084580  1
  Zn  Zn90  1  0.62950154  0.63007588  0.00419828  1
  Zn  Zn91  1  0.62150501  -0.00139171  0.63033830  1
  Zn  Zn92  1  0.25026507  0.61950072  0.37716916  1
  Zn  Zn93  1  0.74263929  0.86732390  0.63214425  1
  Zn  Zn94  1  0.63054986  0.75669249  0.87753328  1
  Zn  Zn95  1  0.37507627  0.00084357  0.37689917  1
  Zn  Zn96  1  0.38082765  0.61432260  0.25444020  1
  Zn  Zn97  1  0.62342379  0.12995201  0.00160610  1
  Zn  Zn98  1  0.00196348  0.49916062  0.50142118  1
  Zn  Zn99  1  0.12116238  -0.00311376  0.62738570  1
  Zn  Zn100  1  0.74394567  0.62437843  0.37236351  1
  Zn  Zn101  1  0.37591464  -0.00012072  0.87379864  1
  Zn  Zn102  1  0.13084135  0.00685939  0.11966171  1
  Zn  Zn103  1  0.12216566  0.87332778  0.24720798  1
  Zn  Zn104  1  0.00019727  0.61856794  0.62516758  1
  Zn  Zn105  1  0.74597580  0.49910318  0.25302291  1
  Zn  Zn106  1  0.01316596  0.12861511  0.12069863  1
  Zn  Zn107  1  0.18969854  0.18693109  0.18705389  1
  Zn  Zn108  1  0.18601568  0.18899166  0.69312412  1
  Zn  Zn109  1  0.18585619  0.68674178  0.18726448  1
  Zn  Zn110  1  0.18509021  0.68507671  0.68816212  1
  Zn  Zn111  1  0.69037503  0.18840699  0.18637230  1
  Zn  Zn112  1  0.68561280  0.18991405  0.68865587  1
  Zn  Zn113  1  0.68773978  0.68928935  0.19076672  1
  Zn  Zn114  1  0.68995701  0.67888332  0.68480911  1
  Zn  Zn115  1  0.30627875  0.30971160  0.30733033  1
  Zn  Zn116  1  0.31517457  0.30911667  0.81491621  1
  Zn  Zn117  1  0.31755774  0.80442750  0.31591931  1
  Zn  Zn118  1  0.31758953  0.80932253  0.81299508  1
  Zn  Zn119  1  0.81002748  0.31320458  0.31315012  1
  Zn  Zn120  1  0.81203094  0.31413457  0.81228400  1
  Zn  Zn121  1  0.81479897  0.81146301  0.31086619  1
  Zn  Zn122  1  0.81667223  0.81171878  0.81319206  1
  Zn  Zn123  1  0.18910293  0.43308992  0.44089357  1
  Zn  Zn124  1  0.18708676  0.44018139  0.93519525  1
  Zn  Zn125  1  0.18563037  0.93738328  0.43852649  1
  Zn  Zn126  1  0.19053052  0.93522448  0.93566108  1
  Zn  Zn127  1  0.68704202  0.44199530  0.43569911  1
  Zn  Zn128  1  0.68732890  0.44074083  0.95264392  1
  Zn  Zn129  1  0.68537625  0.93655199  0.44481968  1
  Zn  Zn130  1  0.68976923  0.93745503  0.93860306  1
  Zn  Zn131  1  0.31413888  0.06106794  0.06518197  1
  Zn  Zn132  1  0.31281367  0.06315929  0.56619499  1
  Zn  Zn133  1  0.31303416  0.56185197  0.06108571  1
  Zn  Zn134  1  0.31582687  0.55687286  0.55718597  1
  Zn  Zn135  1  0.81403007  0.06421263  0.06117989  1
  Zn  Zn136  1  0.81083325  0.06522339  0.56400143  1
  Zn  Zn137  1  0.81886208  0.56446809  0.05873215  1
  Zn  Zn138  1  0.81190702  0.56018837  0.56228509  1
  Zn  Zn139  1  0.42797593  0.43491885  0.18328807  1
  Zn  Zn140  1  0.43847962  0.43880399  0.68597215  1
  Zn  Zn141  1  0.43519576  0.93829164  0.18933916  1
  Zn  Zn142  1  0.43664110  0.93536406  0.68751483  1
  Zn  Zn143  1  0.93761431  0.43843424  0.18790902  1
  Zn  Zn144  1  0.94032288  0.43804915  0.68658998  1
  Zn  Zn145  1  0.93849117  0.94131660  0.18401758  1
  Zn  Zn146  1  0.93614692  0.93434808  0.68912918  1
  Zn  Zn147  1  0.06439336  0.06256549  0.31168849  1
  Zn  Zn148  1  0.06380278  0.06164362  0.81464362  1
  Zn  Zn149  1  0.06044778  0.56354194  0.31321988  1
  Zn  Zn150  1  0.06155393  0.56084165  0.80831768  1
  Zn  Zn151  1  0.56267486  0.06309643  0.31720227  1
  Zn  Zn152  1  0.56251350  0.06937401  0.81587523  1
  Zn  Zn153  1  0.56706100  0.56587820  0.31286913  1
  Zn  Zn154  1  0.56318655  0.56100353  0.81140567  1
  Zn  Zn155  1  0.43731860  0.19695646  0.43808156  1
  Zn  Zn156  1  0.43696011  0.18845781  0.93676722  1
  Zn  Zn157  1  0.43377713  0.68036372  0.43485308  1
  Zn  Zn158  1  0.43935080  0.68798502  0.93398734  1
  Zn  Zn159  1  0.93790683  0.18941872  0.43872803  1
  Zn  Zn160  1  0.93865904  0.18548150  0.93582645  1
  Zn  Zn161  1  0.93922561  0.68461611  0.43815899  1
  Zn  Zn162  1  0.93184366  0.68461223  0.94211299  1
  Zn  Zn163  1  0.05952688  0.31323922  0.06287106  1
  Zn  Zn164  1  0.06618368  0.31499246  0.56696917  1
  Zn  Zn165  1  0.06110577  0.81717176  0.05987058  1
  Zn  Zn166  1  0.06106265  0.80950188  0.56314665  1
  Zn  Zn167  1  0.55923822  0.31252054  0.06884072  1
  Zn  Zn168  1  0.55828349  0.31962585  0.55918536  1
  Zn  Zn169  1  0.56583686  0.81223696  0.05742747  1
  Zn  Zn170  1  0.56547170  0.81497044  0.56948154  1
  O  O171  1  0.12643669  0.12013509  0.12730325  1
  O  O172  1  0.11983678  0.12540428  0.61921677  1
  O  O173  1  0.11699117  0.62033093  0.12187389  1
  O  O174  1  0.12350329  0.61009536  0.62733155  1
  O  O175  1  0.62500327  0.11350110  0.12431958  1
  O  O176  1  0.61566545  0.12473854  0.61979061  1
  O  O177  1  0.61197264  0.63204298  0.12464807  1
  O  O178  1  0.63243429  0.60801298  0.61398868  1
  O  O179  1  0.37198945  0.36226551  0.38423840  1
  O  O180  1  0.36827668  0.38234885  0.88497848  1
  O  O181  1  0.38545945  0.87558743  0.38339649  1
  O  O182  1  0.38572878  0.87705873  0.88107407  1
  O  O183  1  0.87047705  0.38094978  0.38427429  1
  O  O184  1  0.88377630  0.38213870  0.87000909  1
  O  O185  1  0.88138021  0.87911118  0.38177877  1
  O  O186  1  0.86950858  0.88502374  0.88445092  1
  O  O187  1  0.25138387  0.00967743  0.37128688  1
  O  O188  1  0.25180842  0.00418240  0.86349150  1
  O  O189  1  0.24152660  0.49864793  0.35847017  1
  O  O190  1  0.25846492  0.51485022  0.88043945  1
  O  O191  1  0.75479202  0.00536426  0.37212212  1
  O  O192  1  0.75697021  0.00823609  0.86813031  1
  O  O193  1  0.76271634  0.50236293  0.37194511  1
  O  O194  1  0.76091654  0.50321026  0.88364591  1
  O  O195  1  0.24338404  0.48985998  0.12963692  1
  O  O196  1  0.23803605  0.50296912  0.62544955  1
  O  O197  1  0.25193941  0.99009369  0.13339360  1
  O  O198  1  0.24819036  0.99206112  0.63642335  1
  O  O199  1  0.76391416  0.48545377  0.12187844  1
  O  O200  1  0.74051813  0.48767484  0.61780192  1
  O  O201  1  0.74476367  0.99319072  0.12986982  1
  O  O202  1  0.75333978  1.00444190  0.64317477  1
  O  O203  1  0.01162876  0.36765415  0.24555578  1
  O  O204  1  0.00544326  0.36995620  0.76079575  1
  O  O205  1  0.00002778  0.88188054  0.26263345  1
  O  O206  1  0.00547403  0.86087845  0.74751673  1
  O  O207  1  0.52823182  0.38534576  0.18029224  1
  O  O208  1  0.49868051  0.36109203  0.75025642  1
  O  O209  1  0.50356791  0.87151376  0.25896171  1
  O  O210  1  0.49628315  0.86509179  0.75650399  1
  O  O211  1  0.48371818  0.11500953  0.25099043  1
  O  O212  1  0.49152655  0.12986791  0.74413433  1
  O  O213  1  0.49883268  0.63430282  0.24233240  1
  O  O214  1  0.49645815  0.64052695  0.75584154  1
  O  O215  1  0.99384484  0.13230639  0.24963440  1
  O  O216  1  0.99496156  0.13043779  0.74596889  1
  O  O217  1  0.99003332  0.61978269  0.23583778  1
  O  O218  1  0.99040969  0.63498312  0.75011812  1
  O  O219  1  0.37558694  0.25903029  0.00430270  1
  O  O220  1  0.38080703  0.26218632  0.51495522  1
  O  O221  1  0.37081158  0.75463103  0.00980381  1
  O  O222  1  0.36800715  0.75579491  0.50852206  1
  O  O223  1  0.87112772  0.24318037  0.01060280  1
  O  O224  1  0.86580923  0.25527820  0.50457618  1
  O  O225  1  0.87746421  0.75898725  0.01274048  1
  O  O226  1  0.87078327  0.75703196  0.50669007  1
  O  O227  1  0.11825382  0.24322356  0.49104632  1
  O  O228  1  0.12201095  0.25555377  0.98606901  1
  O  O229  1  0.13232143  0.74948125  0.49344862  1
  O  O230  1  0.13796061  0.75131679  1.00255599  1
  O  O231  1  0.63015148  0.24736453  0.49668430  1
  O  O232  1  0.63219939  0.24962682  0.99366227  1
  O  O233  1  0.64138818  0.74869872  0.50756347  1
  O  O234  1  0.62023900  0.74424267  0.99055252  1
  O  O235  1  0.48414421  0.24029236  0.11850072  1
  O  O236  1  0.49647652  0.24402414  0.63537676  1
  O  O237  1  0.49240726  0.74865516  0.12926315  1
  O  O238  1  0.49303979  0.75395757  0.63690479  1
  O  O239  1  0.99419416  0.24881368  0.13431530  1
  O  O240  1  0.99428861  0.24603824  0.63211024  1
  O  O241  1  0.99437919  0.74289455  0.12176007  1
  O  O242  1  0.98703875  0.74776617  0.62983626  1
  O  O243  1  0.00715976  0.24584217  0.36378453  1
  O  O244  1  0.00520562  0.25614753  0.87064224  1
  O  O245  1  0.00796452  0.76018030  0.38005675  1
  O  O246  1  -0.00737769  0.74674037  0.86365027  1
  O  O247  1  0.51543694  0.24931500  0.37530402  1
  O  O248  1  0.50807157  0.24525315  0.86290671  1
  O  O249  1  0.49609945  0.75833535  0.36609422  1
  O  O250  1  0.50025090  0.75896245  0.86137851  1
  O  O251  1  0.23794111  0.11950720  0.49570299  1
  O  O252  1  0.25490869  0.11471543  0.98396441  1
  O  O253  1  0.24720747  0.63590564  0.49982832  1
  O  O254  1  0.24783179  0.63297395  0.99343411  1
  O  O255  1  0.74433442  0.13712191  0.49802038  1
  O  O256  1  0.75029072  0.13609042  0.99259401  1
  O  O257  1  0.75828350  0.64064155  0.49797633  1
  O  O258  1  0.75133481  0.62265769  0.98664850  1
  O  O259  1  0.25686083  0.38117748  0.00743940  1
  O  O260  1  0.26782316  0.37735808  0.50120698  1
  O  O261  1  0.25661146  0.86832511  0.00569750  1
  O  O262  1  0.25250657  0.86788329  0.50888802  1
  O  O263  1  0.76064629  0.36267777  0.00405382  1
  O  O264  1  0.75535679  0.36580215  0.50524967  1
  O  O265  1  0.76313454  0.88342681  0.01001154  1
  O  O266  1  0.76151436  0.86611170  0.49919583  1
  O  O267  1  0.12812168  0.49204776  0.24376030  1
  O  O268  1  0.12358792  0.48662740  0.74246659  1
  O  O269  1  0.13914985  0.99603571  0.25265360  1
  O  O270  1  0.13037639  0.99027048  0.74872006  1
  O  O271  1  0.62868083  0.50533036  0.22998289  1
  O  O272  1  0.62060525  0.50183238  0.73277624  1
  O  O273  1  0.62906710  0.99531879  0.24375541  1
  O  O274  1  0.64091044  1.00912569  0.75316122  1
  O  O275  1  0.36363924  0.00599380  0.25365937  1
  O  O276  1  0.36676501  0.00865728  0.74929541  1
  O  O277  1  0.35810827  0.49564773  0.24659464  1
  O  O278  1  0.38318441  0.50024246  0.76522181  1
  O  O279  1  0.87024848  0.00486252  0.25594587  1
  O  O280  1  0.86995939  0.00544614  0.75822356  1
  O  O281  1  0.87430733  0.50748301  0.25548563  1
  O  O282  1  0.88103199  0.50782471  0.76044441  1
  O  O283  1  0.12873733  0.36422667  0.36817917  1
  O  O284  1  0.12015288  0.37141596  0.86515356  1
  O  O285  1  0.11422632  0.86956410  0.37600015  1
  O  O286  1  0.13003115  0.87133397  0.86222351  1
  O  O287  1  0.63219502  0.36217051  0.37277296  1
  O  O288  1  0.63227653  0.36734136  0.88128139  1
  O  O289  1  0.61218260  0.88031499  0.37250163  1
  O  O290  1  0.61359099  0.87760284  0.87666073  1
  O  O291  1  0.37156609  0.13220613  0.13448105  1
  O  O292  1  0.38012714  0.13489517  0.63297522  1
  O  O293  1  0.38230037  0.63370074  0.12829239  1
  O  O294  1  0.36913788  0.63548883  0.62599706  1
  O  O295  1  0.87690925  0.13324153  0.13320907  1
  O  O296  1  0.87995428  0.13418027  0.62886872  1
  O  O297  1  0.88155648  0.63393400  0.12830413  1
  O  O298  1  0.87453586  0.62890763  0.63455346  1
  O  O299  1  0.25711935  0.26252620  0.12966087  1
  O  O300  1  0.26483090  0.24570665  0.63022259  1
  O  O301  1  0.25673810  0.75483044  0.12045837  1
  O  O302  1  0.25448812  0.75500508  0.62050510  1
  O  O303  1  0.76013898  0.25493270  0.11825808  1
  O  O304  1  0.75077402  0.25864167  0.61771726  1
  O  O305  1  0.75594781  0.76390517  0.12907553  1
  O  O306  1  0.76212998  0.74895558  0.61926006  1
  O  O307  1  0.23790357  0.23675286  0.37056259  1
  O  O308  1  0.24150232  0.23899849  0.86978140  1
  O  O309  1  0.23889406  0.75796018  0.38684406  1
  O  O310  1  0.25839132  0.73693485  0.88439298  1
  O  O311  1  0.74392371  0.24490770  0.38272501  1
  O  O312  1  0.74564184  0.24610129  0.88042791  1
  O  O313  1  0.75581970  0.75128868  0.38983953  1
  O  O314  1  0.75138020  0.73606476  0.87135159  1
  O  O315  1  -0.00573349  0.10840408  0.00095774  1
  O  O316  1  0.00865527  0.12106698  0.50483165  1
  O  O317  1  0.00112956  0.61861222  0.00899450  1
  O  O318  1  0.00259085  0.62038566  0.50607321  1
  O  O319  1  0.50061096  0.11168705  -0.00016137  1
  O  O320  1  0.50207706  0.12483015  0.50909986  1
  O  O321  1  0.49970661  0.61889184  0.00611210  1
  O  O322  1  0.49297284  0.60339046  0.49478800  1
  O  O323  1  0.48555361  0.38638879  0.50231056  1
  O  O324  1  0.48738073  0.38546298  1.00640487  1
  O  O325  1  0.49544794  0.87813071  0.49593088  1
  O  O326  1  0.49643809  0.88602783  0.99336324  1
  O  O327  1  0.98537476  0.37106877  0.50499872  1
  O  O328  1  1.00431838  0.38186391  0.98593532  1
  O  O329  1  0.98897339  0.87942004  0.49565283  1
  O  O330  1  0.98587744  0.88678670  1.00426593  1
  O  O331  1  0.50143308  0.49330905  0.37793214  1
  O  O332  1  0.49444467  0.50651737  0.88758550  1
  O  O333  1  0.49647845  0.99293307  0.38445850  1
  O  O334  1  0.49898421  0.99559410  0.87983860  1
  O  O335  1  0.98643680  0.50227069  0.37785000  1
  O  O336  1  0.99437056  0.49381420  0.87957240  1
  O  O337  1  0.99388917  0.99484274  0.38198336  1
  O  O338  1  0.98779007  1.00450178  0.88259592  1
  O  O339  1  0.00242692  0.00254169  0.11151971  1
  O  O340  1  -0.00165732  0.00677628  0.61980397  1
  O  O341  1  0.00379979  0.50505618  0.11648264  1
  O  O342  1  0.01251636  0.49860708  0.62356025  1
  O  O343  1  0.50822663  -0.00092258  0.11802760  1
  O  O344  1  0.49715358  0.01358967  0.62219991  1
  O  O345  1  0.49219464  0.51552386  0.11619071  1
  O  O346  1  0.51116853  0.49706014  0.62041549  1
  O  O347  1  0.23843019  0.38259407  0.24199010  1
  O  O348  1  0.23789371  0.37264009  0.75534076  1
  O  O349  1  0.25337377  0.88080967  0.24378462  1
  O  O350  1  0.24519243  0.87816130  0.74571756  1
  O  O351  1  0.75561288  0.37676531  0.23307633  1
  O  O352  1  0.75112972  0.37172087  0.73375834  1
  O  O353  1  0.74479014  0.88084149  0.24502073  1
  O  O354  1  0.75582709  0.89073156  0.75252972  1
  O  O355  1  0.25833286  0.11788216  0.26014825  1
  O  O356  1  0.25590157  0.11606854  0.75335224  1
  O  O357  1  0.24681605  0.60516083  0.24301939  1
  O  O358  1  0.25471088  0.63194461  0.76416008  1
  O  O359  1  0.75733120  0.11860324  0.25513622  1
  O  O360  1  0.75628648  0.12129819  0.75749961  1
  O  O361  1  0.76283153  0.62297402  0.24714039  1
  O  O362  1  0.76289830  0.62626881  0.76090575  1
  O  O363  1  0.36645384  0.12841157  0.37278046  1
  O  O364  1  0.36837305  0.12618279  0.86228709  1
  O  O365  1  0.35878042  0.64724248  0.36001015  1
  O  O366  1  0.36592861  0.61726446  0.87553829  1
  O  O367  1  0.86852804  0.12141003  0.37093143  1
  O  O368  1  0.86456946  0.11942080  0.87048359  1
  O  O369  1  0.87397355  0.62068919  0.36411302  1
  O  O370  1  0.86542814  0.61709786  0.87146998  1
  O  O371  1  0.12945023  0.37804248  0.13111191  1
  O  O372  1  0.12615576  0.38173623  0.63879547  1
  O  O373  1  0.13793175  0.87771085  0.12642748  1
  O  O374  1  0.13605643  0.87303015  0.63138730  1
  O  O375  1  0.65440441  0.37245578  0.10990807  1
  O  O376  1  0.63546443  0.38360117  0.62019954  1
  O  O377  1  0.63180002  0.88445179  0.12904621  1
  O  O378  1  0.63281588  0.88708395  0.61937740  1
  O  O379  1  0.11842356  0.25614028  0.25864795  1
  O  O380  1  0.11911005  0.26201233  0.75494444  1
  O  O381  1  0.13122795  0.75422901  0.26359442  1
  O  O382  1  0.10816784  0.75308583  0.74558496  1
  O  O383  1  0.62808677  0.24590995  0.26061078  1
  O  O384  1  0.61246588  0.24696667  0.75801333  1
  O  O385  1  0.61157114  0.76012884  0.24453634  1
  O  O386  1  0.61481448  0.74474023  0.75071387  1
  O  O387  1  0.37056672  0.24196946  0.23972518  1
  O  O388  1  0.38451759  0.24541196  0.74333070  1
  O  O389  1  0.38666655  0.75695784  0.23554982  1
  O  O390  1  0.38419510  0.74847775  0.74051334  1
  O  O391  1  0.88289006  0.24648110  0.24510005  1
  O  O392  1  0.88042601  0.24476049  0.74518012  1
  O  O393  1  0.87388173  0.74403419  0.23722845  1
  O  O394  1  0.88331439  0.74478924  0.74411258  1
  O  O395  1  0.38345237  0.48688467  0.49741268  1
  O  O396  1  0.38051829  0.49335170  0.99208504  1
  O  O397  1  0.38036646  0.99288285  0.50184361  1
  O  O398  1  0.38386308  0.99341296  0.99867647  1
  O  O399  1  0.87475662  0.49007060  0.49335529  1
  O  O400  1  0.88930209  0.50234433  0.98997396  1
  O  O401  1  0.87637317  0.99339902  0.49595572  1
  O  O402  1  0.88130110  0.99518655  0.99315256  1
  O  O403  1  0.10901909  -0.00919001  -0.00487967  1
  O  O404  1  0.11777559  0.00804117  0.50400150  1
  O  O405  1  0.11363294  0.50188797  0.00437670  1
  O  O406  1  0.12498643  0.49610515  0.51311976  1
  O  O407  1  0.61992520  0.00225410  0.00802140  1
  O  O408  1  0.61777021  0.01336869  0.50074218  1
  O  O409  1  0.61231648  0.49824027  0.02263897  1
  O  O410  1  0.60825623  0.49425244  0.50317388  1
  O  O411  1  0.36367659  0.36642336  0.11508855  1
  O  O412  1  0.37320157  0.36405079  0.62796823  1
  O  O413  1  0.36649067  0.86965585  0.11878366  1
  O  O414  1  0.36293186  0.86778320  0.62171922  1
  O  O415  1  0.87097435  0.36321975  0.12536177  1
  O  O416  1  0.86347030  0.37193264  0.61865406  1
  O  O417  1  0.86916983  0.87017959  0.12181095  1
  O  O418  1  0.87036184  0.86740054  0.61790897  1
  O  O419  1  0.13010258  0.13094812  0.38389353  1
  O  O420  1  0.13393752  0.13589537  0.86793919  1
  O  O421  1  0.12850079  0.63324667  0.37648345  1
  O  O422  1  0.13929238  0.61945466  0.87433947  1
  O  O423  1  0.63139364  0.13183055  0.38194541  1
  O  O424  1  0.63765594  0.13346844  0.87745674  1
  O  O425  1  0.63096269  0.62249089  0.38309990  1
  O  O426  1  0.64337542  0.61774816  0.87482802  1
