# generated using pymatgen
data_V85Zn86O256
_symmetry_space_group_name_H-M   'P 1'
_cell_length_a   16.93817948
_cell_length_b   16.92769682
_cell_length_c   16.94776477
_cell_angle_alpha   90.01347631
_cell_angle_beta   90.03272074
_cell_angle_gamma   89.97172953
_symmetry_Int_Tables_number   1
_chemical_formula_structural   V85Zn86O256
_chemical_formula_sum   'V85 Zn86 O256'
_cell_volume   4859.33560470
_cell_formula_units_Z   1
loop_
 _symmetry_equiv_pos_site_id
 _symmetry_equiv_pos_as_xyz
  1  'x, y, z'
loop_
 _atom_site_type_symbol
 _atom_site_label
 _atom_site_symmetry_multiplicity
 _atom_site_fract_x
 _atom_site_fract_y
 _atom_site_fract_z
 _atom_site_occupancy
  V  V0  1  0.37427596  0.00039198  0.36538147  1
  V  V1  1  0.12327320  0.13027875  0.00313925  1
  V  V2  1  0.35932227  0.00657816  0.85637380  1
  V  V3  1  0.13165798  -0.00274873  0.62829377  1
  V  V4  1  0.13079741  0.87640215  0.76022841  1
  V  V5  1  0.00034514  0.49988722  -0.00079810  1
  V  V6  1  0.61942216  0.50298398  0.12744511  1
  V  V7  1  -0.00340741  0.75211113  0.75688294  1
  V  V8  1  0.74039511  0.63309626  0.87545482  1
  V  V9  1  0.12009135  0.25409787  0.37866371  1
  V  V10  1  0.24937223  0.62646771  0.37657912  1
  V  V11  1  0.75162588  -0.00345131  0.25007488  1
  V  V12  1  0.24944340  0.49964577  0.25187474  1
  V  V13  1  0.74030537  0.62985171  0.37723491  1
  V  V14  1  0.87412010  0.86929545  0.50172035  1
  V  V15  1  0.37667112  0.36947601  0.00145290  1
  V  V16  1  -0.00432343  0.25305081  0.25582566  1
  V  V17  1  0.49937513  0.23553581  0.74620533  1
  V  V18  1  0.13282696  0.88028271  0.25197144  1
  V  V19  1  0.50078228  0.00560431  0.50405815  1
  V  V20  1  0.25531265  0.37874360  0.62919570  1
  V  V21  1  -0.00355647  0.74956145  0.24814986  1
  V  V22  1  0.25490206  0.36923449  0.12717187  1
  V  V23  1  -0.00435326  0.12457214  0.62668385  1
  V  V24  1  0.37981950  0.14020908  0.24888114  1
  V  V25  1  0.13059310  0.38211936  0.75773172  1
  V  V26  1  0.50231273  0.50432099  0.00007669  1
  V  V27  1  0.73128462  0.74736429  0.50002214  1
  V  V28  1  -0.00696576  0.62489637  0.62975341  1
  V  V29  1  0.50695141  0.74927273  0.75264227  1
  V  V30  1  0.00217167  0.36839790  0.87631743  1
  V  V31  1  0.37456249  0.62957860  0.24545591  1
  V  V32  1  0.50746262  0.50626129  0.49890037  1
  V  V33  1  0.25562937  0.86277923  0.11934140  1
  V  V34  1  0.25307518  0.25193600  0.49879866  1
  V  V35  1  0.36798863  0.49680965  0.86954596  1
  V  V36  1  0.87110107  0.25912007  0.62812831  1
  V  V37  1  0.49752831  0.13800266  0.12864871  1
  V  V38  1  0.00078138  0.87523597  0.37658312  1
  V  V39  1  0.37415698  0.75080984  0.62662115  1
  V  V40  1  0.63538970  0.50032546  0.61964968  1
  V  V41  1  0.62328346  0.25227745  0.36007576  1
  V  V42  1  0.12288418  0.62594329  0.50311947  1
  V  V43  1  0.62605664  -0.00792405  0.12725408  1
  V  V44  1  0.37146530  0.61959407  0.74548313  1
  V  V45  1  0.50018431  0.74865711  0.25079365  1
  V  V46  1  0.12026289  0.37556575  0.25598309  1
  V  V47  1  0.12999490  0.63323955  0.00108809  1
  V  V48  1  0.62658771  0.24892466  0.87275930  1
  V  V49  1  0.75112186  0.50101168  0.25135376  1
  V  V50  1  0.62439953  0.12129768  0.00174717  1
  V  V51  1  0.50383973  0.37497181  0.87007459  1
  V  V52  1  -0.00734343  0.62789764  0.12624123  1
  V  V53  1  0.50446449  0.37310407  0.36342878  1
  V  V54  1  0.75007785  0.87708871  0.62958776  1
  V  V55  1  0.87465898  0.86610050  0.01587874  1
  V  V56  1  0.50884644  0.87282036  0.37495459  1
  V  V57  1  0.74614977  0.26141483  0.50556724  1
  V  V58  1  0.75506117  0.49677065  0.74805275  1
  V  V59  1  0.87468382  0.24956590  0.12553491  1
  V  V60  1  0.75141761  0.11793255  0.87447368  1
  V  V61  1  0.62649381  0.00405651  0.63169284  1
  V  V62  1  0.87712834  0.50787230  0.86873274  1
  V  V63  1  -0.00281879  -0.00113761  0.50128941  1
  V  V64  1  0.75059403  0.25038144  -0.00079207  1
  V  V65  1  0.38083350  0.23688049  0.62669547  1
  V  V66  1  0.62301645  0.13082254  0.50515274  1
  V  V67  1  0.25447758  0.24356416  0.00472578  1
  V  V68  1  0.87685556  -0.01127498  0.87418488  1
  V  V69  1  0.00082513  -0.00562040  -0.00013439  1
  V  V70  1  0.12329604  0.12433606  0.49783218  1
  V  V71  1  0.12997322  0.50214786  0.63033027  1
  V  V72  1  0.12278497  0.49883557  0.12613551  1
  V  V73  1  0.25268358  0.63609512  0.87729284  1
  V  V74  1  0.24939717  0.12235559  0.36825982  1
  V  V75  1  0.62841545  0.87343435  0.75723722  1
  V  V76  1  0.12467476  0.75128273  0.37781750  1
  V  V77  1  0.88150503  0.50129861  0.37370690  1
  V  V78  1  0.37421587  0.87593609  0.49929473  1
  V  V79  1  0.86957619  0.11904163  0.75033044  1
  V  V80  1  0.74299183  0.37456954  0.12966662  1
  V  V81  1  0.37757598  0.49903815  0.37739501  1
  V  V82  1  0.13249997  0.00187795  0.12989248  1
  V  V83  1  0.18318979  0.19084176  0.82950339  1
  V  V84  1  0.48629691  -0.00044427  0.00066508  1
  Zn  Zn85  1  0.00293966  0.49031512  0.49738252  1
  Zn  Zn86  1  0.87201063  0.74453591  0.62831347  1
  Zn  Zn87  1  0.49997061  0.87567748  0.87720693  1
  Zn  Zn88  1  0.42951450  0.68831301  0.08133089  1
  Zn  Zn89  1  0.61870151  0.63996165  -0.00233476  1
  Zn  Zn90  1  -0.00205199  0.12434676  0.12776347  1
  Zn  Zn91  1  0.87275208  0.00286220  0.37575047  1
  Zn  Zn92  1  0.63193051  0.37088195  0.74119268  1
  Zn  Zn93  1  0.12521540  0.75740857  0.88148659  1
  Zn  Zn94  1  0.63266988  0.86587156  0.25018711  1
  Zn  Zn95  1  0.25453642  0.88118115  0.63093877  1
  Zn  Zn96  1  0.24935588  0.75321405  0.50298384  1
  Zn  Zn97  1  0.36898248  0.85770288  -0.00548041  1
  Zn  Zn98  1  0.83096586  0.68327894  0.19450922  1
  Zn  Zn99  1  0.87414518  0.37512072  -0.00171044  1
  Zn  Zn100  1  0.75131322  0.12605623  0.37659265  1
  Zn  Zn101  1  0.00103241  0.24732070  0.75624446  1
  Zn  Zn102  1  0.87334211  0.12498994  0.25477274  1
  Zn  Zn103  1  0.88356054  0.37211652  0.49294802  1
  Zn  Zn104  1  0.50606732  0.62653353  0.61977137  1
  Zn  Zn105  1  0.38028931  0.37442856  0.50249060  1
  Zn  Zn106  1  0.72758209  0.77463306  0.04327410  1
  Zn  Zn107  1  0.18758552  0.18860897  0.18987700  1
  Zn  Zn108  1  0.18833342  0.18909153  0.66968638  1
  Zn  Zn109  1  0.18255460  0.68808771  0.18938368  1
  Zn  Zn110  1  0.18965262  0.69059737  0.69167154  1
  Zn  Zn111  1  0.68934422  0.17913383  0.18594205  1
  Zn  Zn112  1  0.68860970  0.18649402  0.68814300  1
  Zn  Zn113  1  0.66868767  0.68028103  0.19315574  1
  Zn  Zn114  1  0.69053529  0.68190047  0.68832875  1
  Zn  Zn115  1  0.31202880  0.31476258  0.31586404  1
  Zn  Zn116  1  0.32047220  0.31363036  0.80752424  1
  Zn  Zn117  1  0.31274617  0.81279892  0.31196116  1
  Zn  Zn118  1  0.31668995  0.81736336  0.81398082  1
  Zn  Zn119  1  0.80735868  0.31591664  0.31378329  1
  Zn  Zn120  1  0.81551081  0.31402751  0.81253234  1
  Zn  Zn121  1  0.81017326  0.81612268  0.31721228  1
  Zn  Zn122  1  0.81425251  0.81158023  0.81175254  1
  Zn  Zn123  1  0.18718135  0.43869271  0.44143625  1
  Zn  Zn124  1  0.18872498  0.43853302  0.94018012  1
  Zn  Zn125  1  0.18955865  0.93998585  0.43901959  1
  Zn  Zn126  1  0.19157046  0.94228180  0.94095811  1
  Zn  Zn127  1  0.68825402  0.43713045  0.43464241  1
  Zn  Zn128  1  0.68844834  0.43888679  0.93633621  1
  Zn  Zn129  1  0.68935259  0.94014356  0.43985949  1
  Zn  Zn130  1  0.69061632  0.93641663  0.94267644  1
  Zn  Zn131  1  0.31083705  0.06426753  0.06999448  1
  Zn  Zn132  1  0.31189133  0.06255339  0.55781680  1
  Zn  Zn133  1  0.30949008  0.55402383  0.05889064  1
  Zn  Zn134  1  0.31219298  0.56323933  0.56122362  1
  Zn  Zn135  1  0.81251209  0.05934256  0.06463299  1
  Zn  Zn136  1  0.80812506  0.06282573  0.56042018  1
  Zn  Zn137  1  0.80823941  0.55986799  0.05422018  1
  Zn  Zn138  1  0.81222954  0.56137543  0.55539453  1
  Zn  Zn139  1  0.43595666  0.43863225  0.18751660  1
  Zn  Zn140  1  0.44356671  0.43609557  0.68552566  1
  Zn  Zn141  1  0.43825613  0.93857045  0.18665293  1
  Zn  Zn142  1  0.44153875  0.93886198  0.68780777  1
  Zn  Zn143  1  0.93205918  0.43649375  0.18928827  1
  Zn  Zn144  1  0.94377519  0.43839184  0.68984288  1
  Zn  Zn145  1  0.94225730  0.93982112  0.18931117  1
  Zn  Zn146  1  0.94007879  0.93412888  0.68964846  1
  Zn  Zn147  1  0.05856591  0.06425197  0.31200420  1
  Zn  Zn148  1  0.05546235  0.05401173  0.81128136  1
  Zn  Zn149  1  0.06119943  0.56588721  0.31163515  1
  Zn  Zn150  1  0.06476309  0.56542687  0.81332567  1
  Zn  Zn151  1  0.56339912  0.06472182  0.31284780  1
  Zn  Zn152  1  0.56142289  0.05802136  0.81574284  1
  Zn  Zn153  1  0.56331266  0.56263766  0.30963772  1
  Zn  Zn154  1  0.56458163  0.56040473  0.80574739  1
  Zn  Zn155  1  0.44038939  0.18889610  0.43705101  1
  Zn  Zn156  1  0.43579178  0.18358863  0.93402064  1
  Zn  Zn157  1  0.43850168  0.68850558  0.43570779  1
  Zn  Zn158  1  0.44202234  0.68608198  0.92233657  1
  Zn  Zn159  1  0.93418206  0.18975580  0.43860468  1
  Zn  Zn160  1  0.93751694  0.18403407  0.94007101  1
  Zn  Zn161  1  0.93333802  0.68341447  0.43597709  1
  Zn  Zn162  1  0.93705590  0.68700812  0.93661217  1
  Zn  Zn163  1  0.06386593  0.31150775  0.06549193  1
  Zn  Zn164  1  0.06059868  0.31399721  0.56647767  1
  Zn  Zn165  1  0.06080709  0.81478957  0.06554902  1
  Zn  Zn166  1  0.06214343  0.81163522  0.56825123  1
  Zn  Zn167  1  0.56505477  0.31497181  0.05942342  1
  Zn  Zn168  1  0.55972441  0.32031346  0.56077225  1
  Zn  Zn169  1  0.55591270  0.81542987  0.06289449  1
  Zn  Zn170  1  0.55885645  0.81729996  0.56874264  1
  O  O171  1  0.12460516  0.11936547  0.12007221  1
  O  O172  1  0.11483310  0.11825756  0.61960102  1
  O  O173  1  0.11902628  0.61733674  0.11873145  1
  O  O174  1  0.12426596  0.61942323  0.62057954  1
  O  O175  1  0.61625205  0.11701327  0.11921196  1
  O  O176  1  0.62950183  0.11531493  0.61860294  1
  O  O177  1  0.62460592  0.60724624  0.11659413  1
  O  O178  1  0.62208438  0.60728640  0.62976159  1
  O  O179  1  0.38110723  0.38367515  0.37823771  1
  O  O180  1  0.38248017  0.38069037  0.87875288  1
  O  O181  1  0.37839967  0.88402875  0.38149816  1
  O  O182  1  0.37734029  0.89019732  0.87835421  1
  O  O183  1  0.86537835  0.39485959  0.37409175  1
  O  O184  1  0.88624086  0.38501341  0.87668128  1
  O  O185  1  0.88308914  0.87849018  0.38597724  1
  O  O186  1  0.87127578  0.88653241  0.87888914  1
  O  O187  1  0.26063988  0.01127280  0.38186162  1
  O  O188  1  0.25996133  0.00211945  0.87373865  1
  O  O189  1  0.25763043  0.50387357  0.37128337  1
  O  O190  1  0.26476555  0.50342862  0.87965095  1
  O  O191  1  0.75010988  0.00408877  0.36793254  1
  O  O192  1  0.75903520  0.01220083  0.88237403  1
  O  O193  1  0.75311738  0.50888122  0.36881069  1
  O  O194  1  0.75988812  0.50356941  0.86921678  1
  O  O195  1  0.24160388  0.49069887  0.13158362  1
  O  O196  1  0.23939797  0.49313415  0.62031135  1
  O  O197  1  0.23642249  0.99270383  0.12324719  1
  O  O198  1  0.23522519  1.00401076  0.62135539  1
  O  O199  1  0.74650485  0.49343257  0.13040381  1
  O  O200  1  0.74378415  0.50439369  0.62990965  1
  O  O201  1  0.73762572  1.00640282  0.13435580  1
  O  O202  1  0.73926531  0.98895017  0.61846005  1
  O  O203  1  0.00815097  0.36510348  0.24570607  1
  O  O204  1  0.01305306  0.37010792  0.75797627  1
  O  O205  1  0.01133174  0.86933211  0.25566802  1
  O  O206  1  0.01306593  0.86030885  0.74396438  1
  O  O207  1  0.49671197  0.37973766  0.26396925  1
  O  O208  1  0.50251693  0.36921677  0.76202646  1
  O  O209  1  0.49668811  0.86694296  0.25929963  1
  O  O210  1  0.51117406  0.86768909  0.74849710  1
  O  O211  1  0.49223191  0.12329569  0.24143075  1
  O  O212  1  0.50731662  0.13645515  0.75196756  1
  O  O213  1  0.48966800  0.63767712  0.25805632  1
  O  O214  1  0.48991118  0.63178376  0.74823030  1
  O  O215  1  0.99840223  0.13998330  0.24738100  1
  O  O216  1  0.99105368  0.12638037  0.74396858  1
  O  O217  1  1.00658518  0.63515541  0.23853940  1
  O  O218  1  1.01091124  0.63876155  0.74110416  1
  O  O219  1  0.36543199  0.25586700  -0.00619078  1
  O  O220  1  0.37049488  0.25302154  0.50509178  1
  O  O221  1  0.38369439  0.74525432  -0.00210596  1
  O  O222  1  0.37538044  0.75870984  0.50708995  1
  O  O223  1  0.86927891  0.25138873  0.00838313  1
  O  O224  1  0.86476296  0.25013969  0.51007998  1
  O  O225  1  0.88332389  0.76634531  -0.00164892  1
  O  O226  1  0.87320359  0.76090280  0.50291073  1
  O  O227  1  0.13132971  0.24322831  0.49867499  1
  O  O228  1  0.13035433  0.23766042  1.00344951  1
  O  O229  1  0.12688003  0.74398665  0.49674194  1
  O  O230  1  0.11804311  0.73736912  0.99905487  1
  O  O231  1  0.62970230  0.24552302  0.50304327  1
  O  O232  1  0.63103732  0.24160352  0.99225397  1
  O  O233  1  0.63219088  0.75597141  0.50420905  1
  O  O234  1  0.62546773  0.75398991  1.00237251  1
  O  O235  1  0.50455933  0.23730931  0.11729586  1
  O  O236  1  0.49186216  0.25783895  0.63342214  1
  O  O237  1  0.49677606  0.75630922  0.14472468  1
  O  O238  1  0.48930087  0.74758190  0.63094721  1
  O  O239  1  0.99002565  0.25113978  0.13277376  1
  O  O240  1  0.99484700  0.23602152  0.62953716  1
  O  O241  1  1.00549654  0.74055655  0.13510617  1
  O  O242  1  0.99999553  0.74057215  0.63458455  1
  O  O243  1  0.00824543  0.24766301  0.36825060  1
  O  O244  1  -0.00453336  0.26408350  0.87793998  1
  O  O245  1  0.00703854  0.75437901  0.37226219  1
  O  O246  1  0.00545197  0.74249613  0.86035300  1
  O  O247  1  0.51434777  0.25861071  0.38017805  1
  O  O248  1  0.50518794  0.25537613  0.86830026  1
  O  O249  1  0.48975553  0.76258771  0.36576469  1
  O  O250  1  0.50157360  0.75700991  0.85695123  1
  O  O251  1  0.24365843  0.13161029  0.48968112  1
  O  O252  1  0.24339255  0.13627720  1.00579531  1
  O  O253  1  0.23920124  0.62710348  0.49512133  1
  O  O254  1  0.24097563  0.61708559  0.99149328  1
  O  O255  1  0.73722640  0.13359908  0.49862488  1
  O  O256  1  0.74587625  0.13034048  0.99405622  1
  O  O257  1  0.75170090  0.63482279  0.48893024  1
  O  O258  1  0.74507804  0.62156146  0.98324067  1
  O  O259  1  0.25244111  0.36558780  0.00812362  1
  O  O260  1  0.25013203  0.36974627  0.51216914  1
  O  O261  1  0.24870087  0.87412450  0.01457125  1
  O  O262  1  0.26351628  0.87655131  0.50312669  1
  O  O263  1  0.75195894  0.36715030  0.00578716  1
  O  O264  1  0.75294246  0.36357774  0.49908687  1
  O  O265  1  0.76803571  0.87556207  0.00152021  1
  O  O266  1  0.75577830  0.86717427  0.50674320  1
  O  O267  1  0.12863543  0.49322852  0.24795308  1
  O  O268  1  0.12581843  0.49335722  0.74338774  1
  O  O269  1  0.11899562  0.99222356  0.24291603  1
  O  O270  1  0.11623520  0.98511869  0.74277395  1
  O  O271  1  0.63641722  0.50417192  0.24054874  1
  O  O272  1  0.63379526  0.49477447  0.73898673  1
  O  O273  1  0.63030276  0.99988188  0.24314268  1
  O  O274  1  0.61891949  0.99335015  0.73745165  1
  O  O275  1  0.38010911  0.00803161  0.26340351  1
  O  O276  1  0.37399482  -0.00238251  0.75640338  1
  O  O277  1  0.37056866  0.50564075  0.26167290  1
  O  O278  1  0.38243982  0.50693647  0.75736137  1
  O  O279  1  0.86757507  0.00188776  0.25001413  1
  O  O280  1  0.88256621  0.00694296  0.76014077  1
  O  O281  1  0.86255960  0.49939987  0.25767925  1
  O  O282  1  0.87102805  0.49734667  0.75723771  1
  O  O283  1  0.13211037  0.37169716  0.36285919  1
  O  O284  1  0.12051201  0.38262385  0.86550050  1
  O  O285  1  0.12211606  0.87239798  0.37068330  1
  O  O286  1  0.12803784  0.87718307  0.86452668  1
  O  O287  1  0.61957200  0.36168742  0.37669952  1
  O  O288  1  0.61830205  0.36690690  0.87473901  1
  O  O289  1  0.61112394  0.88117965  0.37552861  1
  O  O290  1  0.62888643  0.88478216  0.85971655  1
  O  O291  1  0.38330960  0.12145683  0.13787892  1
  O  O292  1  0.37030909  0.13765710  0.62035160  1
  O  O293  1  0.37051864  0.61053675  0.14078282  1
  O  O294  1  0.37660113  0.63093911  0.63033780  1
  O  O295  1  0.87382694  0.13897900  0.12759726  1
  O  O296  1  0.87910443  0.12682508  0.63219809  1
  O  O297  1  0.88816762  0.61701901  0.11985095  1
  O  O298  1  0.89013581  0.62254344  0.61904745  1
  O  O299  1  0.24683550  0.25863210  0.11820831  1
  O  O300  1  0.25939900  0.25892762  0.61778916  1
  O  O301  1  0.24515119  0.76379589  0.13007633  1
  O  O302  1  0.26339563  0.75185899  0.62402381  1
  O  O303  1  0.75342469  0.25570626  0.12141441  1
  O  O304  1  0.75928570  0.24617604  0.61854392  1
  O  O305  1  0.74989453  0.74359074  0.14643315  1
  O  O306  1  0.75257318  0.75392440  0.61654636  1
  O  O307  1  0.24181368  0.24538966  0.38118849  1
  O  O308  1  0.24878790  0.25262345  0.88174300  1
  O  O309  1  0.24249671  0.74495998  0.37800061  1
  O  O310  1  0.24958764  0.73902285  0.87280954  1
  O  O311  1  0.73671568  0.25056110  0.38346776  1
  O  O312  1  0.74841209  0.24022408  0.87923978  1
  O  O313  1  0.75359302  0.73833428  0.38290979  1
  O  O314  1  0.75499676  0.73166183  0.86703984  1
  O  O315  1  0.00744582  0.11805458  0.00528459  1
  O  O316  1  0.00338382  0.12035990  0.50804868  1
  O  O317  1  0.00727373  0.61769935  0.00554180  1
  O  O318  1  0.01186050  0.62474164  0.50783571  1
  O  O319  1  0.50407804  0.11607987  0.00605518  1
  O  O320  1  0.51137979  0.11810096  0.49701061  1
  O  O321  1  0.49769682  0.61524316  -0.00049019  1
  O  O322  1  0.49661429  0.61145455  0.49706700  1
  O  O323  1  0.49865964  0.38958752  0.48845032  1
  O  O324  1  0.49526888  0.37797704  0.98784432  1
  O  O325  1  0.49046804  0.88117035  0.49404293  1
  O  O326  1  0.49216147  0.88958207  1.00106992  1
  O  O327  1  0.99838895  0.37624747  0.50092888  1
  O  O328  1  1.00415719  0.38324521  0.99407769  1
  O  O329  1  0.99359242  0.87837229  0.49889543  1
  O  O330  1  0.99396984  0.88652310  1.00290828  1
  O  O331  1  0.49543933  0.49604303  0.37817493  1
  O  O332  1  0.49444959  0.49277292  0.87941776  1
  O  O333  1  0.49334342  0.99537240  0.38498494  1
  O  O334  1  0.49885581  0.99802124  0.89090173  1
  O  O335  1  0.98537116  0.50662492  0.37259640  1
  O  O336  1  0.99645871  0.49499399  0.88083375  1
  O  O337  1  1.00027913  0.99278911  0.38400456  1
  O  O338  1  0.98883731  1.00473443  0.88830847  1
  O  O339  1  0.01199552  0.00285713  0.11839952  1
  O  O340  1  0.00663604  0.00856737  0.62173439  1
  O  O341  1  0.00386945  0.50320733  0.11905974  1
  O  O342  1  0.01381090  0.50792612  0.62646725  1
  O  O343  1  0.50447874  0.00704122  0.11596365  1
  O  O344  1  0.50902483  -0.00605769  0.61047559  1
  O  O345  1  0.50802914  0.48962894  0.11432552  1
  O  O346  1  0.50833318  0.50227333  0.61461784  1
  O  O347  1  0.24471207  0.37943318  0.24428194  1
  O  O348  1  0.24450982  0.37010767  0.73863006  1
  O  O349  1  0.23787906  0.87299414  0.24496746  1
  O  O350  1  0.23500078  0.87036697  0.74784902  1
  O  O351  1  0.74979999  0.38430719  0.23942499  1
  O  O352  1  0.74948252  0.38977194  0.75669802  1
  O  O353  1  0.74671560  0.88938540  0.25827160  1
  O  O354  1  0.74528105  0.86834179  0.73714112  1
  O  O355  1  0.25630983  0.12971577  0.26271082  1
  O  O356  1  0.23316115  0.13655556  0.76432450  1
  O  O357  1  0.25305142  0.61921572  0.25641711  1
  O  O358  1  0.26375226  0.62714869  0.75757790  1
  O  O359  1  0.75146008  0.11305358  0.25482755  1
  O  O360  1  0.76150847  0.12571883  0.75851282  1
  O  O361  1  0.75206774  0.62008431  0.26097396  1
  O  O362  1  0.74785750  0.61033135  0.76227456  1
  O  O363  1  0.36937692  0.12039415  0.37126266  1
  O  O364  1  0.38043852  0.10479398  0.87552652  1
  O  O365  1  0.36783125  0.61819154  0.36804203  1
  O  O366  1  0.36895844  0.61553476  0.86575106  1
  O  O367  1  0.87109635  0.12183604  0.37426034  1
  O  O368  1  0.86957136  0.11824796  0.86917675  1
  O  O369  1  0.86381648  0.61070673  0.37797409  1
  O  O370  1  0.86958469  0.61190700  0.88009071  1
  O  O371  1  0.13293681  0.37833460  0.13611269  1
  O  O372  1  0.13182795  0.38083693  0.63784726  1
  O  O373  1  0.13177309  0.88156299  0.13320987  1
  O  O374  1  0.12904959  0.88301836  0.63198350  1
  O  O375  1  0.63631174  0.38397022  0.11799539  1
  O  O376  1  0.62129580  0.39326802  0.62581604  1
  O  O377  1  0.61901041  0.88870922  0.13055343  1
  O  O378  1  0.63227846  0.88365100  0.63113169  1
  O  O379  1  0.11767501  0.25775829  0.25618671  1
  O  O380  1  0.12845180  0.25202102  0.76023171  1
  O  O381  1  0.11669513  0.75754953  0.25904194  1
  O  O382  1  0.11968514  0.76159433  0.75262432  1
  O  O383  1  0.62888219  0.24554516  0.26211978  1
  O  O384  1  0.62050460  0.25245479  0.75505244  1
  O  O385  1  0.60512635  0.74994258  0.25871368  1
  O  O386  1  0.61729071  0.75914481  0.73777473  1
  O  O387  1  0.37447542  0.23968170  0.25701438  1
  O  O388  1  0.38628147  0.25009932  0.74002205  1
  O  O389  1  0.38007407  0.73929801  0.25389383  1
  O  O390  1  0.38158143  0.74481996  0.74302540  1
  O  O391  1  0.88057131  0.25277268  0.24565957  1
  O  O392  1  0.87654988  0.23991046  0.74433960  1
  O  O393  1  0.89205355  0.75479253  0.26085670  1
  O  O394  1  0.89225152  0.75465805  0.74702720  1
  O  O395  1  0.38012704  0.50056586  0.48855114  1
  O  O396  1  0.38453014  0.49099668  0.99203363  1
  O  O397  1  0.38298460  0.99567541  0.49414182  1
  O  O398  1  0.38361462  1.00255131  1.00237011  1
  O  O399  1  0.87831478  0.49660061  0.48741345  1
  O  O400  1  0.88818987  0.49638648  0.99378457  1
  O  O401  1  0.88008891  0.98826570  0.50290357  1
  O  O402  1  0.88316868  0.99347429  0.99685807  1
  O  O403  1  0.11966415  0.01030042  0.00575229  1
  O  O404  1  0.11733671  0.00455700  0.50772712  1
  O  O405  1  0.11568408  0.50639239  0.00461456  1
  O  O406  1  0.12330840  0.50904467  0.50796446  1
  O  O407  1  0.61807484  0.00379111  0.00792013  1
  O  O408  1  0.61878212  0.00848581  0.50640449  1
  O  O409  1  0.61205561  0.49812681  0.00274928  1
  O  O410  1  0.62237867  0.49832080  0.50902257  1
  O  O411  1  0.36199812  0.38072590  0.11960679  1
  O  O412  1  0.36767773  0.37191035  0.62377354  1
  O  O413  1  0.35713491  0.88123924  0.12721400  1
  O  O414  1  0.37520654  0.86937135  0.61768684  1
  O  O415  1  0.86455852  0.36519432  0.12271072  1
  O  O416  1  0.88273943  0.36057914  0.62919611  1
  O  O417  1  0.88146631  0.87557225  0.11455294  1
  O  O418  1  0.86685344  0.87395609  0.61996756  1
  O  O419  1  0.13158794  0.13008133  0.37861535  1
  O  O420  1  0.11986096  0.12640295  0.88215767  1
  O  O421  1  0.12874822  0.62949574  0.38395822  1
  O  O422  1  0.13677636  0.62382707  0.88348569  1
  O  O423  1  0.62317046  0.13930253  0.38385793  1
  O  O424  1  0.63442444  0.12656663  0.87999714  1
  O  O425  1  0.64103612  0.62019257  0.37395679  1
  O  O426  1  0.63603082  0.61922685  0.87578010  1
