# generated using pymatgen
data_V85Zn86O256
_symmetry_space_group_name_H-M   'P 1'
_cell_length_a   16.92354804
_cell_length_b   16.91947368
_cell_length_c   16.91813000
_cell_angle_alpha   89.98659340
_cell_angle_beta   89.95984981
_cell_angle_gamma   90.07103614
_symmetry_Int_Tables_number   1
_chemical_formula_structural   V85Zn86O256
_chemical_formula_sum   'V85 Zn86 O256'
_cell_volume   4844.29043607
_cell_formula_units_Z   1
loop_
 _symmetry_equiv_pos_site_id
 _symmetry_equiv_pos_as_xyz
  1  'x, y, z'
loop_
 _atom_site_type_symbol
 _atom_site_label
 _atom_site_symmetry_multiplicity
 _atom_site_fract_x
 _atom_site_fract_y
 _atom_site_fract_z
 _atom_site_occupancy
  V  V0  1  0.87770013  0.50997952  0.37843858  1
  V  V1  1  0.74998455  0.74839896  0.49951043  1
  V  V2  1  0.62394361  0.26519805  0.37033694  1
  V  V3  1  0.50895252  0.75267838  0.24748321  1
  V  V4  1  0.87664081  0.25141005  0.62288974  1
  V  V5  1  0.25642287  0.75487713  0.49636565  1
  V  V6  1  0.74821890  0.62526527  0.87524036  1
  V  V7  1  0.87261113  0.25186189  0.12652801  1
  V  V8  1  0.49582221  0.25421777  0.25420514  1
  V  V9  1  0.37748200  0.48543898  0.37697321  1
  V  V10  1  0.76300495  0.75325417  0.00294535  1
  V  V11  1  0.62119291  0.24505152  0.88457660  1
  V  V12  1  0.24768232  -0.00500449  0.74680336  1
  V  V13  1  0.74788583  -0.00459576  0.74836529  1
  V  V14  1  0.37745643  0.25496173  0.61439031  1
  V  V15  1  0.12185088  0.74399273  0.87944429  1
  V  V16  1  0.12474606  0.75171651  0.37234208  1
  V  V17  1  0.49944935  0.37572748  0.87507448  1
  V  V18  1  0.38042002  0.75200892  0.12123992  1
  V  V19  1  0.24783668  0.12406687  0.87094698  1
  V  V20  1  0.87380058  0.12495484  0.75065654  1
  V  V21  1  0.49381006  0.74461350  0.75141162  1
  V  V22  1  0.50097926  0.12331837  0.62629038  1
  V  V23  1  0.87424060  0.12362948  0.25142769  1
  V  V24  1  0.25158326  0.74009287  0.00156318  1
  V  V25  1  0.13294835  0.38175651  0.75040104  1
  V  V26  1  0.87390910  0.37427932  0.00352990  1
  V  V27  1  0.37299798  0.37562278  -0.00023705  1
  V  V28  1  0.00032583  0.25250091  0.74816784  1
  V  V29  1  0.76251976  0.87065469  0.12699046  1
  V  V30  1  0.74467041  0.12315526  0.88432395  1
  V  V31  1  0.87995755  0.00269439  0.38025138  1
  V  V32  1  0.49965384  0.87508863  0.37091529  1
  V  V33  1  -0.00113798  0.12417546  0.12197494  1
  V  V34  1  0.12358088  0.37751600  0.25182345  1
  V  V35  1  0.25648552  0.62572049  0.37434161  1
  V  V36  1  0.12991966  0.24005826  0.37794148  1
  V  V37  1  0.11703851  0.62099994  0.49595275  1
  V  V38  1  0.49913955  0.24882711  0.75072945  1
  V  V39  1  0.62590571  -0.00197627  0.11105173  1
  V  V40  1  0.37230139  -0.00529225  0.88070343  1
  V  V41  1  0.73929953  -0.00540683  0.25263007  1
  V  V42  1  0.73611526  0.37955869  0.13165445  1
  V  V43  1  0.37365507  0.24081998  0.12776519  1
  V  V44  1  0.87529513  0.49810461  0.87612092  1
  V  V45  1  -0.00329991  0.86736306  0.87095074  1
  V  V46  1  0.12307995  0.86532468  0.74541086  1
  V  V47  1  0.25697655  0.87725946  0.11793581  1
  V  V48  1  -0.00120307  0.25066767  0.25027343  1
  V  V49  1  -0.00023028  0.37933264  0.38400253  1
  V  V50  1  0.62651339  0.62343649  0.01061668  1
  V  V51  1  0.12182576  0.50094487  0.62278033  1
  V  V52  1  0.25525822  0.38128658  0.61905943  1
  V  V53  1  0.24869294  0.88353495  0.61951948  1
  V  V54  1  0.12639521  -0.00025753  0.12348772  1
  V  V55  1  0.62565457  0.62694770  0.49148417  1
  V  V56  1  0.87299823  -0.00592511  0.88003700  1
  V  V57  1  0.62693473  -0.00335494  0.62575046  1
  V  V58  1  0.49519312  0.87208437  0.88438600  1
  V  V59  1  0.12096989  0.50800973  0.11992618  1
  V  V60  1  0.74952492  0.50271357  0.74926504  1
  V  V61  1  0.49243354  0.62438661  0.62451518  1
  V  V62  1  0.12399335  0.24752169  0.87282370  1
  V  V63  1  0.75046422  0.37603529  0.62497250  1
  V  V64  1  0.88508001  0.62862853  0.74973140  1
  V  V65  1  0.49587959  0.48899041  0.49771325  1
  V  V66  1  0.50380058  0.49973154  0.00836917  1
  V  V67  1  0.37226482  0.75281702  0.62540253  1
  V  V68  1  0.12537354  0.11358302  0.51088131  1
  V  V69  1  0.37330022  0.50414585  0.86483573  1
  V  V70  1  0.86910563  0.88020322  0.50560965  1
  V  V71  1  0.24863499  0.37533178  0.12500219  1
  V  V72  1  0.87828130  0.75329284  0.62779170  1
  V  V73  1  0.00106728  0.87906832  0.38099824  1
  V  V74  1  0.62574041  0.87015886  0.74526359  1
  V  V75  1  0.49113194  -0.00882695  0.50118193  1
  V  V76  1  0.62360301  0.50295191  0.62479853  1
  V  V77  1  0.74009990  0.50420923  0.25339385  1
  V  V78  1  -0.00144159  -0.00538906  -0.00368009  1
  V  V79  1  0.87793852  0.62846850  0.24007834  1
  V  V80  1  0.25093541  0.62190973  0.85998732  1
  V  V81  1  0.62419177  0.74773500  0.87700255  1
  V  V82  1  0.62556668  0.12288113  0.49758390  1
  V  V83  1  0.25731703  0.01140075  0.25198079  1
  V  V84  1  0.74869684  0.12549456  0.37554324  1
  Zn  Zn85  1  0.37746840  0.62527644  0.24994066  1
  Zn  Zn86  1  0.37269097  0.12141786  0.74400374  1
  Zn  Zn87  1  0.63203404  0.75611345  0.36921879  1
  Zn  Zn88  1  0.25751439  0.25288534  0.49208048  1
  Zn  Zn89  1  0.62550797  0.37492200  0.75191180  1
  Zn  Zn90  1  0.74430344  0.24661515  0.00694899  1
  Zn  Zn91  1  0.24825580  0.24938499  -0.00281246  1
  Zn  Zn92  1  0.37624505  0.00681171  0.36638275  1
  Zn  Zn93  1  0.12574320  0.87655263  0.24921171  1
  Zn  Zn94  1  0.50940088  0.12659744  0.12381443  1
  Zn  Zn95  1  0.00139031  0.37598681  0.87761746  1
  Zn  Zn96  1  0.25284756  0.50223066  0.24978228  1
  Zn  Zn97  1  0.75014719  0.25282457  0.49891724  1
  Zn  Zn98  1  0.49748428  0.00452221  -0.00041913  1
  Zn  Zn99  1  0.87793346  0.38304084  0.50222143  1
  Zn  Zn100  1  0.50080426  0.62052136  0.12952907  1
  Zn  Zn101  1  -0.00811975  0.75745190  0.24570928  1
  Zn  Zn102  1  -0.00588600  0.10361315  0.61072360  1
  Zn  Zn103  1  0.12200064  0.12467958  -0.00666675  1
  Zn  Zn104  1  0.00174920  0.64442747  0.11232270  1
  Zn  Zn105  1  0.00135809  0.50341480  0.00054880  1
  Zn  Zn106  1  -0.00013210  0.62481590  0.62192621  1
  Zn  Zn107  1  0.18506513  0.18798372  0.18590029  1
  Zn  Zn108  1  0.18995232  0.18799959  0.68219187  1
  Zn  Zn109  1  0.18963140  0.69014097  0.18971514  1
  Zn  Zn110  1  0.18612520  0.68822636  0.68521305  1
  Zn  Zn111  1  0.68523849  0.18550103  0.19076211  1
  Zn  Zn112  1  0.68692814  0.18668045  0.69203999  1
  Zn  Zn113  1  0.69212048  0.68713990  0.18955302  1
  Zn  Zn114  1  0.68980306  0.68814016  0.68187808  1
  Zn  Zn115  1  0.31099268  0.31027532  0.30808802  1
  Zn  Zn116  1  0.31352501  0.31254378  0.80738323  1
  Zn  Zn117  1  0.31859964  0.82087399  0.30596566  1
  Zn  Zn118  1  0.31264862  0.80856952  0.81144162  1
  Zn  Zn119  1  0.81112149  0.31707038  0.31333301  1
  Zn  Zn120  1  0.80863048  0.31213968  0.81312604  1
  Zn  Zn121  1  0.81132056  0.81353451  0.31546705  1
  Zn  Zn122  1  0.81173207  0.81076693  0.81270531  1
  Zn  Zn123  1  0.18979752  0.43819234  0.43869844  1
  Zn  Zn124  1  0.18967918  0.43968406  0.93645342  1
  Zn  Zn125  1  0.19005424  0.93970431  0.43623667  1
  Zn  Zn126  1  0.18548475  0.93235122  0.93747709  1
  Zn  Zn127  1  0.69233744  0.44356773  0.43966001  1
  Zn  Zn128  1  0.68683860  0.43470369  0.94072456  1
  Zn  Zn129  1  0.68609199  0.93363356  0.43669785  1
  Zn  Zn130  1  0.68838911  0.92949647  0.93699344  1
  Zn  Zn131  1  0.31038598  0.06292889  0.05594653  1
  Zn  Zn132  1  0.32850697  0.08571857  0.52399623  1
  Zn  Zn133  1  0.31401968  0.56282573  0.06215079  1
  Zn  Zn134  1  0.30959759  0.56256584  0.55969060  1
  Zn  Zn135  1  0.81203015  0.05914643  0.06382174  1
  Zn  Zn136  1  0.81037306  0.06310318  0.56427283  1
  Zn  Zn137  1  0.80991270  0.55999832  0.06451099  1
  Zn  Zn138  1  0.81193544  0.56681086  0.56161868  1
  Zn  Zn139  1  0.43838325  0.43284466  0.19257238  1
  Zn  Zn140  1  0.43833844  0.43669489  0.68709564  1
  Zn  Zn141  1  0.43858367  0.93579947  0.18751821  1
  Zn  Zn142  1  0.43558235  0.93370542  0.68932244  1
  Zn  Zn143  1  0.93572752  0.44022707  0.19155351  1
  Zn  Zn144  1  0.94164505  0.43892510  0.68816600  1
  Zn  Zn145  1  0.93803308  0.93782004  0.19197436  1
  Zn  Zn146  1  0.93636138  0.93258159  0.68996740  1
  Zn  Zn147  1  0.06419182  0.06101185  0.31060425  1
  Zn  Zn148  1  0.05134412  0.04935743  0.78284733  1
  Zn  Zn149  1  0.06064356  0.56401682  0.30856180  1
  Zn  Zn150  1  0.06446042  0.56133324  0.81460531  1
  Zn  Zn151  1  0.55765959  0.06731221  0.31006208  1
  Zn  Zn152  1  0.56049770  0.06096952  0.81499144  1
  Zn  Zn153  1  0.55676639  0.56439337  0.31440376  1
  Zn  Zn154  1  0.56067785  0.56240949  0.81491108  1
  Zn  Zn155  1  0.44305043  0.18675225  0.43233603  1
  Zn  Zn156  1  0.43539599  0.18194248  0.94139159  1
  Zn  Zn157  1  0.43915595  0.68789937  0.43705642  1
  Zn  Zn158  1  0.43478757  0.68458730  0.94096464  1
  Zn  Zn159  1  0.94238268  0.18959163  0.43986807  1
  Zn  Zn160  1  0.93558220  0.18672489  0.93606783  1
  Zn  Zn161  1  0.93620928  0.69189244  0.43507833  1
  Zn  Zn162  1  0.94035872  0.68229121  0.93905187  1
  Zn  Zn163  1  0.06089015  0.31493323  0.06046185  1
  Zn  Zn164  1  0.06438342  0.31218258  0.56330633  1
  Zn  Zn165  1  0.06367591  0.81453168  0.05918424  1
  Zn  Zn166  1  0.06075616  0.81137790  0.55945475  1
  Zn  Zn167  1  0.55756384  0.31096558  0.06484913  1
  Zn  Zn168  1  0.56723750  0.31120519  0.56229541  1
  Zn  Zn169  1  0.57224442  0.81594826  0.06658267  1
  Zn  Zn170  1  0.56161616  0.81246104  0.56128755  1
  O  O171  1  0.11798384  0.11649764  0.11975697  1
  O  O172  1  0.11720045  0.13078746  0.61467268  1
  O  O173  1  0.12819869  0.60965910  0.13215895  1
  O  O174  1  0.12498746  0.61971696  0.61553869  1
  O  O175  1  0.63298608  0.10359002  0.12887031  1
  O  O176  1  0.62117360  0.12035386  0.61931711  1
  O  O177  1  0.62490461  0.62682503  0.11366156  1
  O  O178  1  0.61334237  0.62087957  0.61872295  1
  O  O179  1  0.36733180  0.38679479  0.37594615  1
  O  O180  1  0.37745189  0.38006032  0.88179800  1
  O  O181  1  0.39163888  0.88345122  0.37200730  1
  O  O182  1  0.38366843  0.88040271  0.86799800  1
  O  O183  1  0.88374251  0.38443216  0.37588670  1
  O  O184  1  0.87097813  0.38129183  0.88391837  1
  O  O185  1  0.88017504  0.88411567  0.38292095  1
  O  O186  1  0.88343977  0.88169542  0.86962854  1
  O  O187  1  0.25123404  -0.00802643  0.35467847  1
  O  O188  1  0.25422831  0.00278129  0.86894911  1
  O  O189  1  0.26084144  0.50773531  0.37609782  1
  O  O190  1  0.25610988  0.51410984  0.87856815  1
  O  O191  1  0.75841545  0.00265760  0.36987558  1
  O  O192  1  0.75265875  0.00379922  0.87104364  1
  O  O193  1  0.76402659  0.49321693  0.36206549  1
  O  O194  1  0.75804589  0.50276484  0.87040263  1
  O  O195  1  0.24229430  0.49042204  0.12602453  1
  O  O196  1  0.24014213  0.49375863  0.62212197  1
  O  O197  1  0.24426659  0.99628329  0.12599057  1
  O  O198  1  0.25553856  0.98582224  0.63073480  1
  O  O199  1  0.75156917  0.48875177  0.13766910  1
  O  O200  1  0.74605215  0.49507942  0.62967000  1
  O  O201  1  0.74544520  0.99190645  0.13152391  1
  O  O202  1  0.74424454  1.00486769  0.64071241  1
  O  O203  1  0.00736371  0.37028433  0.25672217  1
  O  O204  1  0.00907569  0.36648230  0.75235485  1
  O  O205  1  0.00176654  0.87723250  0.26568800  1
  O  O206  1  0.00952128  0.87132201  0.76250277  1
  O  O207  1  0.50515244  0.35590262  0.24342427  1
  O  O208  1  0.50208460  0.36652202  0.75710427  1
  O  O209  1  0.50077425  0.86895533  0.26027510  1
  O  O210  1  0.50607152  0.86200251  0.75647341  1
  O  O211  1  0.50604431  0.14283182  0.24199420  1
  O  O212  1  0.49823930  0.13070036  0.74346536  1
  O  O213  1  0.49708957  0.63513336  0.24753353  1
  O  O214  1  0.50626561  0.63682981  0.74222419  1
  O  O215  1  0.99417407  0.12915954  0.24288242  1
  O  O216  1  0.98876984  0.14626827  0.76332934  1
  O  O217  1  0.98675584  0.62687294  0.24516147  1
  O  O218  1  0.98762045  0.62268043  0.75091726  1
  O  O219  1  0.37259727  0.26269173  0.00531064  1
  O  O220  1  0.38060854  0.25368149  0.51105818  1
  O  O221  1  0.36929209  0.74853483  0.01187676  1
  O  O222  1  0.36352258  0.74582100  0.50641812  1
  O  O223  1  0.87075356  0.25770589  0.00609311  1
  O  O224  1  0.87321586  0.25220660  0.51257474  1
  O  O225  1  0.86150865  0.74645766  -0.00645690  1
  O  O226  1  0.86888221  0.75675954  0.50492428  1
  O  O227  1  0.12249873  0.25057610  0.48427740  1
  O  O228  1  0.12450334  0.25043154  0.98490130  1
  O  O229  1  0.13412487  0.74461559  0.48865821  1
  O  O230  1  0.13561101  0.75426374  0.98635827  1
  O  O231  1  0.62487495  0.24105170  0.48947087  1
  O  O232  1  0.62443379  0.25275175  0.98878904  1
  O  O233  1  0.63327066  0.74318693  0.50430010  1
  O  O234  1  0.63098919  0.74148237  0.99455504  1
  O  O235  1  0.48984805  0.24878742  0.13184010  1
  O  O236  1  0.49791962  0.24672294  0.63240468  1
  O  O237  1  0.49651788  0.75310897  0.12974813  1
  O  O238  1  0.49183580  0.74521417  0.63037886  1
  O  O239  1  0.99485855  0.24521283  0.13000405  1
  O  O240  1  0.99130043  0.25238019  0.63323123  1
  O  O241  1  1.01005672  0.75514045  0.13422801  1
  O  O242  1  0.98472157  0.74529445  0.61890863  1
  O  O243  1  0.00772720  0.25886915  0.36800146  1
  O  O244  1  0.00682385  0.25581574  0.87044777  1
  O  O245  1  0.00843184  0.75914281  0.37165994  1
  O  O246  1  0.00879554  0.75568159  0.87978353  1
  O  O247  1  0.51182075  0.24939122  0.36773815  1
  O  O248  1  0.50267441  0.25245010  0.86932085  1
  O  O249  1  0.49898973  0.76018970  0.36742763  1
  O  O250  1  0.50159557  0.75239699  0.86901802  1
  O  O251  1  0.22963610  0.13913742  0.50724069  1
  O  O252  1  0.24484035  0.12750781  0.98325778  1
  O  O253  1  0.24185327  0.63366461  0.48937070  1
  O  O254  1  0.25125531  0.63645591  0.99569632  1
  O  O255  1  0.73939350  0.12724738  0.49652795  1
  O  O256  1  0.75417357  0.12639368  0.98816165  1
  O  O257  1  0.73787897  0.63311047  0.50382801  1
  O  O258  1  0.74416483  0.62932894  0.99621189  1
  O  O259  1  0.25666508  0.37287573  0.00586873  1
  O  O260  1  0.24450124  0.36982922  0.51423896  1
  O  O261  1  0.24636791  0.86481503  0.01084252  1
  O  O262  1  0.24489503  0.86603403  0.50654615  1
  O  O263  1  0.75752005  0.37447626  0.01345366  1
  O  O264  1  0.75286961  0.37487105  0.51361014  1
  O  O265  1  0.74794041  0.86551726  0.01187407  1
  O  O266  1  0.76233377  0.87033987  0.50023172  1
  O  O267  1  0.12790705  0.49101124  0.24303992  1
  O  O268  1  0.12250743  0.49009892  0.74339188  1
  O  O269  1  0.13237733  0.99901410  0.23953031  1
  O  O270  1  0.14221790  0.98083851  0.75989701  1
  O  O271  1  0.64084213  0.50694115  0.26039752  1
  O  O272  1  0.63094066  0.50025276  0.74405877  1
  O  O273  1  0.63782079  1.00196706  0.25116947  1
  O  O274  1  0.62908962  0.99108082  0.74745835  1
  O  O275  1  0.36251701  0.00271058  0.24470104  1
  O  O276  1  0.36339599  -0.00186179  0.75732930  1
  O  O277  1  0.37468238  0.50085142  0.26305264  1
  O  O278  1  0.38191422  0.49845139  0.76556377  1
  O  O279  1  0.86748148  0.00668131  0.25957865  1
  O  O280  1  0.86243117  0.00143340  0.76249185  1
  O  O281  1  0.86921717  0.50986409  0.25784382  1
  O  O282  1  0.86930180  0.50576721  0.75600876  1
  O  O283  1  0.11879009  0.37280263  0.36747052  1
  O  O284  1  0.12706197  0.36944888  0.86669137  1
  O  O285  1  0.11710518  0.86961740  0.37716183  1
  O  O286  1  0.11890960  0.86419459  0.86837464  1
  O  O287  1  0.63031166  0.36294027  0.38240498  1
  O  O288  1  0.61836914  0.36602408  0.87369588  1
  O  O289  1  0.60947020  0.87296739  0.37740456  1
  O  O290  1  0.61663248  0.86769192  0.86533602  1
  O  O291  1  0.36619131  0.14020828  0.11967153  1
  O  O292  1  0.38387475  0.13494518  0.62237730  1
  O  O293  1  0.37765627  0.63407499  0.12758203  1
  O  O294  1  0.38519437  0.63285690  0.61982111  1
  O  O295  1  0.87864182  0.13055045  0.12993556  1
  O  O296  1  0.87640145  0.13361433  0.63146274  1
  O  O297  1  0.87707871  0.62003737  0.13702394  1
  O  O298  1  0.87758663  0.62980902  0.63327083  1
  O  O299  1  0.25248257  0.26062182  0.12332620  1
  O  O300  1  0.26318435  0.25871460  0.62621241  1
  O  O301  1  0.25607450  0.75591692  0.11889186  1
  O  O302  1  0.25620189  0.75365526  0.61625876  1
  O  O303  1  0.75349795  0.26076795  0.12890873  1
  O  O304  1  0.75656856  0.25851628  0.62759325  1
  O  O305  1  0.74755298  0.76324603  0.12034327  1
  O  O306  1  0.76352704  0.74646705  0.61330833  1
  O  O307  1  0.23360907  0.25575433  0.37359171  1
  O  O308  1  0.24321481  0.24117394  0.86997428  1
  O  O309  1  0.24855335  0.74794781  0.37941648  1
  O  O310  1  0.24777597  0.73929618  0.88118330  1
  O  O311  1  0.74034834  0.24607880  0.37590150  1
  O  O312  1  0.73910172  0.24127005  0.87505124  1
  O  O313  1  0.74832417  0.75543069  0.39151999  1
  O  O314  1  0.74340787  0.74523595  0.88261596  1
  O  O315  1  -0.00081566  0.11353856  0.00307657  1
  O  O316  1  0.01567970  0.12827666  0.50078872  1
  O  O317  1  -0.00049943  0.61606464  0.00336054  1
  O  O318  1  0.01384821  0.63046050  0.49650871  1
  O  O319  1  0.49417772  0.11829957  0.01006041  1
  O  O320  1  0.51340641  0.11512204  0.50674796  1
  O  O321  1  0.50861578  0.61689940  0.00136561  1
  O  O322  1  0.50600509  0.62005699  0.50832837  1
  O  O323  1  0.50425887  0.39033977  0.50859086  1
  O  O324  1  0.49317599  0.38056424  0.99480005  1
  O  O325  1  0.50471518  0.88097387  0.48945221  1
  O  O326  1  0.50752755  0.87633735  0.98649135  1
  O  O327  1  0.99938972  0.37360364  0.48748862  1
  O  O328  1  0.98589872  0.38000100  0.99940278  1
  O  O329  1  0.98854471  0.87213400  0.48919186  1
  O  O330  1  1.00536146  0.88748383  0.98656868  1
  O  O331  1  0.48651310  0.50104781  0.38227226  1
  O  O332  1  0.49230637  0.49586956  0.88451747  1
  O  O333  1  0.50050890  0.99340708  0.38243898  1
  O  O334  1  0.49041130  0.98951413  0.87260329  1
  O  O335  1  0.98734068  0.49325134  0.36774444  1
  O  O336  1  0.98606604  0.49591241  0.87352306  1
  O  O337  1  0.98766804  0.99663335  0.37223091  1
  O  O338  1  0.99122209  0.99375872  0.87727477  1
  O  O339  1  0.00560041  0.00158789  0.11624967  1
  O  O340  1  0.00600357  0.01655982  0.67839468  1
  O  O341  1  0.01560329  0.49660877  0.12798390  1
  O  O342  1  0.01487836  0.50297286  0.62590717  1
  O  O343  1  0.51666300  -0.00487503  0.12474306  1
  O  O344  1  0.50817440  0.00160769  0.62348984  1
  O  O345  1  0.49340215  0.49849232  0.11222093  1
  O  O346  1  0.50204073  0.50846489  0.62065415  1
  O  O347  1  0.24003608  0.37706899  0.24212717  1
  O  O348  1  0.23883048  0.37044970  0.73957288  1
  O  O349  1  0.24758195  0.88250679  0.23360626  1
  O  O350  1  0.24463090  0.87590321  0.74179196  1
  O  O351  1  0.75309862  0.38687403  0.23951109  1
  O  O352  1  0.74931249  0.38303011  0.74057829  1
  O  O353  1  0.75571435  0.88144734  0.23962311  1
  O  O354  1  0.73864051  0.88375541  0.75812338  1
  O  O355  1  0.24520074  0.11012736  0.24478803  1
  O  O356  1  0.24852811  0.11398989  0.75427085  1
  O  O357  1  0.25256588  0.62415012  0.26302235  1
  O  O358  1  0.25254137  0.62908980  0.76142859  1
  O  O359  1  0.75628083  0.11728950  0.25787120  1
  O  O360  1  0.75419795  0.11681467  0.76037479  1
  O  O361  1  0.76027443  0.61182899  0.24519720  1
  O  O362  1  0.75528411  0.61876992  0.75487413  1
  O  O363  1  0.36746231  0.10915008  0.41454309  1
  O  O364  1  0.36437655  0.11656598  0.86864705  1
  O  O365  1  0.36767406  0.62019817  0.37451312  1
  O  O366  1  0.36212108  0.61782863  0.87943878  1
  O  O367  1  0.86983276  0.12037124  0.37480389  1
  O  O368  1  0.86573555  0.11772792  0.86933430  1
  O  O369  1  0.88009256  0.61359511  0.36708562  1
  O  O370  1  0.86756084  0.61744333  0.86773268  1
  O  O371  1  0.13042139  0.37751853  0.13339916  1
  O  O372  1  0.13047883  0.38157070  0.63086297  1
  O  O373  1  0.13195405  0.88934263  0.12349308  1
  O  O374  1  0.13370831  0.86356676  0.63343734  1
  O  O375  1  0.63818480  0.37323049  0.12062470  1
  O  O376  1  0.63392930  0.38219059  0.62818695  1
  O  O377  1  0.63918144  0.89043276  0.12575248  1
  O  O378  1  0.62086098  0.87756432  0.63839655  1
  O  O379  1  0.12019755  0.25655493  0.25882581  1
  O  O380  1  0.11872920  0.25643185  0.75589136  1
  O  O381  1  0.12920314  0.75421740  0.26447170  1
  O  O382  1  0.13185654  0.75763354  0.76200865  1
  O  O383  1  0.62145561  0.24926191  0.26504976  1
  O  O384  1  0.61321334  0.25046129  0.75856022  1
  O  O385  1  0.61408460  0.74542622  0.25022818  1
  O  O386  1  0.62054649  0.75419083  0.75414711  1
  O  O387  1  0.38354349  0.25197651  0.24315911  1
  O  O388  1  0.38768631  0.24734259  0.74330732  1
  O  O389  1  0.38536248  0.75092020  0.23763060  1
  O  O390  1  0.38372374  0.74820188  0.74145227  1
  O  O391  1  0.87898688  0.24457656  0.24687447  1
  O  O392  1  0.87924879  0.24978960  0.74121186  1
  O  O393  1  0.87105173  0.73152527  0.25911299  1
  O  O394  1  0.86758710  0.74022890  0.74139443  1
  O  O395  1  0.38188100  0.50433139  0.48752669  1
  O  O396  1  0.37975383  0.48986224  0.99399230  1
  O  O397  1  0.39198575  0.98863681  0.51634867  1
  O  O398  1  0.37226837  0.99665815  0.98480718  1
  O  O399  1  0.86946516  0.50263075  0.48345488  1
  O  O400  1  0.87133292  0.49193952  0.99190233  1
  O  O401  1  0.87036218  0.99436118  0.49358033  1
  O  O402  1  0.88071758  1.00233985  0.98751337  1
  O  O403  1  0.11707878  0.00255593  0.00395540  1
  O  O404  1  0.12922534  0.01448087  0.49863106  1
  O  O405  1  0.12401160  0.49053619  0.01679658  1
  O  O406  1  0.12943502  0.51039254  0.50627124  1
  O  O407  1  0.62690913  -0.00210906  0.00846532  1
  O  O408  1  0.62279829  0.00484424  0.50805353  1
  O  O409  1  0.61566267  0.50939773  -0.00692715  1
  O  O410  1  0.61941978  0.50861416  0.50447925  1
  O  O411  1  0.36540645  0.37077324  0.11895659  1
  O  O412  1  0.36610034  0.36929427  0.63126428  1
  O  O413  1  0.36840677  0.86761234  0.12441775  1
  O  O414  1  0.36623215  0.86019323  0.62995795  1
  O  O415  1  0.86965093  0.37103583  0.12060746  1
  O  O416  1  0.86958796  0.37090704  0.62420846  1
  O  O417  1  0.86167191  0.88419632  0.12391171  1
  O  O418  1  0.87828034  0.86849351  0.61828083  1
  O  O419  1  0.11983843  0.13726247  0.37941972  1
  O  O420  1  0.13040089  0.13310215  0.86839068  1
  O  O421  1  0.13145558  0.63067120  0.37802834  1
  O  O422  1  0.13822837  0.63007665  0.87099352  1
  O  O423  1  0.63039139  0.12847297  0.38325854  1
  O  O424  1  0.63237998  0.13213683  0.87026706  1
  O  O425  1  0.61731807  0.63189782  0.38870556  1
  O  O426  1  0.63071619  0.63015077  0.88201146  1
