# generated using pymatgen
data_V85Zn86O256
_symmetry_space_group_name_H-M   'P 1'
_cell_length_a   16.94124755
_cell_length_b   16.95469243
_cell_length_c   16.93488767
_cell_angle_alpha   90.00842330
_cell_angle_beta   90.04198665
_cell_angle_gamma   90.05190488
_symmetry_Int_Tables_number   1
_chemical_formula_structural   V85Zn86O256
_chemical_formula_sum   'V85 Zn86 O256'
_cell_volume   4864.26609666
_cell_formula_units_Z   1
loop_
 _symmetry_equiv_pos_site_id
 _symmetry_equiv_pos_as_xyz
  1  'x, y, z'
loop_
 _atom_site_type_symbol
 _atom_site_label
 _atom_site_symmetry_multiplicity
 _atom_site_fract_x
 _atom_site_fract_y
 _atom_site_fract_z
 _atom_site_occupancy
  V  V0  1  0.12741392  0.49743485  0.62328502  1
  V  V1  1  0.74621389  0.50171453  0.25258665  1
  V  V2  1  -0.00077553  0.12607695  0.12105255  1
  V  V3  1  0.49674001  0.49432190  0.00418500  1
  V  V4  1  0.25645322  0.51820954  0.25531798  1
  V  V5  1  0.38339122  -0.00129286  0.37647477  1
  V  V6  1  0.00003430  0.24772140  0.74872383  1
  V  V7  1  0.25264143  0.87249466  0.61924922  1
  V  V8  1  0.86488064  0.24825914  0.62016864  1
  V  V9  1  0.74679214  0.12633725  0.87800214  1
  V  V10  1  0.25460828  0.87282207  0.11789879  1
  V  V11  1  0.00253600  0.25021399  0.24795329  1
  V  V12  1  0.49374246  0.73171000  0.24894098  1
  V  V13  1  0.12579022  0.63005885  0.00037609  1
  V  V14  1  -0.00152520  0.00016119  0.49822850  1
  V  V15  1  0.12865919  0.37278454  0.74345953  1
  V  V16  1  0.00348962  0.49992971  0.49684554  1
  V  V17  1  0.13237124  0.87600873  0.74905157  1
  V  V18  1  0.50030106  0.74888350  0.74798058  1
  V  V19  1  -0.00350948  0.62851827  0.12446010  1
  V  V20  1  0.13014103  0.75042987  0.87657438  1
  V  V21  1  0.37500797  0.48895353  0.88076253  1
  V  V22  1  0.86781409  0.61543335  0.74926409  1
  V  V23  1  0.61425529  0.88160596  0.24792151  1
  V  V24  1  0.37340638  0.12989198  0.74544672  1
  V  V25  1  0.61500830  0.50182726  0.12929544  1
  V  V26  1  0.12881434  0.12315393  0.49983978  1
  V  V27  1  0.74451313  0.37611845  0.12570872  1
  V  V28  1  0.74587782  0.88174542  0.11314103  1
  V  V29  1  0.50690879  0.12751397  0.12813673  1
  V  V30  1  0.74805733  -0.00301031  0.25520489  1
  V  V31  1  0.87265252  0.63051531  0.24972583  1
  V  V32  1  0.87524890  0.11737597  0.25651929  1
  V  V33  1  0.13061421  0.12439828  0.00060655  1
  V  V34  1  0.74410345  0.88215323  0.62467805  1
  V  V35  1  0.13018335  -0.00160088  0.62695479  1
  V  V36  1  0.37882305  0.87205469  0.49537271  1
  V  V37  1  -0.00244045  0.37414010  0.87725417  1
  V  V38  1  0.87201897  0.74994054  0.62317658  1
  V  V39  1  0.50352804  0.00084465  0.00627888  1
  V  V40  1  0.61675489  0.75726551  0.37194767  1
  V  V41  1  0.00190518  0.37443652  0.37239816  1
  V  V42  1  0.25380604  0.12919998  0.37676141  1
  V  V43  1  0.13599471  0.37597421  0.25047752  1
  V  V44  1  0.00096994  0.62259060  0.62079126  1
  V  V45  1  0.00437721  0.74561296  0.74799724  1
  V  V46  1  0.38707832  0.37232950  0.50378254  1
  V  V47  1  0.87318383  0.12122168  0.75219616  1
  V  V48  1  0.87472700  0.87915891  0.49725963  1
  V  V49  1  0.25285591  0.62633147  0.87930564  1
  V  V50  1  0.37081942  -0.00352712  0.86973457  1
  V  V51  1  0.87619650  0.50317880  0.37336616  1
  V  V52  1  0.50028277  0.87383849  0.87741798  1
  V  V53  1  0.86862062  0.36853091  0.49589343  1
  V  V54  1  0.14178188  0.62763341  0.49686894  1
  V  V55  1  0.12742323  0.00013962  0.12623047  1
  V  V56  1  0.38158770  0.62286359  0.75047086  1
  V  V57  1  0.37326786  0.74421437  0.62059987  1
  V  V58  1  0.37311420  0.25273722  0.10993327  1
  V  V59  1  -0.00288924  0.75356488  0.25217130  1
  V  V60  1  0.50177654  0.12849141  0.62667550  1
  V  V61  1  0.74640752  0.13318245  0.37762443  1
  V  V62  1  0.86741129  0.75646440  0.11052430  1
  V  V63  1  0.74649360  0.63096207  0.37546554  1
  V  V64  1  0.62301872  0.37384285  0.27283574  1
  V  V65  1  0.62193992  0.88212976  0.74569621  1
  V  V66  1  0.49951736  0.25479592  0.26825641  1
  V  V67  1  0.62162774  0.63200851  0.50882354  1
  V  V68  1  0.87512417  0.25209246  0.12489255  1
  V  V69  1  0.25195614  0.25787432  0.51758103  1
  V  V70  1  0.62369022  0.63243070  0.00771280  1
  V  V71  1  0.62912270  0.14189905  0.50225388  1
  V  V72  1  0.12661300  0.87525706  0.25169802  1
  V  V73  1  0.25373477  0.00040739  0.25134937  1
  V  V74  1  0.13804824  0.74807771  0.37792535  1
  V  V75  1  0.13263502  0.24832784  0.87467470  1
  V  V76  1  0.37644925  0.73717216  0.11976285  1
  V  V77  1  0.25014072  0.11687907  0.87309004  1
  V  V78  1  0.49542615  0.51756081  0.49818611  1
  V  V79  1  0.74534334  0.62356285  0.87654599  1
  V  V80  1  0.51129818  -0.00283851  0.50399857  1
  V  V81  1  0.12482975  0.50060655  0.12478878  1
  V  V82  1  0.25380737  0.49542428  0.74570997  1
  V  V83  1  -0.00018762  0.12309203  0.62422170  1
  V  V84  1  -0.00131654  0.87794630  0.37509388  1
  Zn  Zn85  1  0.37511178  0.50518522  0.37187833  1
  Zn  Zn86  1  0.63218213  0.75350945  0.88033445  1
  Zn  Zn87  1  0.37261305  0.87035155  -0.00141173  1
  Zn  Zn88  1  0.87081406  -0.01150326  0.88968221  1
  Zn  Zn89  1  -0.00584272  -0.01093681  0.00058027  1
  Zn  Zn90  1  0.62499077  0.49873027  0.62874867  1
  Zn  Zn91  1  0.12887012  0.25004006  0.37602402  1
  Zn  Zn92  1  0.50253354  0.37228969  0.87460010  1
  Zn  Zn93  1  0.62048290  0.25506302  0.87677127  1
  Zn  Zn94  1  0.37630780  0.12968915  0.24963217  1
  Zn  Zn95  1  0.86959007  0.49496827  0.87558801  1
  Zn  Zn96  1  0.87498639  0.37779273  0.00232529  1
  Zn  Zn97  1  0.74881415  0.38171117  0.63181306  1
  Zn  Zn98  1  -0.00361706  0.50382825  -0.00334070  1
  Zn  Zn99  1  0.74602682  0.25073912  0.00266577  1
  Zn  Zn100  1  0.74344604  0.00370791  0.74811568  1
  Zn  Zn101  1  0.62596221  0.12607624  0.00598189  1
  Zn  Zn102  1  0.74573409  0.75604002  0.49836005  1
  Zn  Zn103  1  0.50117185  0.25666717  0.74921415  1
  Zn  Zn104  1  0.26517224  0.37833912  0.10632588  1
  Zn  Zn105  1  0.63276347  0.38203719  0.75353545  1
  Zn  Zn106  1  -0.00791903  0.87171485  0.88208386  1
  Zn  Zn107  1  0.19190145  0.18971637  0.18778151  1
  Zn  Zn108  1  0.18967947  0.18112900  0.69196764  1
  Zn  Zn109  1  0.18822918  0.69356522  0.18540093  1
  Zn  Zn110  1  0.19327845  0.68370357  0.68565326  1
  Zn  Zn111  1  0.68520606  0.19112895  0.19482517  1
  Zn  Zn112  1  0.68229981  0.19281955  0.68918000  1
  Zn  Zn113  1  0.68545177  0.69306972  0.18588065  1
  Zn  Zn114  1  0.68850336  0.69207121  0.69206900  1
  Zn  Zn115  1  0.31931219  0.31600421  0.31877475  1
  Zn  Zn116  1  0.31287789  0.31016402  0.81070873  1
  Zn  Zn117  1  0.31805122  0.81193856  0.30885042  1
  Zn  Zn118  1  0.31179996  0.81191948  0.81027146  1
  Zn  Zn119  1  0.81268677  0.31236678  0.30993074  1
  Zn  Zn120  1  0.80892763  0.30989083  0.81049418  1
  Zn  Zn121  1  0.80984905  0.81627824  0.31108099  1
  Zn  Zn122  1  0.80824472  0.80591000  0.81366409  1
  Zn  Zn123  1  0.19235533  0.43744811  0.43497278  1
  Zn  Zn124  1  0.18750671  0.44041405  0.93420159  1
  Zn  Zn125  1  0.19209681  0.93616925  0.43754766  1
  Zn  Zn126  1  0.18157590  0.93809054  0.93882301  1
  Zn  Zn127  1  0.69497890  0.44778648  0.46163015  1
  Zn  Zn128  1  0.68611069  0.44068463  0.93803989  1
  Zn  Zn129  1  0.69062630  0.93989773  0.43110172  1
  Zn  Zn130  1  0.68384107  0.94468298  0.93290713  1
  Zn  Zn131  1  0.31939915  0.06529757  0.05983160  1
  Zn  Zn132  1  0.31455467  0.05989083  0.56284048  1
  Zn  Zn133  1  0.30989382  0.56052284  0.06301666  1
  Zn  Zn134  1  0.31705835  0.55869704  0.56581186  1
  Zn  Zn135  1  0.81297906  0.05968196  0.06381670  1
  Zn  Zn136  1  0.81066596  0.06185836  0.56171443  1
  Zn  Zn137  1  0.80774383  0.56129037  0.05919375  1
  Zn  Zn138  1  0.81181808  0.56322386  0.55886862  1
  Zn  Zn139  1  0.43805957  0.43078081  0.19054470  1
  Zn  Zn140  1  0.44396466  0.43416181  0.67930677  1
  Zn  Zn141  1  0.43532315  0.93853939  0.18596762  1
  Zn  Zn142  1  0.43762710  0.94193872  0.68556320  1
  Zn  Zn143  1  0.93877941  0.43983755  0.18744992  1
  Zn  Zn144  1  0.93702269  0.43277439  0.68574776  1
  Zn  Zn145  1  0.93423030  0.93862948  0.18064402  1
  Zn  Zn146  1  0.92145426  0.91765055  0.71836665  1
  Zn  Zn147  1  0.06395285  0.06254989  0.31356063  1
  Zn  Zn148  1  0.05822214  0.05640648  0.81376519  1
  Zn  Zn149  1  0.06672011  0.56596145  0.31136121  1
  Zn  Zn150  1  0.06175537  0.55981636  0.81171821  1
  Zn  Zn151  1  0.56401381  0.06643137  0.31478215  1
  Zn  Zn152  1  0.55953837  0.06310669  0.81366045  1
  Zn  Zn153  1  0.55816825  0.56088655  0.32165962  1
  Zn  Zn154  1  0.56439528  0.55631075  0.81517865  1
  Zn  Zn155  1  0.43523023  0.18646720  0.44574795  1
  Zn  Zn156  1  0.43942348  0.18599665  0.93593923  1
  Zn  Zn157  1  0.42699432  0.68601393  0.42936849  1
  Zn  Zn158  1  0.44262035  0.68294654  0.94060574  1
  Zn  Zn159  1  0.93865688  0.18614363  0.43422936  1
  Zn  Zn160  1  0.93674155  0.18615111  0.93832735  1
  Zn  Zn161  1  0.94186761  0.69015930  0.43757198  1
  Zn  Zn162  1  0.93765118  0.68712183  0.93356721  1
  Zn  Zn163  1  0.09720092  0.32815206  0.04438577  1
  Zn  Zn164  1  0.06189074  0.30917726  0.56062760  1
  Zn  Zn165  1  0.06408959  0.81058941  0.06480220  1
  Zn  Zn166  1  0.06332385  0.81027576  0.56075188  1
  Zn  Zn167  1  0.56294992  0.31028300  0.06361773  1
  Zn  Zn168  1  0.56097250  0.31383391  0.56894654  1
  Zn  Zn169  1  0.55899062  0.81401393  0.06789361  1
  Zn  Zn170  1  0.55698504  0.81165411  0.56391276  1
  O  O171  1  0.12087345  0.12366669  0.11864899  1
  O  O172  1  0.12203835  0.11533214  0.62147498  1
  O  O173  1  0.12104573  0.62251197  0.11825451  1
  O  O174  1  0.12079369  0.61919423  0.61754243  1
  O  O175  1  0.61118068  0.12954672  0.12907157  1
  O  O176  1  0.62104150  0.12524153  0.61098852  1
  O  O177  1  0.63061107  0.61774311  0.11671954  1
  O  O178  1  0.63237395  0.63230913  0.61046084  1
  O  O179  1  0.35687215  0.38839192  0.39815282  1
  O  O180  1  0.36830057  0.38718428  0.87638997  1
  O  O181  1  0.36863315  0.88356798  0.38548715  1
  O  O182  1  0.37924194  0.87900217  0.87644045  1
  O  O183  1  0.88516610  0.37939145  0.37493357  1
  O  O184  1  0.88474139  0.37177335  0.87866273  1
  O  O185  1  0.87996855  0.86898496  0.39048905  1
  O  O186  1  0.88588961  0.88394747  0.83111913  1
  O  O187  1  0.25882850  0.00935338  0.37294331  1
  O  O188  1  0.25728963  0.00413275  0.87849535  1
  O  O189  1  0.24286092  0.50327754  0.35695105  1
  O  O190  1  0.25324267  0.50675696  0.86642376  1
  O  O191  1  0.75239399  0.00865479  0.36214497  1
  O  O192  1  0.75401015  0.01058766  0.86890220  1
  O  O193  1  0.75710713  0.51232295  0.37322791  1
  O  O194  1  0.75413073  0.51706191  0.88231592  1
  O  O195  1  0.24037771  0.49617667  0.13286136  1
  O  O196  1  0.24371559  0.50477753  0.63937471  1
  O  O197  1  0.24779001  0.99605230  0.13097195  1
  O  O198  1  0.23814201  0.99127031  0.62029421  1
  O  O199  1  0.74100679  0.49450331  0.13461120  1
  O  O200  1  0.73565813  0.48533470  0.57696084  1
  O  O201  1  0.75175990  0.98688235  0.13586221  1
  O  O202  1  0.75200289  0.98569857  0.62697271  1
  O  O203  1  0.00547261  0.37260795  0.25977866  1
  O  O204  1  0.00565721  0.36767448  0.75780260  1
  O  O205  1  0.00406815  0.87319057  0.25446594  1
  O  O206  1  0.01806806  0.85610854  0.73953926  1
  O  O207  1  0.50796272  0.36436324  0.25633347  1
  O  O208  1  0.49683676  0.37411567  0.75476956  1
  O  O209  1  0.51211895  0.87471543  0.24400377  1
  O  O210  1  0.50247277  0.86937547  0.75600273  1
  O  O211  1  0.49982979  0.13724252  0.24699417  1
  O  O212  1  0.49203482  0.12214326  0.74195777  1
  O  O213  1  0.50513053  0.63400441  0.24730420  1
  O  O214  1  0.48763156  0.63410073  0.76165820  1
  O  O215  1  0.99481628  0.12780676  0.24369656  1
  O  O216  1  0.99463905  0.12899238  0.74397287  1
  O  O217  1  0.99416398  0.63378262  0.24455864  1
  O  O218  1  0.99760230  0.63212116  0.74235897  1
  O  O219  1  0.37334181  0.24483908  0.01127551  1
  O  O220  1  0.36288238  0.26123994  0.49859578  1
  O  O221  1  0.38272605  0.75086162  0.01481232  1
  O  O222  1  0.38427343  0.75844434  0.50976029  1
  O  O223  1  0.87413646  0.25115527  0.01573831  1
  O  O224  1  0.89015599  0.25763960  0.50916547  1
  O  O225  1  0.87805046  0.74913773  0.01251133  1
  O  O226  1  0.87712566  0.75730816  0.51125890  1
  O  O227  1  0.13535283  0.24078045  0.49978629  1
  O  O228  1  0.11531582  0.23055771  0.98673485  1
  O  O229  1  0.12178968  0.74039679  0.49041929  1
  O  O230  1  0.12603665  0.73806772  0.99234820  1
  O  O231  1  0.62309402  0.23944023  0.49858746  1
  O  O232  1  0.62864073  0.24412049  0.99847884  1
  O  O233  1  0.62020942  0.74822286  0.48944233  1
  O  O234  1  0.61460824  0.73561254  1.00229811  1
  O  O235  1  0.49029889  0.24401913  0.13174482  1
  O  O236  1  0.49789865  0.23272095  0.62407740  1
  O  O237  1  0.48762550  0.75242447  0.13711204  1
  O  O238  1  0.48790805  0.75419352  0.64010707  1
  O  O239  1  0.99462001  0.24148513  0.13169232  1
  O  O240  1  0.99742737  0.24134250  0.63130479  1
  O  O241  1  0.98810840  0.74854834  0.13301787  1
  O  O242  1  0.99463179  0.74172569  0.62819715  1
  O  O243  1  0.00486657  0.25762592  0.36745603  1
  O  O244  1  0.00821455  0.25253145  0.86747854  1
  O  O245  1  0.00592256  0.75907269  0.36825359  1
  O  O246  1  0.01236360  0.74821294  0.86404623  1
  O  O247  1  0.49732484  0.24461829  0.36660950  1
  O  O248  1  0.49952042  0.25268594  0.87174591  1
  O  O249  1  0.50428432  0.75074440  0.35841521  1
  O  O250  1  0.49628546  0.76186212  0.86750871  1
  O  O251  1  0.24909724  0.13311882  0.49555051  1
  O  O252  1  0.24224273  0.12037167  0.98785917  1
  O  O253  1  0.24034231  0.62155000  0.50548328  1
  O  O254  1  0.24200434  0.61936912  0.98686171  1
  O  O255  1  0.73776874  0.11953591  0.49375426  1
  O  O256  1  0.74839089  0.12380427  0.99046161  1
  O  O257  1  0.74318577  0.63424184  0.48737117  1
  O  O258  1  0.73305672  0.62425763  0.99575497  1
  O  O259  1  0.20405945  0.36618860  0.01326438  1
  O  O260  1  0.24050349  0.35848893  0.50300301  1
  O  O261  1  0.24801233  0.87858691  0.01448568  1
  O  O262  1  0.26127437  0.87731841  0.51108438  1
  O  O263  1  0.75125600  0.37583639  0.01681679  1
  O  O264  1  0.76979260  0.36100623  0.48367144  1
  O  O265  1  0.73934762  0.88182375  0.01428034  1
  O  O266  1  0.75806192  0.87552887  0.50448560  1
  O  O267  1  0.13353981  0.49771172  0.24292741  1
  O  O268  1  0.13235514  0.49168032  0.74594354  1
  O  O269  1  0.13331381  0.99556240  0.24583380  1
  O  O270  1  0.11937635  0.98709283  0.73925854  1
  O  O271  1  0.62733642  0.49612880  0.24755372  1
  O  O272  1  0.62262385  0.50097119  0.74195084  1
  O  O273  1  0.63184996  0.99186315  0.25589736  1
  O  O274  1  0.62205078  0.98585471  0.75188972  1
  O  O275  1  0.37029180  0.00244691  0.25980587  1
  O  O276  1  0.37937449  0.00610723  0.76396796  1
  O  O277  1  0.35786275  0.49157781  0.24684117  1
  O  O278  1  0.36956874  0.50621256  0.75613757  1
  O  O279  1  0.86674850  0.00886736  0.24457378  1
  O  O280  1  0.87192860  0.01825030  0.73737501  1
  O  O281  1  0.86792241  0.50988920  0.25440952  1
  O  O282  1  0.88243347  0.51349488  0.74713558  1
  O  O283  1  0.11871174  0.37415001  0.36658627  1
  O  O284  1  0.11915863  0.36520054  0.86208817  1
  O  O285  1  0.11999991  0.87009033  0.37102997  1
  O  O286  1  0.13023233  0.86519777  0.86383119  1
  O  O287  1  0.63964710  0.38654909  0.36928999  1
  O  O288  1  0.62303879  0.37482207  0.87482978  1
  O  O289  1  0.63044337  0.86316360  0.36499606  1
  O  O290  1  0.61629021  0.87214494  0.86833711  1
  O  O291  1  0.38385184  0.13533124  0.12916030  1
  O  O292  1  0.38229147  0.11559484  0.63594172  1
  O  O293  1  0.36933237  0.63866768  0.12319441  1
  O  O294  1  0.37048073  0.63271501  0.63721369  1
  O  O295  1  0.88185027  0.13134221  0.13463920  1
  O  O296  1  0.88141436  0.13165777  0.62562201  1
  O  O297  1  0.87329903  0.63842409  0.13009104  1
  O  O298  1  0.87719555  0.63015433  0.62734125  1
  O  O299  1  0.27017092  0.25024288  0.13262124  1
  O  O300  1  0.24859319  0.24456709  0.61555646  1
  O  O301  1  0.26570330  0.76006700  0.13290878  1
  O  O302  1  0.26352771  0.75707274  0.62779285  1
  O  O303  1  0.75763531  0.25850194  0.13003998  1
  O  O304  1  0.76363282  0.24738782  0.62286192  1
  O  O305  1  0.76078263  0.76190030  0.12834132  1
  O  O306  1  0.75865340  0.75913941  0.62226001  1
  O  O307  1  0.25038615  0.23806322  0.37906584  1
  O  O308  1  0.23676398  0.24094320  0.86963268  1
  O  O309  1  0.23672129  0.75712746  0.36839708  1
  O  O310  1  0.23893612  0.74110403  0.86919697  1
  O  O311  1  0.75388214  0.23226324  0.36519668  1
  O  O312  1  0.75419633  0.23489017  0.88098365  1
  O  O313  1  0.74094474  0.74530770  0.37427115  1
  O  O314  1  0.74843588  0.73480227  0.87548978  1
  O  O315  1  0.00437269  0.12355638  0.01285768  1
  O  O316  1  0.00759595  0.11785927  0.50218489  1
  O  O317  1  0.00756675  0.62766311  0.00648647  1
  O  O318  1  0.00419740  0.61721222  0.50466116  1
  O  O319  1  0.49941771  0.11767930  0.01024616  1
  O  O320  1  0.51091861  0.11866476  0.50471220  1
  O  O321  1  0.51524217  0.61244853  -0.00250703  1
  O  O322  1  0.50459899  0.62406070  0.49890271  1
  O  O323  1  0.48895749  0.37463569  0.49830484  1
  O  O324  1  0.50567242  0.39113613  1.00141938  1
  O  O325  1  0.48771510  0.88342656  0.50582416  1
  O  O326  1  0.49878641  0.88072515  0.99343332  1
  O  O327  1  1.00017471  0.37911931  0.48628912  1
  O  O328  1  1.00553099  0.37410447  0.98543936  1
  O  O329  1  0.99394620  0.88150430  0.49753802  1
  O  O330  1  1.01282812  0.87514246  0.99338767  1
  O  O331  1  0.49667364  0.49719134  0.39214400  1
  O  O332  1  0.48814812  0.50017324  0.88571825  1
  O  O333  1  0.48805659  1.00679559  0.38318278  1
  O  O334  1  0.49292483  0.98873481  0.87976915  1
  O  O335  1  0.99602941  0.49393451  0.37479478  1
  O  O336  1  0.99799338  0.48813195  0.87405797  1
  O  O337  1  1.00698217  0.99405108  0.38897353  1
  O  O338  1  0.99307556  0.99317800  0.87760067  1
  O  O339  1  0.01059786  0.00998837  0.12938764  1
  O  O340  1  0.01337631  0.00389060  0.61222765  1
  O  O341  1  0.00744660  0.51257529  0.12732673  1
  O  O342  1  0.00757903  0.50331418  0.61862017  1
  O  O343  1  0.49113507  0.01204092  0.11741694  1
  O  O344  1  0.49676551  0.01044770  0.61321822  1
  O  O345  1  0.50922971  0.49727977  0.12495418  1
  O  O346  1  0.50362747  0.49888969  0.60243359  1
  O  O347  1  0.23898637  0.37399693  0.24823175  1
  O  O348  1  0.24101381  0.38291744  0.75419914  1
  O  O349  1  0.24719030  0.88341701  0.24292295  1
  O  O350  1  0.23971089  0.86932394  0.73714502  1
  O  O351  1  0.74405309  0.38095287  0.24380453  1
  O  O352  1  0.75423910  0.37755898  0.74480818  1
  O  O353  1  0.74148231  0.88260387  0.24584255  1
  O  O354  1  0.73804187  0.87338860  0.74150006  1
  O  O355  1  0.25223904  0.11830630  0.25976977  1
  O  O356  1  0.25672016  0.12148415  0.76273597  1
  O  O357  1  0.24781549  0.61577572  0.24399455  1
  O  O358  1  0.25742723  0.61699997  0.76068498  1
  O  O359  1  0.75554419  0.11692713  0.25332840  1
  O  O360  1  0.75582950  0.12590696  0.75857674  1
  O  O361  1  0.75103007  0.62417086  0.25955640  1
  O  O362  1  0.75924366  0.62887530  0.75722592  1
  O  O363  1  0.36823998  0.11735291  0.37721985  1
  O  O364  1  0.36703020  0.11584478  0.87075757  1
  O  O365  1  0.37484183  0.61701150  0.36479491  1
  O  O366  1  0.36716177  0.61990763  0.87087574  1
  O  O367  1  0.87157113  0.12601121  0.36255879  1
  O  O368  1  0.86646459  0.12418903  0.86674679  1
  O  O369  1  0.86766479  0.62563887  0.37041468  1
  O  O370  1  0.86984482  0.62478972  0.86412749  1
  O  O371  1  0.10815791  0.39264157  0.14010954  1
  O  O372  1  0.11728745  0.37902821  0.63690569  1
  O  O373  1  0.13421695  0.87745836  0.13435314  1
  O  O374  1  0.13372670  0.87796561  0.62608660  1
  O  O375  1  0.63102386  0.38355800  0.13483953  1
  O  O376  1  0.63060057  0.37755139  0.62558518  1
  O  O377  1  0.63847611  0.86782771  0.13459447  1
  O  O378  1  0.63268627  0.86639693  0.63216134  1
  O  O379  1  0.11958722  0.25900028  0.24961044  1
  O  O380  1  0.12081572  0.25407472  0.75384858  1
  O  O381  1  0.11664952  0.75596269  0.25531160  1
  O  O382  1  0.12187249  0.74973818  0.75458559  1
  O  O383  1  0.61149409  0.26123916  0.25132050  1
  O  O384  1  0.62044088  0.25555889  0.75636168  1
  O  O385  1  0.61208417  0.75594056  0.25271429  1
  O  O386  1  0.61380156  0.75780186  0.75383186  1
  O  O387  1  0.38917518  0.25218452  0.25140311  1
  O  O388  1  0.37443637  0.23306110  0.75338658  1
  O  O389  1  0.38858961  0.75315734  0.24142729  1
  O  O390  1  0.37952358  0.74199248  0.74480054  1
  O  O391  1  0.88228169  0.24295050  0.24135791  1
  O  O392  1  0.88197690  0.23895611  0.74060030  1
  O  O393  1  0.88031923  0.74727368  0.24647343  1
  O  O394  1  0.88519038  0.74012972  0.73724198  1
  O  O395  1  0.38456860  0.49744571  0.49884317  1
  O  O396  1  0.38220907  0.50555301  0.99349351  1
  O  O397  1  0.38214872  0.99233259  0.49386019  1
  O  O398  1  0.38463349  0.99733367  0.98814530  1
  O  O399  1  0.88551377  0.49061984  0.49059893  1
  O  O400  1  0.88007294  0.49655131  0.99965839  1
  O  O401  1  0.88624604  0.99083391  0.50689646  1
  O  O402  1  0.87948417  0.99572501  1.00392963  1
  O  O403  1  0.12214558  0.01142438  0.00786736  1
  O  O404  1  0.12249439  0.00456954  0.50534736  1
  O  O405  1  0.11980032  0.51406920  0.00866089  1
  O  O406  1  0.12243361  0.50573759  0.50302394  1
  O  O407  1  0.60782118  0.00486628  -0.00465022  1
  O  O408  1  0.61247646  -0.00464983  0.49424856  1
  O  O409  1  0.61937563  0.50776918  0.01302924  1
  O  O410  1  0.60987609  0.51977938  0.49205070  1
  O  O411  1  0.37802019  0.35951220  0.12277850  1
  O  O412  1  0.36849181  0.38484851  0.60298406  1
  O  O413  1  0.36766316  0.86937447  0.12224851  1
  O  O414  1  0.36839267  0.86972380  0.62063106  1
  O  O415  1  0.86824222  0.36758045  0.12963325  1
  O  O416  1  0.87664955  0.36639349  0.61265673  1
  O  O417  1  0.86137810  0.86421243  0.12908775  1
  O  O418  1  0.86932557  0.86641204  0.62143103  1
  O  O419  1  0.13545243  0.12488472  0.38236743  1
  O  O420  1  0.13091520  0.12651265  0.87822255  1
  O  O421  1  0.12021222  0.63606112  0.38478349  1
  O  O422  1  0.13028796  0.62962057  0.88042085  1
  O  O423  1  0.63311455  0.12010454  0.39094505  1
  O  O424  1  0.63934331  0.12263867  0.87396906  1
  O  O425  1  0.63046292  0.63820943  0.37882820  1
  O  O426  1  0.62990776  0.62773988  0.88641615  1
