# generated using pymatgen
data_V85Zn86O256
_symmetry_space_group_name_H-M   'P 1'
_cell_length_a   16.97327649
_cell_length_b   16.96078822
_cell_length_c   16.96860506
_cell_angle_alpha   89.96002442
_cell_angle_beta   90.15040741
_cell_angle_gamma   89.92527055
_symmetry_Int_Tables_number   1
_chemical_formula_structural   V85Zn86O256
_chemical_formula_sum   'V85 Zn86 O256'
_cell_volume   4884.90234710
_cell_formula_units_Z   1
loop_
 _symmetry_equiv_pos_site_id
 _symmetry_equiv_pos_as_xyz
  1  'x, y, z'
loop_
 _atom_site_type_symbol
 _atom_site_label
 _atom_site_symmetry_multiplicity
 _atom_site_fract_x
 _atom_site_fract_y
 _atom_site_fract_z
 _atom_site_occupancy
  V  V0  1  0.37430926  0.00143731  0.88084067  1
  V  V1  1  0.25092774  0.87733150  0.62232374  1
  V  V2  1  0.87449746  0.62420455  0.25795799  1
  V  V3  1  0.62291409  0.62319366  0.50663205  1
  V  V4  1  0.49760887  0.87752113  0.88015226  1
  V  V5  1  0.24545054  0.12638546  0.87521069  1
  V  V6  1  0.37713411  0.62418995  0.75216019  1
  V  V7  1  -0.01866911  0.12580214  0.11952706  1
  V  V8  1  0.12233345  0.49658386  0.11910501  1
  V  V9  1  0.75490959  0.50988825  0.75075419  1
  V  V10  1  0.66787270  0.89573778  0.77524081  1
  V  V11  1  0.87303445  0.26678338  0.60795173  1
  V  V12  1  0.74889227  0.87023181  0.62291110  1
  V  V13  1  0.24920501  0.86977951  0.12031785  1
  V  V14  1  0.37569654  0.62469437  0.25012038  1
  V  V15  1  0.50827026  0.36957901  0.37658678  1
  V  V16  1  0.00008658  0.75382448  0.25315348  1
  V  V17  1  0.87242239  0.74821151  0.12435826  1
  V  V18  1  0.49730170  0.12523758  0.11241942  1
  V  V19  1  0.12355012  0.37276795  0.25069891  1
  V  V20  1  0.00806739  0.73880185  0.74443907  1
  V  V21  1  0.50743036  0.61920387  0.12547115  1
  V  V22  1  0.63613546  0.23677341  0.88136653  1
  V  V23  1  0.50809016  0.49334000  0.00204765  1
  V  V24  1  -0.01590709  0.24919955  0.24574844  1
  V  V25  1  0.49901974  0.25382237  0.76095464  1
  V  V26  1  0.24833060  0.25186999  0.00760584  1
  V  V27  1  0.62299956  0.74008175  0.87717293  1
  V  V28  1  0.49779467  0.75050257  0.24837896  1
  V  V29  1  0.62267717  0.87808944  0.24884609  1
  V  V30  1  0.51043024  0.24571613  0.25114459  1
  V  V31  1  0.75317538  0.74695718  0.49787287  1
  V  V32  1  0.74392841  0.14017991  0.37233426  1
  V  V33  1  0.12172840  0.26427940  0.86628893  1
  V  V34  1  0.91180707  0.06586578  0.30523354  1
  V  V35  1  0.11788027  0.12033491  0.50340044  1
  V  V36  1  0.62385643  0.75185733  0.37688279  1
  V  V37  1  0.62235061  0.37970457  0.23795337  1
  V  V38  1  -0.01188338  0.11987512  0.63044505  1
  V  V39  1  0.00166987  0.62438674  0.11955193  1
  V  V40  1  0.37793427  0.87711327  0.50110430  1
  V  V41  1  0.50051370  0.50000763  0.50794870  1
  V  V42  1  0.37167397  0.25052826  0.62867225  1
  V  V43  1  0.24762659  0.49817829  0.25224801  1
  V  V44  1  0.12348653  0.25159961  0.37519311  1
  V  V45  1  0.24771340  0.49839829  0.75400909  1
  V  V46  1  0.12446936  0.75365965  0.37707735  1
  V  V47  1  0.11966929  0.12886538  -0.00429572  1
  V  V48  1  -0.00282466  -0.00347194  -0.00869942  1
  V  V49  1  0.12450263  0.62686241  0.50396240  1
  V  V50  1  0.62726680  0.14082261  0.49511125  1
  V  V51  1  -0.00924322  0.37579174  0.38073967  1
  V  V52  1  0.37657222  0.37191775  0.00761572  1
  V  V53  1  0.11860258  0.50504187  0.63090660  1
  V  V54  1  -0.00326092  0.50163281  0.50158187  1
  V  V55  1  0.24682937  0.24990224  0.50238653  1
  V  V56  1  0.37860874  0.74987720  0.62445476  1
  V  V57  1  0.50049891  0.87664954  0.37657196  1
  V  V58  1  -0.01308243  0.26304289  0.75181421  1
  V  V59  1  0.88305795  0.73426604  0.62071953  1
  V  V60  1  0.93954217  0.43989938  -0.06592458  1
  V  V61  1  0.51050820  0.00089678  0.50363965  1
  V  V62  1  0.37562873  0.13454613  0.24717448  1
  V  V63  1  0.12447117  0.87557326  0.74920943  1
  V  V64  1  0.37885402  0.49284665  0.87801079  1
  V  V65  1  0.24086337  0.37568527  0.62951893  1
  V  V66  1  0.50350740  0.75622813  0.74979578  1
  V  V67  1  0.12573859  0.00192864  0.12109774  1
  V  V68  1  0.76286752  0.24682292  0.01054300  1
  V  V69  1  0.13826406  0.63536251  0.00446212  1
  V  V70  1  0.24661911  0.00193963  0.74826639  1
  V  V71  1  0.74347150  0.50361025  0.24199319  1
  V  V72  1  0.37471061  0.49761516  0.37561429  1
  V  V73  1  0.62189460  0.00451215  0.11250829  1
  V  V74  1  0.37618524  0.00262803  0.37508135  1
  V  V75  1  0.37027553  0.86584602  -0.00235565  1
  V  V76  1  0.49616759  0.12345392  0.62726913  1
  V  V77  1  0.74567864  0.00263546  0.25554393  1
  V  V78  1  0.88328396  0.88624275  0.49575646  1
  V  V79  1  0.74594049  0.74254694  -0.00005116  1
  V  V80  1  0.67614840  0.04570397  0.67280189  1
  V  V81  1  0.37294734  0.37487181  0.50033355  1
  V  V82  1  0.25430792  0.00106567  0.24728368  1
  V  V83  1  0.87492167  0.87095828  -0.00963230  1
  V  V84  1  0.62385056  0.38331699  0.75365134  1
  Zn  Zn85  1  -0.00217299  0.89229515  0.37512675  1
  Zn  Zn86  1  0.50278638  0.61912235  0.63040302  1
  Zn  Zn87  1  0.24938740  0.62705921  0.37571373  1
  Zn  Zn88  1  0.79761043  0.04874003  0.81448994  1
  Zn  Zn89  1  0.86220894  0.49261385  0.38450533  1
  Zn  Zn90  1  0.11491879  -0.00194750  0.61866444  1
  Zn  Zn91  1  0.74611160  0.62332914  0.37525403  1
  Zn  Zn92  1  -0.00366995  0.87461916  0.86529939  1
  Zn  Zn93  1  0.12457248  0.87803060  0.25120275  1
  Zn  Zn94  1  0.63112531  0.61379987  0.00478797  1
  Zn  Zn95  1  0.37110407  0.74577144  0.12001953  1
  Zn  Zn96  1  0.88570910  0.61874512  0.75212112  1
  Zn  Zn97  1  0.25664512  0.62991539  0.88332212  1
  Zn  Zn98  1  0.74967034  0.87813133  0.12593280  1
  Zn  Zn99  1  0.76162947  0.37245868  0.12049118  1
  Zn  Zn100  1  0.13203909  0.75458808  0.87889053  1
  Zn  Zn101  1  0.80194998  0.57939315  0.91052601  1
  Zn  Zn102  1  0.37243046  0.12655617  0.75219889  1
  Zn  Zn103  1  0.25218304  0.75008921  0.49819930  1
  Zn  Zn104  1  0.25154480  0.36886552  0.12976672  1
  Zn  Zn105  1  0.74113802  0.37959111  0.61166170  1
  Zn  Zn106  1  0.25099345  0.12643449  0.37747283  1
  Zn  Zn107  1  0.18107469  0.18532771  0.18582956  1
  Zn  Zn108  1  0.18012239  0.18543737  0.68888820  1
  Zn  Zn109  1  0.18761142  0.68814304  0.19134711  1
  Zn  Zn110  1  0.19377984  0.68684065  0.68853283  1
  Zn  Zn111  1  0.68974655  0.18380904  0.18096255  1
  Zn  Zn112  1  0.69008278  0.21410878  0.68706490  1
  Zn  Zn113  1  0.68802132  0.68800202  0.18774696  1
  Zn  Zn114  1  0.68781856  0.68882614  0.68801144  1
  Zn  Zn115  1  0.31368299  0.31141599  0.31422970  1
  Zn  Zn116  1  0.30991130  0.31438968  0.81632735  1
  Zn  Zn117  1  0.31210449  0.81420458  0.31167789  1
  Zn  Zn118  1  0.31023441  0.80951397  0.81198791  1
  Zn  Zn119  1  0.80767224  0.31762666  0.30829479  1
  Zn  Zn120  1  0.80784820  0.32049685  0.81683923  1
  Zn  Zn121  1  0.81218270  0.81553914  0.31455158  1
  Zn  Zn122  1  0.82495964  0.77168933  0.82284599  1
  Zn  Zn123  1  0.18324197  0.43775215  0.44006021  1
  Zn  Zn124  1  0.18819880  0.43986182  0.94060873  1
  Zn  Zn125  1  0.18744289  0.93851301  0.43515766  1
  Zn  Zn126  1  0.18670168  0.93846808  0.93571507  1
  Zn  Zn127  1  0.68457025  0.43827902  0.43264659  1
  Zn  Zn128  1  0.68601821  0.42523423  0.93227880  1
  Zn  Zn129  1  0.69181010  0.94152385  0.43760083  1
  Zn  Zn130  1  0.68871386  0.93019936  0.94418941  1
  Zn  Zn131  1  0.31411230  0.06224423  0.06048246  1
  Zn  Zn132  1  0.31297869  0.06340156  0.56058886  1
  Zn  Zn133  1  0.31526653  0.55597415  0.06840110  1
  Zn  Zn134  1  0.31030647  0.56383127  0.56459538  1
  Zn  Zn135  1  0.82828840  0.08050700  -0.00036105  1
  Zn  Zn136  1  0.81759677  0.07039674  0.55334893  1
  Zn  Zn137  1  0.84191364  0.52313828  0.08177449  1
  Zn  Zn138  1  0.79239734  0.53322436  0.55186852  1
  Zn  Zn139  1  0.43810024  0.43541495  0.18575469  1
  Zn  Zn140  1  0.43507143  0.43320522  0.68982702  1
  Zn  Zn141  1  0.43739805  0.94073448  0.18306081  1
  Zn  Zn142  1  0.43699522  0.93972675  0.69177747  1
  Zn  Zn143  1  0.93926427  0.43740584  0.19463968  1
  Zn  Zn144  1  0.93749777  0.43975796  0.69417476  1
  Zn  Zn145  1  0.93900081  0.93356143  0.17634576  1
  Zn  Zn146  1  0.92864298  0.93092781  0.68643624  1
  Zn  Zn147  1  0.07626125  0.06913346  0.30733483  1
  Zn  Zn148  1  -0.04352978  0.06579566  0.81217116  1
  Zn  Zn149  1  0.06186509  0.56480398  0.31491897  1
  Zn  Zn150  1  0.06731048  0.56063708  0.81984212  1
  Zn  Zn151  1  0.56311923  0.06478726  0.31469393  1
  Zn  Zn152  1  0.55709536  0.06464810  0.81791228  1
  Zn  Zn153  1  0.56236457  0.56012393  0.31859492  1
  Zn  Zn154  1  0.55843560  0.56079172  0.81729959  1
  Zn  Zn155  1  0.43736372  0.18871290  0.43748613  1
  Zn  Zn156  1  0.43198125  0.18981355  0.93784283  1
  Zn  Zn157  1  0.43773723  0.68700578  0.43705339  1
  Zn  Zn158  1  0.43884415  0.68343390  0.93836077  1
  Zn  Zn159  1  0.93903989  0.19122108  0.44228172  1
  Zn  Zn160  1  0.93176458  0.19642162  0.92787804  1
  Zn  Zn161  1  0.94208548  0.68754041  0.43949909  1
  Zn  Zn162  1  0.94829357  0.68853073  0.93452012  1
  Zn  Zn163  1  0.05334055  0.31367481  0.06105294  1
  Zn  Zn164  1  0.05836369  0.31339496  0.56546909  1
  Zn  Zn165  1  0.06187279  0.81311161  0.06511112  1
  Zn  Zn166  1  0.06103355  0.81326051  0.56259857  1
  Zn  Zn167  1  0.56032032  0.30748579  0.06046284  1
  Zn  Zn168  1  0.55861719  0.31453434  0.57015051  1
  Zn  Zn169  1  0.55794748  0.81213259  0.06323562  1
  Zn  Zn170  1  0.56954698  0.81571325  0.56920415  1
  O  O171  1  0.11808541  0.11925377  0.11284888  1
  O  O172  1  0.11231380  0.12475718  0.61809301  1
  O  O173  1  0.12209429  0.62181321  0.12011325  1
  O  O174  1  0.13424966  0.61537469  0.61659868  1
  O  O175  1  0.61142492  0.11222269  0.13033847  1
  O  O176  1  0.62061934  0.12203228  0.61962182  1
  O  O177  1  0.61065880  0.63093283  0.12466364  1
  O  O178  1  0.61920277  0.63555249  0.61063320  1
  O  O179  1  0.38240079  0.37827945  0.38192446  1
  O  O180  1  0.36702062  0.38649718  0.88705001  1
  O  O181  1  0.38150553  0.88132787  0.38114265  1
  O  O182  1  0.37730954  0.88003640  0.88030796  1
  O  O183  1  0.88714473  0.37673695  0.37000047  1
  O  O184  1  0.88086746  0.37478789  0.88381276  1
  O  O185  1  0.87838996  0.86964782  0.39076131  1
  O  O186  1  0.87751241  0.86004709  0.88787442  1
  O  O187  1  0.25546903  0.00377221  0.36469306  1
  O  O188  1  0.25293870  0.00651563  0.86672083  1
  O  O189  1  0.25400333  0.49842274  0.36605989  1
  O  O190  1  0.25537976  0.50483956  0.86872693  1
  O  O191  1  0.74866088  0.00716255  0.36199405  1
  O  O192  1  0.71987639  -0.03193089  0.84313982  1
  O  O193  1  0.74869929  0.50639477  0.35998733  1
  O  O194  1  0.73705475  0.50012906  0.86030984  1
  O  O195  1  0.24219282  0.49717990  0.13958812  1
  O  O196  1  0.24306759  0.49305851  0.63163466  1
  O  O197  1  0.24685886  0.99378253  0.12993068  1
  O  O198  1  0.25440009  0.99005308  0.62997411  1
  O  O199  1  0.74157441  0.51299229  0.13980762  1
  O  O200  1  0.73825936  0.49980161  0.64867150  1
  O  O201  1  0.72837112  0.99895616  0.14021008  1
  O  O202  1  0.74789254  0.99423443  0.61834208  1
  O  O203  1  0.00668530  0.36714898  0.25752331  1
  O  O204  1  0.00512124  0.36040988  0.74457494  1
  O  O205  1  -0.00096841  0.86411013  0.25022818  1
  O  O206  1  0.01202898  0.86814584  0.74378647  1
  O  O207  1  0.50216517  0.36741277  0.25650648  1
  O  O208  1  0.50811870  0.36368398  0.74347646  1
  O  O209  1  0.50417956  0.87193261  0.25481576  1
  O  O210  1  0.49289863  0.86423930  0.76137551  1
  O  O211  1  0.49341846  0.13139857  0.24896942  1
  O  O212  1  0.49523437  0.13049807  0.74105070  1
  O  O213  1  0.49340506  0.62724191  0.24620434  1
  O  O214  1  0.49629976  0.63666657  0.74978374  1
  O  O215  1  0.98651096  0.12726164  0.24436603  1
  O  O216  1  1.00227330  0.14011755  0.73442601  1
  O  O217  1  0.99498495  0.63725090  0.24643091  1
  O  O218  1  1.00670504  0.63503494  0.75204005  1
  O  O219  1  0.36085383  0.25979508  -0.00673937  1
  O  O220  1  0.36752065  0.25505118  0.50703282  1
  O  O221  1  0.37611023  0.76132657  -0.00024173  1
  O  O222  1  0.37572403  0.75792942  0.50575383  1
  O  O223  1  0.86307566  0.24927126  0.00045643  1
  O  O224  1  0.88098217  0.26266982  0.50912166  1
  O  O225  1  0.87009580  0.75090705  0.00915853  1
  O  O226  1  0.86901808  0.75216903  0.50372867  1
  O  O227  1  0.12720074  0.24431570  0.49424282  1
  O  O228  1  0.12609855  0.24601080  0.99233520  1
  O  O229  1  0.12714618  0.74519076  0.49400732  1
  O  O230  1  0.12714554  0.73839477  1.00515396  1
  O  O231  1  0.61786672  0.23941132  0.50458742  1
  O  O232  1  0.61545262  0.24914861  0.98060506  1
  O  O233  1  0.63303104  0.74790348  0.49601240  1
  O  O234  1  0.63053384  0.75082055  0.99603935  1
  O  O235  1  0.50249136  0.23242034  0.13349613  1
  O  O236  1  0.49207506  0.23885203  0.63232458  1
  O  O237  1  0.49326315  0.74267707  0.13252547  1
  O  O238  1  0.49513017  0.75429147  0.63432648  1
  O  O239  1  1.00644484  0.23732629  0.13515552  1
  O  O240  1  0.98973286  0.24833504  0.63378406  1
  O  O241  1  0.99371411  0.74428948  0.13389026  1
  O  O242  1  0.99407735  0.74825739  0.62838145  1
  O  O243  1  0.00528949  0.25541973  0.36834541  1
  O  O244  1  0.00993807  0.24553050  0.86102906  1
  O  O245  1  0.01056419  0.75230664  0.36864511  1
  O  O246  1  0.01440813  0.75544063  0.86235827  1
  O  O247  1  0.49347054  0.25895681  0.36541409  1
  O  O248  1  0.49952897  0.24283381  0.86276490  1
  O  O249  1  0.50360972  0.75801697  0.36925808  1
  O  O250  1  0.50352085  0.75639307  0.86975458  1
  O  O251  1  0.24179490  0.13430485  0.50150249  1
  O  O252  1  0.24270522  0.13224301  0.99694428  1
  O  O253  1  0.24082218  0.62770138  0.49597605  1
  O  O254  1  0.24102344  0.62445753  1.00865042  1
  O  O255  1  0.74020028  0.12058176  0.48369238  1
  O  O256  1  0.73878660  0.14614264  1.00586657  1
  O  O257  1  0.74044806  0.62968568  0.49789489  1
  O  O258  1  0.74735246  0.63719105  1.00059310  1
  O  O259  1  0.25422561  0.36806005  0.00462760  1
  O  O260  1  0.25281988  0.36989823  0.50750078  1
  O  O261  1  0.25601614  0.87901009  0.00882099  1
  O  O262  1  0.25739810  0.87639655  0.50675929  1
  O  O263  1  0.73411281  0.35419234  0.00561826  1
  O  O264  1  0.76191340  0.42633619  0.50990792  1
  O  O265  1  0.75870671  0.86385734  0.00729186  1
  O  O266  1  0.75530453  0.86633048  0.50413626  1
  O  O267  1  0.13263313  0.49595304  0.24771993  1
  O  O268  1  0.13599636  0.50779867  0.74249453  1
  O  O269  1  0.13719649  1.00120237  0.24051360  1
  O  O270  1  0.14021027  0.99098305  0.74048616  1
  O  O271  1  0.62851772  0.49168052  0.25440107  1
  O  O272  1  0.61717770  0.48619216  0.75341993  1
  O  O273  1  0.62604116  0.98907359  0.25232454  1
  O  O274  1  0.61186513  0.99234302  0.73629019  1
  O  O275  1  0.37088566  0.00829994  0.25515499  1
  O  O276  1  0.36253172  -0.00059802  0.76056181  1
  O  O277  1  0.36813145  0.50440901  0.25488134  1
  O  O278  1  0.37251572  0.50286406  0.75925574  1
  O  O279  1  0.86325285  -0.00234648  0.24036897  1
  O  O280  1  0.88175586  0.00495095  0.75241804  1
  O  O281  1  0.86716528  0.51159236  0.25685502  1
  O  O282  1  0.86163584  0.50397588  0.75082048  1
  O  O283  1  0.11793056  0.36511471  0.37176014  1
  O  O284  1  0.12916571  0.36200894  0.87851927  1
  O  O285  1  0.11799131  0.87087715  0.37283147  1
  O  O286  1  0.12803975  0.87667077  0.85808207  1
  O  O287  1  0.61155310  0.37684623  0.36713493  1
  O  O288  1  0.62134629  0.36005218  0.85841090  1
  O  O289  1  0.61947527  0.87165826  0.36966380  1
  O  O290  1  0.61278005  0.86681199  0.87186375  1
  O  O291  1  0.38859201  0.11454511  0.13420919  1
  O  O292  1  0.38055167  0.13251285  0.62674914  1
  O  O293  1  0.38087434  0.62488817  0.13738132  1
  O  O294  1  0.37865893  0.63288855  0.63126742  1
  O  O295  1  0.88425046  0.11685723  0.10926726  1
  O  O296  1  0.88510441  0.13962145  0.61572373  1
  O  O297  1  0.88503155  0.63042334  0.13540345  1
  O  O298  1  0.86839679  0.63511902  0.62740903  1
  O  O299  1  0.24165608  0.24918517  0.11177900  1
  O  O300  1  0.25029712  0.25753984  0.62440123  1
  O  O301  1  0.25288590  0.76628506  0.13617975  1
  O  O302  1  0.26015854  0.76237498  0.62382600  1
  O  O303  1  0.74946992  0.25444139  0.11737858  1
  O  O304  1  0.76849986  0.25679720  0.62120173  1
  O  O305  1  0.75765934  0.75157434  0.12026004  1
  O  O306  1  0.75640713  0.75332714  0.61296011  1
  O  O307  1  0.24025910  0.24968237  0.38150152  1
  O  O308  1  0.23764801  0.24588812  0.88067544  1
  O  O309  1  0.23693102  0.75298363  0.37479828  1
  O  O310  1  0.24322972  0.74078105  0.86578681  1
  O  O311  1  0.75061843  0.23905544  0.36867247  1
  O  O312  1  0.74051739  0.25027957  0.88236459  1
  O  O313  1  0.74445687  0.74937381  0.38573173  1
  O  O314  1  0.73253017  0.76034980  0.88762330  1
  O  O315  1  0.00430003  0.11938377  0.00229358  1
  O  O316  1  0.00745059  0.13334425  0.51449835  1
  O  O317  1  0.01180284  0.63210604  0.01530044  1
  O  O318  1  0.01748079  0.61943027  0.49543641  1
  O  O319  1  0.49057563  0.12581249  0.01408925  1
  O  O320  1  0.50549934  0.12046344  0.50651890  1
  O  O321  1  0.49890727  0.61452732  0.01080405  1
  O  O322  1  0.50340158  0.61668634  0.50198747  1
  O  O323  1  0.49558508  0.37968565  0.49485779  1
  O  O324  1  0.48911409  0.38115652  1.00621093  1
  O  O325  1  0.49953107  0.88376217  0.49962283  1
  O  O326  1  0.49000842  0.87190667  0.98723273  1
  O  O327  1  1.00820357  0.38648068  0.49073890  1
  O  O328  1  0.99997663  0.39126031  1.00063930  1
  O  O329  1  0.98790069  0.87717911  0.49831858  1
  O  O330  1  0.99413254  0.88033988  0.99980174  1
  O  O331  1  0.49119128  0.49068590  0.38381185  1
  O  O332  1  0.48830372  0.50177682  0.88744071  1
  O  O333  1  0.49606909  0.99597731  0.38400043  1
  O  O334  1  0.48754271  0.99002500  0.86852374  1
  O  O335  1  1.00285692  0.49074562  0.38275630  1
  O  O336  1  0.99671011  0.48875049  0.86664709  1
  O  O337  1  0.98849295  1.00994979  0.35439955  1
  O  O338  1  1.00757912  0.99377652  0.88840806  1
  O  O339  1  0.00729947  0.00640147  0.11560916  1
  O  O340  1  -0.00328925  0.01704058  0.62762940  1
  O  O341  1  0.01418289  0.51493163  0.14154408  1
  O  O342  1  0.01282517  0.49398919  0.62035321  1
  O  O343  1  0.51137002  0.01097723  0.13035819  1
  O  O344  1  0.49081600  0.01309549  0.61770760  1
  O  O345  1  0.49394269  0.50833508  0.11629528  1
  O  O346  1  0.49238153  0.49833011  0.61184905  1
  O  O347  1  0.24338704  0.38004600  0.25064491  1
  O  O348  1  0.25574956  0.38854155  0.74255091  1
  O  O349  1  0.25255766  0.88906425  0.24334159  1
  O  O350  1  0.24646051  0.88076489  0.73980696  1
  O  O351  1  0.73898533  0.38434435  0.24422215  1
  O  O352  1  0.73695051  0.38470358  0.75028171  1
  O  O353  1  0.74001107  0.88053563  0.24888119  1
  O  O354  1  0.75684167  0.85384795  0.73993705  1
  O  O355  1  0.25743209  0.11704307  0.24699656  1
  O  O356  1  0.24939729  0.11729557  0.75401812  1
  O  O357  1  0.25794362  0.61683415  0.25259063  1
  O  O358  1  0.26141483  0.61203719  0.74726663  1
  O  O359  1  0.74449455  0.11852706  0.26146761  1
  O  O360  1  0.73004924  0.10925362  0.73218120  1
  O  O361  1  0.75796444  0.62465335  0.25341490  1
  O  O362  1  0.74589305  0.61414047  0.75176247  1
  O  O363  1  0.37280939  0.12006488  0.36677981  1
  O  O364  1  0.36543247  0.11716446  0.87443548  1
  O  O365  1  0.37403959  0.61874461  0.36478976  1
  O  O366  1  0.37498674  0.61381932  0.87028447  1
  O  O367  1  0.86516155  0.12734971  0.37734576  1
  O  O368  1  0.87039759  0.10770396  0.88719700  1
  O  O369  1  0.87577298  0.62948101  0.36403697  1
  O  O370  1  0.86660990  0.65942688  0.86116919  1
  O  O371  1  0.12377833  0.38249134  0.13275097  1
  O  O372  1  0.13653599  0.38318832  0.62035960  1
  O  O373  1  0.13252733  0.88285409  0.12700808  1
  O  O374  1  0.13446703  0.87898574  0.62743066  1
  O  O375  1  0.61744012  0.37327646  0.13726806  1
  O  O376  1  0.62961583  0.35895177  0.64546428  1
  O  O377  1  0.61935453  0.88556934  0.13333545  1
  O  O378  1  0.64472514  0.87361602  0.63765259  1
  O  O379  1  0.11761704  0.25084840  0.25941480  1
  O  O380  1  0.12050731  0.24985660  0.76323833  1
  O  O381  1  0.11651454  0.75288410  0.25735605  1
  O  O382  1  0.12143565  0.75901200  0.74082072  1
  O  O383  1  0.61373634  0.25595930  0.24812231  1
  O  O384  1  0.61579824  0.25329633  0.76109471  1
  O  O385  1  0.61967178  0.76150022  0.25418601  1
  O  O386  1  0.61912928  0.75665870  0.76023324  1
  O  O387  1  0.37973363  0.23828325  0.25146922  1
  O  O388  1  0.37989693  0.25129033  0.74646257  1
  O  O389  1  0.38021392  0.74060623  0.25154021  1
  O  O390  1  0.38356176  0.74481488  0.74387953  1
  O  O391  1  0.88520230  0.25685954  0.24760115  1
  O  O392  1  0.88439620  0.25585896  0.75087443  1
  O  O393  1  0.87944350  0.74630697  0.24413095  1
  O  O394  1  0.89323774  0.75313942  0.73386295  1
  O  O395  1  0.37814244  0.49487868  0.49465274  1
  O  O396  1  0.37893336  0.49219522  0.99528305  1
  O  O397  1  0.38440529  0.99681238  0.49366269  1
  O  O398  1  0.36777819  0.98989184  0.98581232  1
  O  O399  1  0.89539388  0.51996503  0.49661327  1
  O  O400  1  0.87911218  0.51962129  0.97524080  1
  O  O401  1  0.87093988  0.98426190  0.50032072  1
  O  O402  1  0.88494308  0.98305692  1.00749184  1
  O  O403  1  0.11924140  0.00760267  0.00327041  1
  O  O404  1  0.12985397  0.01622804  0.49913861  1
  O  O405  1  0.13222700  0.51032218  0.01588456  1
  O  O406  1  0.11992454  0.50837143  0.50769158  1
  O  O407  1  0.62644723  -0.00434906  0.01440878  1
  O  O408  1  0.61365066  0.00735374  0.49770399  1
  O  O409  1  0.61132591  0.49633655  -0.00665474  1
  O  O410  1  0.61042801  0.51212392  0.49125032  1
  O  O411  1  0.36908008  0.37791556  0.11325405  1
  O  O412  1  0.36344281  0.37011023  0.61888048  1
  O  O413  1  0.36852769  0.87681716  0.11412389  1
  O  O414  1  0.37060426  0.87131107  0.62018326  1
  O  O415  1  0.86658750  0.41506791  0.11600645  1
  O  O416  1  0.87641906  0.36722748  0.62703779  1
  O  O417  1  0.87441498  0.85884090  0.11737228  1
  O  O418  1  0.86700102  0.86505445  0.61090785  1
  O  O419  1  0.12606103  0.13785007  0.38294591  1
  O  O420  1  0.12985725  0.13401981  0.88933737  1
  O  O421  1  0.12815981  0.63553935  0.38107411  1
  O  O422  1  0.12724904  0.62148584  0.89862823  1
  O  O423  1  0.63373398  0.12751499  0.38130846  1
  O  O424  1  0.62543427  0.13723490  0.86907223  1
  O  O425  1  0.62069187  0.63656331  0.38588887  1
  O  O426  1  0.61581205  0.63729227  0.88274320  1
