# generated using pymatgen
data_V85Zn86O256
_symmetry_space_group_name_H-M   'P 1'
_cell_length_a   16.92585518
_cell_length_b   16.92622713
_cell_length_c   16.92320041
_cell_angle_alpha   90.07045643
_cell_angle_beta   90.00996163
_cell_angle_gamma   89.97719514
_symmetry_Int_Tables_number   1
_chemical_formula_structural   V85Zn86O256
_chemical_formula_sum   'V85 Zn86 O256'
_cell_volume   4848.33827209
_cell_formula_units_Z   1
loop_
 _symmetry_equiv_pos_site_id
 _symmetry_equiv_pos_as_xyz
  1  'x, y, z'
loop_
 _atom_site_type_symbol
 _atom_site_label
 _atom_site_symmetry_multiplicity
 _atom_site_fract_x
 _atom_site_fract_y
 _atom_site_fract_z
 _atom_site_occupancy
  V  V0  1  0.38792452  0.74943647  0.62581491  1
  V  V1  1  0.75017216  0.88096439  0.62527497  1
  V  V2  1  0.24797622  0.38465314  0.12439502  1
  V  V3  1  -0.00120506  0.62376854  0.12349260  1
  V  V4  1  0.24977195  0.87212700  0.62547756  1
  V  V5  1  0.61942995  0.87535080  0.74309418  1
  V  V6  1  -0.00507230  0.62869375  0.62324578  1
  V  V7  1  0.87608895  -0.00276040  0.86817656  1
  V  V8  1  0.62567086  0.49855834  0.12499041  1
  V  V9  1  0.86922886  0.87688137  -0.00707189  1
  V  V10  1  0.62555073  0.12202156  0.51227715  1
  V  V11  1  0.86962724  0.24742896  0.12145488  1
  V  V12  1  0.49285551  0.00381293  -0.00883591  1
  V  V13  1  0.12512637  0.38283638  0.24953534  1
  V  V14  1  0.37923195  0.38048068  0.50127697  1
  V  V15  1  0.87815269  0.50230511  0.87122831  1
  V  V16  1  0.75941031  0.75003435  0.50623404  1
  V  V17  1  0.35872872  0.62006259  0.25475381  1
  V  V18  1  0.38100514  0.11950318  0.74968849  1
  V  V19  1  0.25088465  0.24364987  0.49837359  1
  V  V20  1  0.62360858  0.61332249  0.50202717  1
  V  V21  1  0.62395337  0.75233687  0.37750947  1
  V  V22  1  0.24862202  0.25001716  -0.00278694  1
  V  V23  1  0.37773337  0.87676887  0.49680066  1
  V  V24  1  0.50061384  0.62597948  0.13126800  1
  V  V25  1  0.87815491  0.12875025  0.74170986  1
  V  V26  1  0.74829338  0.37003171  0.11480269  1
  V  V27  1  0.49437998  0.86719295  0.87204598  1
  V  V28  1  0.37393810  0.25102679  0.12656958  1
  V  V29  1  0.62114865  -0.00295272  0.12236387  1
  V  V30  1  0.74289849  0.49613002  0.73960294  1
  V  V31  1  0.87381557  0.62355406  0.25093628  1
  V  V32  1  0.00172524  -0.00365385  -0.01003216  1
  V  V33  1  0.87291537  0.37038860  0.51368404  1
  V  V34  1  0.62052227  0.88081619  0.24850665  1
  V  V35  1  0.25116879  0.12154383  0.87436207  1
  V  V36  1  0.37579423  0.37584470  -0.00105581  1
  V  V37  1  0.75264573  0.12910561  0.87911712  1
  V  V38  1  0.50368505  0.00597827  0.51242833  1
  V  V39  1  -0.00061525  0.26286915  0.74441419  1
  V  V40  1  0.62850701  0.62919101  -0.00049024  1
  V  V41  1  0.50419136  0.38189300  0.38204593  1
  V  V42  1  0.12799379  0.75235800  0.37587889  1
  V  V43  1  0.86674769  0.74970688  0.12533828  1
  V  V44  1  0.11692132  -0.00004012  0.62073303  1
  V  V45  1  0.38045497  0.62896166  0.74915158  1
  V  V46  1  0.12905334  -0.00395625  0.12681889  1
  V  V47  1  0.63135732  0.24508446  0.37554598  1
  V  V48  1  0.88170495  0.37241403  -0.00618079  1
  V  V49  1  0.50181251  0.49976893  -0.00053626  1
  V  V50  1  0.76150929  0.11187385  0.36385190  1
  V  V51  1  0.37488262  0.75468210  0.12697683  1
  V  V52  1  -0.00492062  0.24445792  0.24875726  1
  V  V53  1  0.25239480  -0.00193131  0.75311164  1
  V  V54  1  0.12944291  0.62086843  0.49702279  1
  V  V55  1  -0.00440449  0.37222464  0.37496742  1
  V  V56  1  0.12018124  0.11982042  0.49653155  1
  V  V57  1  0.75004800  0.49666881  0.25037501  1
  V  V58  1  0.75445762  0.25056996  0.51417666  1
  V  V59  1  0.25380178  0.74304231  0.49762287  1
  V  V60  1  0.50580049  0.60861132  0.62285527  1
  V  V61  1  0.87337217  0.49626594  0.37516960  1
  V  V62  1  0.38123832  0.24090415  0.62540649  1
  V  V63  1  0.87957911  0.89222829  0.50139102  1
  V  V64  1  0.24740561  0.37100424  0.63195568  1
  V  V65  1  0.74860406  0.62195100  0.37664607  1
  V  V66  1  0.12466515  0.49661331  0.63247439  1
  V  V67  1  0.37642898  0.50122670  0.87275637  1
  V  V68  1  0.50305659  0.37279733  0.86889923  1
  V  V69  1  -0.00295695  0.12581831  0.12207602  1
  V  V70  1  0.35865990  0.12783665  0.25650133  1
  V  V71  1  0.12315308  0.62514382  -0.00175052  1
  V  V72  1  0.11755029  0.75411593  0.87306316  1
  V  V73  1  -0.00928392  0.75247049  0.74707543  1
  V  V74  1  -0.00070557  0.88456853  0.37807945  1
  V  V75  1  0.12933877  0.24532471  0.37316367  1
  V  V76  1  0.11888927  0.26385299  0.86983618  1
  V  V77  1  0.25033823  0.75254530  -0.00057252  1
  V  V78  1  0.63152456  0.25198836  0.87946656  1
  V  V79  1  0.11818033  0.87642916  0.75229618  1
  V  V80  1  0.00434189  0.75116244  0.25353389  1
  V  V81  1  0.79872808  0.93245417  0.18191527  1
  V  V82  1  0.25086591  0.62628047  0.87059629  1
  V  V83  1  0.49786160  0.24509767  0.25203331  1
  V  V84  1  0.62522326  0.37153808  0.25114193  1
  Zn  Zn85  1  0.37035948  0.88118950  -0.00365989  1
  Zn  Zn86  1  0.37143613  0.01167121  0.38115086  1
  Zn  Zn87  1  0.62956623  0.37179451  0.73737933  1
  Zn  Zn88  1  0.86851475  0.63026688  0.74515260  1
  Zn  Zn89  1  0.24352056  0.87254091  0.13169034  1
  Zn  Zn90  1  0.12715085  0.50526384  0.12868128  1
  Zn  Zn91  1  -0.00359163  0.12730607  0.62150458  1
  Zn  Zn92  1  0.62766261  0.12719815  0.00126401  1
  Zn  Zn93  1  0.49916100  0.12329444  0.12550623  1
  Zn  Zn94  1  0.12314781  0.12551444  -0.00435952  1
  Zn  Zn95  1  0.74789383  0.62741502  0.86921968  1
  Zn  Zn96  1  0.24750895  0.49557685  0.75199594  1
  Zn  Zn97  1  0.24126420  -0.00928506  0.26672608  1
  Zn  Zn98  1  0.00000316  0.49703509  0.50132228  1
  Zn  Zn99  1  0.62613290  0.75029716  0.87065559  1
  Zn  Zn100  1  0.00302643  0.49709960  -0.00668263  1
  Zn  Zn101  1  0.36516602  0.50737782  0.37792547  1
  Zn  Zn102  1  0.49757600  0.75172337  0.25400785  1
  Zn  Zn103  1  0.74466621  0.75848301  -0.00069471  1
  Zn  Zn104  1  0.74405599  0.00498192  0.74419911  1
  Zn  Zn105  1  0.50478677  0.24074644  0.74810682  1
  Zn  Zn106  1  0.50098403  0.88244706  0.37596393  1
  Zn  Zn107  1  0.18201783  0.19106830  0.18286538  1
  Zn  Zn108  1  0.18567845  0.18600368  0.68781499  1
  Zn  Zn109  1  0.18634591  0.69082146  0.18772324  1
  Zn  Zn110  1  0.18734245  0.68633940  0.68464412  1
  Zn  Zn111  1  0.68763678  0.18251135  0.18701762  1
  Zn  Zn112  1  0.68797276  0.18910449  0.69387673  1
  Zn  Zn113  1  0.68573364  0.69046691  0.18989326  1
  Zn  Zn114  1  0.68610971  0.69173363  0.68723316  1
  Zn  Zn115  1  0.29767896  0.34630039  0.32696320  1
  Zn  Zn116  1  0.31513590  0.30849643  0.81178987  1
  Zn  Zn117  1  0.31020641  0.81327507  0.31179727  1
  Zn  Zn118  1  0.31250307  0.81142233  0.81155017  1
  Zn  Zn119  1  0.81097396  0.30712969  0.31026151  1
  Zn  Zn120  1  0.81470113  0.31501999  0.80931276  1
  Zn  Zn121  1  0.81569284  0.81018538  0.32198235  1
  Zn  Zn122  1  0.80568326  0.81428150  0.81405120  1
  Zn  Zn123  1  0.18988064  0.43544304  0.44228192  1
  Zn  Zn124  1  0.18825664  0.44043455  0.93716119  1
  Zn  Zn125  1  0.19082666  0.93554266  0.43696934  1
  Zn  Zn126  1  0.18644152  0.93699667  0.93711439  1
  Zn  Zn127  1  0.68685150  0.43304959  0.56188704  1
  Zn  Zn128  1  0.69122418  0.44089011  0.93207190  1
  Zn  Zn129  1  0.68767774  0.93912567  0.43854624  1
  Zn  Zn130  1  0.68507950  0.94030946  0.93206525  1
  Zn  Zn131  1  0.31391507  0.06674550  0.06460935  1
  Zn  Zn132  1  0.30643010  0.06045835  0.56287782  1
  Zn  Zn133  1  0.31414214  0.56625835  0.06249079  1
  Zn  Zn134  1  0.31267016  0.56007682  0.56565187  1
  Zn  Zn135  1  0.81547429  0.06721580  0.05644433  1
  Zn  Zn136  1  0.80838095  0.06538569  0.56034590  1
  Zn  Zn137  1  0.81255030  0.55927862  0.05981895  1
  Zn  Zn138  1  0.81587241  0.56323593  0.56005190  1
  Zn  Zn139  1  0.43786461  0.43656681  0.19094899  1
  Zn  Zn140  1  0.43542589  0.43531852  0.68716805  1
  Zn  Zn141  1  0.43550974  0.94101092  0.18899248  1
  Zn  Zn142  1  0.43761905  0.93754266  0.68777281  1
  Zn  Zn143  1  0.93762970  0.43512893  0.18447285  1
  Zn  Zn144  1  0.93836309  0.44260030  0.69035359  1
  Zn  Zn145  1  0.96347706  0.93444085  0.18614099  1
  Zn  Zn146  1  0.93478077  0.93610239  0.68374881  1
  Zn  Zn147  1  0.06231137  0.06626526  0.30975223  1
  Zn  Zn148  1  0.06416247  0.06864195  0.81075682  1
  Zn  Zn149  1  0.06248723  0.56358203  0.31614921  1
  Zn  Zn150  1  0.05937114  0.56475613  0.81020193  1
  Zn  Zn151  1  0.56068228  0.06190708  0.32025531  1
  Zn  Zn152  1  0.56662841  0.05828417  0.81398497  1
  Zn  Zn153  1  0.56157557  0.56025559  0.31473801  1
  Zn  Zn154  1  0.56294843  0.56435399  0.80985801  1
  Zn  Zn155  1  0.44088315  0.18933071  0.43753371  1
  Zn  Zn156  1  0.43701221  0.18712750  0.93403996  1
  Zn  Zn157  1  0.44058833  0.68455874  0.43784643  1
  Zn  Zn158  1  0.43996120  0.68827828  0.94098444  1
  Zn  Zn159  1  0.93537066  0.18418418  0.43743331  1
  Zn  Zn160  1  0.93751599  0.18727185  0.93475320  1
  Zn  Zn161  1  0.93978292  0.68683510  0.43844875  1
  Zn  Zn162  1  0.93463636  0.68829940  0.93539006  1
  Zn  Zn163  1  0.06249225  0.31270871  0.06037150  1
  Zn  Zn164  1  0.06301683  0.31198641  0.56222444  1
  Zn  Zn165  1  0.05641842  0.81336943  0.06018081  1
  Zn  Zn166  1  0.06160563  0.81241555  0.56169172  1
  Zn  Zn167  1  0.56132145  0.30953149  0.06018466  1
  Zn  Zn168  1  0.56046876  0.30406243  0.56240898  1
  Zn  Zn169  1  0.55942608  0.81645077  0.06174430  1
  Zn  Zn170  1  0.56609764  0.81230421  0.56061372  1
  O  O171  1  0.11371677  0.11994832  0.11781867  1
  O  O172  1  0.12542231  0.11609207  0.61661221  1
  O  O173  1  0.11751073  0.62670646  0.11695592  1
  O  O174  1  0.11960049  0.61784957  0.61508404  1
  O  O175  1  0.62292347  0.11143996  0.12258156  1
  O  O176  1  0.63165670  0.12877415  0.61212099  1
  O  O177  1  0.61777094  0.62048275  0.12187246  1
  O  O178  1  0.61187304  0.62949038  0.61880594  1
  O  O179  1  0.39262704  0.35725198  0.38941006  1
  O  O180  1  0.38172507  0.37939142  0.87940929  1
  O  O181  1  0.37866665  0.86725175  0.39135918  1
  O  O182  1  0.38847781  0.87148445  0.87438454  1
  O  O183  1  0.88379637  0.37533157  0.37568359  1
  O  O184  1  0.86888221  0.38723656  0.88385953  1
  O  O185  1  0.88399186  0.87115475  0.39018646  1
  O  O186  1  0.87415512  0.88769666  0.87844849  1
  O  O187  1  0.25819531  0.00050520  0.37833460  1
  O  O188  1  0.24454115  0.00810565  0.86643226  1
  O  O189  1  0.26553359  0.45451165  0.36419471  1
  O  O190  1  0.25803069  0.50779137  0.87389058  1
  O  O191  1  0.74886215  0.01267736  0.37801324  1
  O  O192  1  0.75976036  0.00860452  0.87058181  1
  O  O193  1  0.75952061  0.50666298  0.36519855  1
  O  O194  1  0.76044989  0.50586966  0.86542963  1
  O  O195  1  0.24815327  0.48895185  0.11827685  1
  O  O196  1  0.24357390  0.48974172  0.62628725  1
  O  O197  1  0.23424754  1.00063717  0.11657534  1
  O  O198  1  0.23947708  0.99182194  0.63292186  1
  O  O199  1  0.74510176  0.49149520  0.13008336  1
  O  O200  1  0.75366830  0.50083412  0.63437647  1
  O  O201  1  0.74475882  0.99906471  0.12280642  1
  O  O202  1  0.75167220  0.98662664  0.62310958  1
  O  O203  1  0.00563858  0.36564296  0.25295396  1
  O  O204  1  -0.00330692  0.36196291  0.74954016  1
  O  O205  1  -0.00183479  0.85860514  0.26059364  1
  O  O206  1  0.01138085  0.86889267  0.74337691  1
  O  O207  1  0.50289829  0.36286250  0.25599821  1
  O  O208  1  0.49896965  0.37485103  0.76212821  1
  O  O209  1  0.50586890  0.87212119  0.25399113  1
  O  O210  1  0.50622132  0.88027711  0.76087642  1
  O  O211  1  0.49768709  0.13637788  0.25032269  1
  O  O212  1  0.48460333  0.11839127  0.75871365  1
  O  O213  1  0.50098471  0.62736337  0.23897897  1
  O  O214  1  0.49414832  0.62311026  0.73615030  1
  O  O215  1  1.00132248  0.13670026  0.24036924  1
  O  O216  1  0.99324153  0.13395440  0.74800783  1
  O  O217  1  0.99470510  0.63225136  0.24488062  1
  O  O218  1  0.99876704  0.63546560  0.74074676  1
  O  O219  1  0.36788134  0.25606703  0.00369268  1
  O  O220  1  0.36808818  0.24950647  0.50796596  1
  O  O221  1  0.36525996  0.74822097  0.00812366  1
  O  O222  1  0.37102609  0.75284307  0.50621814  1
  O  O223  1  0.88000331  0.25819352  0.00957998  1
  O  O224  1  0.86214878  0.25516074  0.49626167  1
  O  O225  1  0.87734598  0.76014251  0.00863777  1
  O  O226  1  0.86149638  0.75109263  0.49366012  1
  O  O227  1  0.13154190  0.24542467  0.49172267  1
  O  O228  1  0.13062975  0.25002204  0.98843021  1
  O  O229  1  0.13406822  0.74113490  0.49783368  1
  O  O230  1  0.12764762  0.74447128  0.99366233  1
  O  O231  1  0.63504340  0.24239381  0.49294429  1
  O  O232  1  0.62022347  0.24632163  0.98556939  1
  O  O233  1  0.63520683  0.74515025  0.49249696  1
  O  O234  1  0.62527713  0.74219239  1.00327029  1
  O  O235  1  0.49372300  0.24966450  0.13363060  1
  O  O236  1  0.48519582  0.24478646  0.62832138  1
  O  O237  1  0.49184475  0.74203703  0.12538621  1
  O  O238  1  0.48983537  0.74461041  0.62001662  1
  O  O239  1  0.99568921  0.24349423  0.12894348  1
  O  O240  1  1.00848365  0.24761043  0.64065559  1
  O  O241  1  0.99258504  0.74242866  0.13234299  1
  O  O242  1  1.00886456  0.74092406  0.63503345  1
  O  O243  1  0.00285477  0.25421153  0.36594946  1
  O  O244  1  0.01374992  0.24746073  0.86856615  1
  O  O245  1  0.00696447  0.75331111  0.36957159  1
  O  O246  1  0.01186318  0.74486733  0.86697547  1
  O  O247  1  0.51365533  0.25205915  0.36947790  1
  O  O248  1  0.50555894  0.25805569  0.87191462  1
  O  O249  1  0.51409805  0.75131966  0.37624025  1
  O  O250  1  0.50236362  0.76409909  0.88005857  1
  O  O251  1  0.23916079  0.13698464  0.50380498  1
  O  O252  1  0.24979748  0.13397646  0.99258570  1
  O  O253  1  0.24382458  0.63078783  0.50469655  1
  O  O254  1  0.24303406  0.63501590  0.99475356  1
  O  O255  1  0.74564521  0.13502428  0.49247758  1
  O  O256  1  0.74920736  0.12420655  0.98436257  1
  O  O257  1  0.74530568  0.63279965  0.49705320  1
  O  O258  1  0.73519816  0.62349533  1.00327922  1
  O  O259  1  0.25512848  0.36939656  0.00453041  1
  O  O260  1  0.25826290  0.36089006  0.51226444  1
  O  O261  1  0.25097853  0.86368956  0.00191207  1
  O  O262  1  0.25907737  0.86590239  0.50846160  1
  O  O263  1  0.75744869  0.38102008  0.01083947  1
  O  O264  1  0.75753178  0.35990982  0.49990854  1
  O  O265  1  0.76331342  0.87861504  -0.00332661  1
  O  O266  1  0.75981361  0.87065839  0.50321237  1
  O  O267  1  0.11952903  0.48699116  0.25009704  1
  O  O268  1  0.12761451  0.50601541  0.73708104  1
  O  O269  1  0.12588839  1.00840359  0.23094072  1
  O  O270  1  0.13176623  0.99302162  0.74585154  1
  O  O271  1  0.62885170  0.49236079  0.24399726  1
  O  O272  1  0.64012333  0.49736157  0.75497535  1
  O  O273  1  0.61770661  0.98876578  0.24369069  1
  O  O274  1  0.62806827  0.98320128  0.75413936  1
  O  O275  1  0.37398895  0.01992762  0.24828549  1
  O  O276  1  0.36023594  0.00300757  0.74429196  1
  O  O277  1  0.37867611  0.51802773  0.24567952  1
  O  O278  1  0.37350232  0.51120180  0.75482843  1
  O  O279  1  0.86560706  -0.01543328  0.23216398  1
  O  O280  1  0.87641800  0.00687942  0.75592618  1
  O  O281  1  0.87148925  0.50379432  0.25345163  1
  O  O282  1  0.86750339  0.50339618  0.75799499  1
  O  O283  1  0.11181150  0.36558564  0.36915252  1
  O  O284  1  0.12985684  0.36288831  0.87515406  1
  O  O285  1  0.11520686  0.85874805  0.38943398  1
  O  O286  1  0.12789579  0.86604600  0.86521014  1
  O  O287  1  0.61696587  0.36354140  0.36524905  1
  O  O288  1  0.61833863  0.36977681  0.87483991  1
  O  O289  1  0.62552142  0.86856772  0.36847078  1
  O  O290  1  0.61321503  0.87342982  0.86760760  1
  O  O291  1  0.37694791  0.13461344  0.13484142  1
  O  O292  1  0.36377547  0.13081177  0.63603565  1
  O  O293  1  0.38073033  0.63344037  0.13220798  1
  O  O294  1  0.38562242  0.62854135  0.62884636  1
  O  O295  1  0.88652559  0.13277611  0.11902023  1
  O  O296  1  0.87561926  0.12047008  0.63747471  1
  O  O297  1  0.88064211  0.63169185  0.12718504  1
  O  O298  1  0.89063182  0.62316743  0.62373866  1
  O  O299  1  0.25056282  0.25606653  0.11010035  1
  O  O300  1  0.25469796  0.25381241  0.61994623  1
  O  O301  1  0.25548371  0.75014237  0.11600774  1
  O  O302  1  0.25832721  0.75232060  0.61565631  1
  O  O303  1  0.75764023  0.25627387  0.12721625  1
  O  O304  1  0.75112545  0.24602909  0.61275252  1
  O  O305  1  0.76323965  0.74617027  0.12285732  1
  O  O306  1  0.74542146  0.76291312  0.61490108  1
  O  O307  1  0.23835092  0.25873455  0.38416666  1
  O  O308  1  0.24223977  0.24727104  0.88164035  1
  O  O309  1  0.24345616  0.75284443  0.38910599  1
  O  O310  1  0.24077142  0.74573284  0.88068764  1
  O  O311  1  0.73988081  0.24649906  0.37856431  1
  O  O312  1  0.74356475  0.24404130  0.86937694  1
  O  O313  1  0.74038870  0.74239245  0.38036515  1
  O  O314  1  0.74643080  0.74488700  0.88155623  1
  O  O315  1  0.00024760  0.11656564  0.00460715  1
  O  O316  1  0.01437964  0.13293000  0.50303082  1
  O  O317  1  0.00689588  0.62699426  0.00700047  1
  O  O318  1  0.00911016  0.62333583  0.50678445  1
  O  O319  1  0.50067873  0.11404925  -0.00114022  1
  O  O320  1  0.50852677  0.11519328  0.49866223  1
  O  O321  1  0.50719432  0.62058882  0.01172175  1
  O  O322  1  0.50786771  0.62560357  0.51207292  1
  O  O323  1  0.49307433  0.36783152  0.49222423  1
  O  O324  1  0.49417565  0.37964439  0.99094667  1
  O  O325  1  0.49526015  0.88546927  0.50149256  1
  O  O326  1  0.49648536  0.88410776  0.98843215  1
  O  O327  1  0.99248317  0.37152799  0.48995557  1
  O  O328  1  0.98656778  0.38040204  1.00667955  1
  O  O329  1  0.98648076  0.87030272  0.49561807  1
  O  O330  1  0.98486451  0.88584913  1.00582670  1
  O  O331  1  0.49330572  0.48442472  0.36919813  1
  O  O332  1  0.49594524  0.49394109  0.87971976  1
  O  O333  1  0.49000130  0.99968002  0.38832530  1
  O  O334  1  0.50188154  0.99176362  0.88733454  1
  O  O335  1  0.99326839  0.48972086  0.37613780  1
  O  O336  1  0.98471011  0.50359525  0.87290690  1
  O  O337  1  1.00762097  0.98339283  0.36477963  1
  O  O338  1  0.99481626  1.00619552  0.88282004  1
  O  O339  1  0.00931859  0.00821838  0.11457810  1
  O  O340  1  0.01381570  0.00190727  0.63002183  1
  O  O341  1  -0.00005665  0.51467221  0.12363051  1
  O  O342  1  0.00847726  0.50749384  0.62294551  1
  O  O343  1  0.50581635  -0.00003869  0.11310784  1
  O  O344  1  0.49666606  0.00035426  0.61186748  1
  O  O345  1  0.50557680  0.50511998  0.12032164  1
  O  O346  1  0.49759836  0.51004831  0.62383474  1
  O  O347  1  0.23538514  0.35859968  0.23179451  1
  O  O348  1  0.25743284  0.37466491  0.73664842  1
  O  O349  1  0.25422826  0.87942733  0.24362730  1
  O  O350  1  0.24122995  0.87909929  0.74613475  1
  O  O351  1  0.74484622  0.37772812  0.23968152  1
  O  O352  1  0.75118210  0.39152649  0.75060421  1
  O  O353  1  0.74571953  0.87415203  0.24933558  1
  O  O354  1  0.74189744  0.87822286  0.74098935  1
  O  O355  1  0.25771364  0.12826306  0.24505744  1
  O  O356  1  0.25366194  0.11568896  0.75573811  1
  O  O357  1  0.25991917  0.62414767  0.24731343  1
  O  O358  1  0.25846553  0.62374226  0.75462818  1
  O  O359  1  0.74743540  0.12620746  0.26458414  1
  O  O360  1  0.76012121  0.12452758  0.75837252  1
  O  O361  1  0.75470875  0.61924472  0.25441809  1
  O  O362  1  0.75061382  0.61562730  0.74673014  1
  O  O363  1  0.37532690  0.13367815  0.35938338  1
  O  O364  1  0.35944162  0.13222889  0.86596142  1
  O  O365  1  0.37858695  0.62409780  0.36045853  1
  O  O366  1  0.37444104  0.62373566  0.86698650  1
  O  O367  1  0.86125897  0.12750867  0.37469505  1
  O  O368  1  0.87133398  0.11754354  0.86701492  1
  O  O369  1  0.87103315  0.61843097  0.37012981  1
  O  O370  1  0.87176033  0.61467775  0.87303446  1
  O  O371  1  0.12934315  0.37889873  0.13019283  1
  O  O372  1  0.13451441  0.38403554  0.61855089  1
  O  O373  1  0.11993081  0.89135049  0.12012208  1
  O  O374  1  0.13035061  0.87950701  0.63059115  1
  O  O375  1  0.63117356  0.37660057  0.12835189  1
  O  O376  1  0.62018598  0.37208046  0.62516301  1
  O  O377  1  0.62356949  0.88582237  0.13172541  1
  O  O378  1  0.63006811  0.87376655  0.63493171  1
  O  O379  1  0.11591947  0.25640484  0.25553617  1
  O  O380  1  0.11559006  0.24731008  0.76126925  1
  O  O381  1  0.11683792  0.74222905  0.26259798  1
  O  O382  1  0.12046699  0.75696043  0.75577625  1
  O  O383  1  0.61810365  0.25200716  0.25435530  1
  O  O384  1  0.62140761  0.25296999  0.76200803  1
  O  O385  1  0.62468435  0.76220635  0.25689717  1
  O  O386  1  0.62687520  0.76834359  0.75224093  1
  O  O387  1  0.38080355  0.24326119  0.24506472  1
  O  O388  1  0.37562784  0.23789373  0.74248509  1
  O  O389  1  0.37625117  0.73794283  0.24350681  1
  O  O390  1  0.36995357  0.73784596  0.74060281  1
  O  O391  1  0.88403798  0.25762767  0.23374939  1
  O  O392  1  0.89077964  0.24338533  0.75832973  1
  O  O393  1  0.88046774  0.74390940  0.24427412  1
  O  O394  1  0.88779573  0.75267334  0.75610153  1
  O  O395  1  0.37135051  0.48424991  0.49935312  1
  O  O396  1  0.38156060  0.49720144  0.99406600  1
  O  O397  1  0.38219291  0.99259376  0.50442912  1
  O  O398  1  0.38835141  0.99942094  1.00535644  1
  O  O399  1  0.87541399  0.48922928  0.49088906  1
  O  O400  1  0.87650779  0.49438538  0.98854934  1
  O  O401  1  0.87701774  0.99078277  0.50052102  1
  O  O402  1  0.88190394  0.99537784  0.99089988  1
  O  O403  1  0.11671340  0.00202425  0.00415457  1
  O  O404  1  0.12992580  0.00850728  0.50785824  1
  O  O405  1  0.12289918  0.51360355  -0.00029919  1
  O  O406  1  0.12475372  0.50544306  0.50666796  1
  O  O407  1  0.61362100  0.00006128  0.00563320  1
  O  O408  1  0.61222556  0.00623972  0.49783418  1
  O  O409  1  0.61995850  0.50556804  0.00563526  1
  O  O410  1  0.63634277  0.51450862  0.49592562  1
  O  O411  1  0.36718220  0.37071537  0.12102500  1
  O  O412  1  0.37071687  0.36471031  0.61890769  1
  O  O413  1  0.37751466  0.86223665  0.12195280  1
  O  O414  1  0.37211565  0.86577163  0.61837200  1
  O  O415  1  0.86704965  0.36923527  0.11657491  1
  O  O416  1  0.88301560  0.37858926  0.61220189  1
  O  O417  1  0.86883693  0.87214789  0.12326751  1
  O  O418  1  0.86910391  0.87483298  0.61029166  1
  O  O419  1  0.12073519  0.13687525  0.37988154  1
  O  O420  1  0.13713464  0.13550922  0.87511612  1
  O  O421  1  0.12018795  0.63307567  0.38902825  1
  O  O422  1  0.12937968  0.63158001  0.88048466  1
  O  O423  1  0.63205890  0.13085528  0.38401517  1
  O  O424  1  0.63488966  0.13202092  0.87390492  1
  O  O425  1  0.62874739  0.63070139  0.38080443  1
  O  O426  1  0.62154120  0.62837761  0.88581336  1
