# generated using pymatgen
data_V85Zn86O256
_symmetry_space_group_name_H-M   'P 1'
_cell_length_a   16.99230378
_cell_length_b   16.98565240
_cell_length_c   16.97105167
_cell_angle_alpha   89.97703444
_cell_angle_beta   89.99244376
_cell_angle_gamma   90.03025743
_symmetry_Int_Tables_number   1
_chemical_formula_structural   V85Zn86O256
_chemical_formula_sum   'V85 Zn86 O256'
_cell_volume   4898.27487231
_cell_formula_units_Z   1
loop_
 _symmetry_equiv_pos_site_id
 _symmetry_equiv_pos_as_xyz
  1  'x, y, z'
loop_
 _atom_site_type_symbol
 _atom_site_label
 _atom_site_symmetry_multiplicity
 _atom_site_fract_x
 _atom_site_fract_y
 _atom_site_fract_z
 _atom_site_occupancy
  V  V0  1  0.00396598  0.87687461  0.37890409  1
  V  V1  1  0.62439247  0.75099274  0.87185348  1
  V  V2  1  0.88526842  0.12220483  0.75841476  1
  V  V3  1  0.49179769  0.75148589  0.73868571  1
  V  V4  1  0.24716191  0.25075400  0.00016886  1
  V  V5  1  0.25518807  0.86938919  0.62496495  1
  V  V6  1  0.00244540  0.12344691  0.60492397  1
  V  V7  1  0.12739192  0.75302111  0.88066413  1
  V  V8  1  0.44586164  0.69186837  0.30001210  1
  V  V9  1  0.87659301  0.49982461  0.87447451  1
  V  V10  1  0.12436712  0.87277295  0.24883023  1
  V  V11  1  0.69812929  0.44237115  0.79524814  1
  V  V12  1  0.00229977  0.37708832  0.37891363  1
  V  V13  1  0.00288368  0.37694603  0.87631506  1
  V  V14  1  0.26631822  0.50437886  0.25682637  1
  V  V15  1  0.49857878  0.87756693  0.37390182  1
  V  V16  1  0.62098950  0.24392980  0.39110940  1
  V  V17  1  -0.00255833  0.50662672  0.00924849  1
  V  V18  1  0.12202496  0.38774794  0.74624778  1
  V  V19  1  0.24910569  0.37632339  0.12520111  1
  V  V20  1  0.37244161  0.12289741  0.74350813  1
  V  V21  1  0.87922255  0.75155745  0.62454994  1
  V  V22  1  0.37048435  0.87289246  0.00169574  1
  V  V23  1  0.75041282  0.00052228  0.25127871  1
  V  V24  1  -0.00144593  0.24971848  0.24947553  1
  V  V25  1  0.74962380  0.62553686  0.87169262  1
  V  V26  1  0.37134774  0.24880023  0.62838329  1
  V  V27  1  0.62304162  0.87113195  0.24620878  1
  V  V28  1  0.62845978  0.87581357  0.74626527  1
  V  V29  1  0.61949351  0.62878707  0.00882182  1
  V  V30  1  0.87098349  0.12570962  0.25239759  1
  V  V31  1  0.76010860  0.63368522  0.37068305  1
  V  V32  1  0.49841582  0.12375333  0.12159650  1
  V  V33  1  0.26174307  0.50746374  0.75427239  1
  V  V34  1  0.62588799  0.37061965  0.24433287  1
  V  V35  1  0.37557375  0.00492690  0.37364857  1
  V  V36  1  0.12034228  0.50839715  0.13064963  1
  V  V37  1  0.74417232  0.37451246  0.12364310  1
  V  V38  1  0.12426044  0.12421894  0.00130138  1
  V  V39  1  0.62717652  0.75035651  0.37191172  1
  V  V40  1  0.24420289  0.38020285  0.62292976  1
  V  V41  1  0.83988494  0.46257829  0.39084170  1
  V  V42  1  0.50539757  0.01262194  0.50477195  1
  V  V43  1  0.12859857  0.62915197  0.00289059  1
  V  V44  1  0.00991976  0.49750168  0.49884166  1
  V  V45  1  0.87372796  0.37132636  0.00318606  1
  V  V46  1  0.75895073  0.00137747  0.76171543  1
  V  V47  1  0.37434990  0.25125206  0.12073486  1
  V  V48  1  0.38068414  0.38029779  0.49943885  1
  V  V49  1  0.37149160  -0.00397395  0.87354167  1
  V  V50  1  0.38885804  0.74156015  0.12254407  1
  V  V51  1  0.86393039  0.25490943  0.61441819  1
  V  V52  1  0.12177302  0.00262335  0.60674197  1
  V  V53  1  0.24405668  -0.00177663  0.74774580  1
  V  V54  1  0.87244590  0.61727586  0.74559282  1
  V  V55  1  0.74201879  0.12341149  0.39074484  1
  V  V56  1  0.75657451  0.75471161  -0.00205336  1
  V  V57  1  0.13133833  0.74295844  0.37738197  1
  V  V58  1  0.54797492  0.17480139  0.68065144  1
  V  V59  1  0.75225698  0.75466447  0.49938325  1
  V  V60  1  -0.01429659  0.87736154  0.87810680  1
  V  V61  1  0.50117995  -0.00219159  -0.00103300  1
  V  V62  1  0.24951263  0.86366556  0.12341731  1
  V  V63  1  0.12106867  0.87830498  0.75141344  1
  V  V64  1  0.76306600  0.87560085  0.12244371  1
  V  V65  1  0.00015102  0.73994565  0.24858642  1
  V  V66  1  -0.00059384  0.75040181  0.75109630  1
  V  V67  1  0.88112349  0.87923522  0.49941552  1
  V  V68  1  0.12365212  0.25016541  0.87217871  1
  V  V69  1  0.63308626  0.13219017  -0.00630840  1
  V  V70  1  0.50122868  0.24888067  0.24632792  1
  V  V71  1  -0.01327273  -0.00444358  -0.00094549  1
  V  V72  1  0.87934443  0.00198896  0.38073048  1
  V  V73  1  0.49251103  0.50600457  -0.00727134  1
  V  V74  1  0.65371867  0.49887299  0.62217135  1
  V  V75  1  0.12680832  0.37531973  0.24963081  1
  V  V76  1  0.75348651  0.88033669  0.62402479  1
  V  V77  1  0.12708823  -0.00207649  0.12218236  1
  V  V78  1  0.86849848  0.25001125  0.12619485  1
  V  V79  1  0.00819880  0.61953284  0.62347545  1
  V  V80  1  0.87981083  0.73688383  0.12377504  1
  V  V81  1  0.62543558  -0.00292685  0.12381362  1
  V  V82  1  0.37319693  0.38314349  -0.01773181  1
  V  V83  1  0.49282234  0.61770268  0.62995049  1
  V  V84  1  0.12771351  0.24123884  0.38131440  1
  Zn  Zn85  1  0.49251476  0.38152732  0.36432793  1
  Zn  Zn86  1  0.61542094  0.50604798  0.12594673  1
  Zn  Zn87  1  0.62850744  0.62815345  0.50429699  1
  Zn  Zn88  1  0.26887126  0.62281721  0.37711790  1
  Zn  Zn89  1  0.87967734  0.61156840  0.25114253  1
  Zn  Zn90  1  0.75820713  0.13601642  0.88256365  1
  Zn  Zn91  1  0.62657753  0.00669877  0.62059701  1
  Zn  Zn92  1  0.74739448  0.50511023  0.24521032  1
  Zn  Zn93  1  0.25477894  0.74230857  0.50713085  1
  Zn  Zn94  1  0.13547628  0.61973202  0.50274633  1
  Zn  Zn95  1  0.24812847  0.12302374  0.87472621  1
  Zn  Zn96  1  -0.00128895  0.12239888  0.12597239  1
  Zn  Zn97  1  0.49922346  0.87320833  0.87279451  1
  Zn  Zn98  1  0.24771346  0.24231413  0.50435623  1
  Zn  Zn99  1  0.25928657  0.61704315  0.88174196  1
  Zn  Zn100  1  0.00522620  0.24966101  0.74066424  1
  Zn  Zn101  1  0.37925878  0.87585072  0.50502986  1
  Zn  Zn102  1  0.50200999  0.50113273  0.50084910  1
  Zn  Zn103  1  0.24449867  0.11730950  0.37890315  1
  Zn  Zn104  1  0.54027804  0.31917883  0.81788372  1
  Zn  Zn105  1  0.37055221  0.12601480  0.24948631  1
  Zn  Zn106  1  0.25206488  0.00132706  0.24842356  1
  Zn  Zn107  1  0.18847502  0.18396498  0.19128220  1
  Zn  Zn108  1  0.18462286  0.18657764  0.68522233  1
  Zn  Zn109  1  0.19306641  0.68473543  0.19151285  1
  Zn  Zn110  1  0.18388303  0.68887787  0.69262483  1
  Zn  Zn111  1  0.68650551  0.18426484  0.18405339  1
  Zn  Zn112  1  0.71562502  0.21990433  0.73408076  1
  Zn  Zn113  1  0.69105741  0.69145555  0.18758438  1
  Zn  Zn114  1  0.68785536  0.68630833  0.68489440  1
  Zn  Zn115  1  0.31323124  0.31301639  0.31325405  1
  Zn  Zn116  1  0.30639437  0.31050132  0.80634868  1
  Zn  Zn117  1  0.30933273  0.81877944  0.31390018  1
  Zn  Zn118  1  0.33121540  0.77924890  0.83388296  1
  Zn  Zn119  1  0.80159643  0.31082036  0.32445220  1
  Zn  Zn120  1  0.82930821  0.30695328  0.81305589  1
  Zn  Zn121  1  0.81685647  0.81422420  0.30775394  1
  Zn  Zn122  1  0.81284931  0.80904858  0.80895419  1
  Zn  Zn123  1  0.19044357  0.43475714  0.43652061  1
  Zn  Zn124  1  0.18624381  0.44064300  0.93748568  1
  Zn  Zn125  1  0.19005823  0.93477778  0.43672654  1
  Zn  Zn126  1  0.18536765  0.93316848  0.93709513  1
  Zn  Zn127  1  0.66220539  0.44183411  0.42569441  1
  Zn  Zn128  1  0.68141361  0.43334839  0.95665881  1
  Zn  Zn129  1  0.68637227  0.93963816  0.43776148  1
  Zn  Zn130  1  0.68944949  0.93656184  0.93743212  1
  Zn  Zn131  1  0.30959334  0.06124796  0.06232272  1
  Zn  Zn132  1  0.31070893  0.06156283  0.55667164  1
  Zn  Zn133  1  0.31042818  0.56109120  0.06626502  1
  Zn  Zn134  1  0.31159445  0.55877906  0.56624834  1
  Zn  Zn135  1  0.81206575  0.06447273  0.06569334  1
  Zn  Zn136  1  0.81610636  0.06582106  0.56840304  1
  Zn  Zn137  1  0.80689298  0.56267259  0.06083996  1
  Zn  Zn138  1  0.82038894  0.56702990  0.55273954  1
  Zn  Zn139  1  0.44186090  0.43652927  0.17394296  1
  Zn  Zn140  1  0.43151255  0.44282254  0.69330990  1
  Zn  Zn141  1  0.43664327  0.93532071  0.18929130  1
  Zn  Zn142  1  0.43870404  0.93951446  0.68762426  1
  Zn  Zn143  1  0.93285292  0.43787933  0.19677020  1
  Zn  Zn144  1  0.93483948  0.43493423  0.68386201  1
  Zn  Zn145  1  0.94027198  0.93561022  0.19124027  1
  Zn  Zn146  1  0.94175843  0.94252846  0.68660473  1
  Zn  Zn147  1  0.05992577  0.06137377  0.30886983  1
  Zn  Zn148  1  0.06096120  0.06077393  0.81595785  1
  Zn  Zn149  1  0.06474906  0.56111863  0.31516257  1
  Zn  Zn150  1  0.06242231  0.56594831  0.81719976  1
  Zn  Zn151  1  0.56035371  0.06319121  0.31104488  1
  Zn  Zn152  1  0.56640814  0.05465681  0.81743061  1
  Zn  Zn153  1  0.56947767  0.55720489  0.31586175  1
  Zn  Zn154  1  0.55704857  0.56661275  0.81238045  1
  Zn  Zn155  1  0.43561062  0.19152664  0.44075855  1
  Zn  Zn156  1  0.43533028  0.18525589  0.92715005  1
  Zn  Zn157  1  0.43307612  0.68809154  0.46996375  1
  Zn  Zn158  1  0.43834059  0.68555646  0.93620530  1
  Zn  Zn159  1  0.93480952  0.19103220  0.43639517  1
  Zn  Zn160  1  0.94187652  0.18751980  0.94066915  1
  Zn  Zn161  1  0.94364639  0.68961165  0.43947635  1
  Zn  Zn162  1  0.93954610  0.68662818  0.93764082  1
  Zn  Zn163  1  0.05987900  0.31522472  0.06482289  1
  Zn  Zn164  1  0.05851742  0.31292595  0.56264673  1
  Zn  Zn165  1  0.05736446  0.81350959  0.06245575  1
  Zn  Zn166  1  0.06846351  0.81150768  0.56162688  1
  Zn  Zn167  1  0.54011232  0.29363512  0.01642783  1
  Zn  Zn168  1  0.54094828  0.34285425  0.61807223  1
  Zn  Zn169  1  0.56244585  0.81240208  0.06207151  1
  Zn  Zn170  1  0.56505034  0.81546443  0.56027121  1
  O  O171  1  0.12248200  0.11549228  0.12005811  1
  O  O172  1  0.11134747  0.11676082  0.62737439  1
  O  O173  1  0.12794268  0.61468441  0.12246714  1
  O  O174  1  0.11097593  0.62913460  0.62386297  1
  O  O175  1  0.62020778  0.11387968  0.11613012  1
  O  O176  1  0.61821919  0.12315549  0.63378129  1
  O  O177  1  0.63245163  0.62951185  0.11127531  1
  O  O178  1  0.62219962  0.61530507  0.62626674  1
  O  O179  1  0.37969847  0.36365379  0.39373493  1
  O  O180  1  0.36664368  0.37048098  0.88460287  1
  O  O181  1  0.38508604  0.88629650  0.37067413  1
  O  O182  1  0.37659701  0.87563762  0.88591321  1
  O  O183  1  0.89857083  0.36708917  0.36142230  1
  O  O184  1  0.88330016  0.37947165  0.88491131  1
  O  O185  1  0.88370296  0.88212526  0.37795856  1
  O  O186  1  0.88648899  0.86941002  0.87149073  1
  O  O187  1  0.26148537  -0.00458228  0.37205669  1
  O  O188  1  0.25397285  -0.00164473  0.86616463  1
  O  O189  1  0.24982256  0.49890333  0.36020938  1
  O  O190  1  0.24304191  0.50135723  0.85957811  1
  O  O191  1  0.75608519  0.00331923  0.36850047  1
  O  O192  1  0.75020776  0.00115494  0.86372663  1
  O  O193  1  0.74255427  0.52258356  0.37071077  1
  O  O194  1  0.75156327  0.50046063  0.87012171  1
  O  O195  1  0.24167917  0.49434261  0.13689588  1
  O  O196  1  0.25184832  0.48809836  0.63736404  1
  O  O197  1  0.24147928  0.99002079  0.12527422  1
  O  O198  1  0.23879688  0.99594147  0.63045899  1
  O  O199  1  0.74667660  0.48957123  0.12609522  1
  O  O200  1  0.75300180  0.51009216  0.62508767  1
  O  O201  1  0.74680448  0.99113411  0.12939661  1
  O  O202  1  0.75112902  0.99013196  0.63160445  1
  O  O203  1  0.01238883  0.36920589  0.25304691  1
  O  O204  1  0.00641125  0.37277627  0.75649256  1
  O  O205  1  0.00549660  0.86509270  0.25973868  1
  O  O206  1  0.00249279  0.87153897  0.75690267  1
  O  O207  1  0.50590071  0.36620725  0.24436216  1
  O  O208  1  0.50015241  0.36468212  0.72588893  1
  O  O209  1  0.51166944  0.88144654  0.26140564  1
  O  O210  1  0.51262409  0.86863318  0.74619122  1
  O  O211  1  0.49820013  0.13252861  0.23846367  1
  O  O212  1  0.49206612  0.11340052  0.74686825  1
  O  O213  1  0.50449673  0.62847366  0.25163175  1
  O  O214  1  0.50449199  0.63998552  0.74025322  1
  O  O215  1  0.99115962  0.13399212  0.24754143  1
  O  O216  1  0.99290232  0.12255372  0.74695730  1
  O  O217  1  0.99765728  0.63599821  0.25566392  1
  O  O218  1  0.99378478  0.62956912  0.74365052  1
  O  O219  1  0.36528799  0.25850864  0.00380069  1
  O  O220  1  0.37225578  0.25664084  0.51349659  1
  O  O221  1  0.38350379  0.76482716  0.01273136  1
  O  O222  1  0.36502483  0.76523715  0.49915015  1
  O  O223  1  0.88473863  0.25969888  0.01263393  1
  O  O224  1  0.87165409  0.24209008  0.51353249  1
  O  O225  1  0.86726984  0.74394849  0.00797335  1
  O  O226  1  0.87234179  0.75929431  0.50575553  1
  O  O227  1  0.12374105  0.25516288  0.48270937  1
  O  O228  1  0.12778190  0.24681465  0.99624570  1
  O  O229  1  0.13237037  0.74687799  0.49043588  1
  O  O230  1  0.11314909  0.73899289  0.99578164  1
  O  O231  1  0.61440721  0.25497500  0.48523466  1
  O  O232  1  0.63431840  0.22976467  1.01236326  1
  O  O233  1  0.63423174  0.75283035  0.48915108  1
  O  O234  1  0.63035095  0.74729824  0.99123018  1
  O  O235  1  0.48952477  0.24472482  0.12132862  1
  O  O236  1  0.49034406  0.23535102  0.61803109  1
  O  O237  1  0.48807076  0.75434368  0.12840292  1
  O  O238  1  0.51311751  0.74123172  0.63408271  1
  O  O239  1  0.99158309  0.25211275  0.13734774  1
  O  O240  1  1.00086140  0.23329081  0.62235171  1
  O  O241  1  0.98950639  0.75548936  0.13461637  1
  O  O242  1  0.99609082  0.74456028  0.62984523  1
  O  O243  1  0.00886448  0.25332190  0.36583594  1
  O  O244  1  0.01198062  0.25740050  0.87756513  1
  O  O245  1  0.00821165  0.75696660  0.36751408  1
  O  O246  1  0.00450946  0.75715688  0.87102693  1
  O  O247  1  0.50702289  0.24773160  0.36252235  1
  O  O248  1  0.51045785  0.26176233  0.90706815  1
  O  O249  1  0.50525285  0.75387365  0.36643966  1
  O  O250  1  0.51067116  0.75315189  0.85847198  1
  O  O251  1  0.25223890  0.12946050  0.49174549  1
  O  O252  1  0.24185520  0.13107263  0.99747509  1
  O  O253  1  0.25234719  0.62301953  0.49442558  1
  O  O254  1  0.23238854  0.61486985  0.99931038  1
  O  O255  1  0.74838543  0.11305711  0.48921496  1
  O  O256  1  0.73796816  0.11505833  0.99707439  1
  O  O257  1  0.75185794  0.63929159  0.49017491  1
  O  O258  1  0.74307856  0.63521146  0.99138913  1
  O  O259  1  0.25635462  0.37377884  0.00482466  1
  O  O260  1  0.25720279  0.37199443  0.50816382  1
  O  O261  1  0.26033809  0.88000213  0.00935853  1
  O  O262  1  0.24668287  0.87670032  0.51852130  1
  O  O263  1  0.76530689  0.37664728  0.00734445  1
  O  O264  1  0.76899450  0.38969105  0.42137574  1
  O  O265  1  0.74642140  0.86346204  0.00784017  1
  O  O266  1  0.75788424  0.87420063  0.50660101  1
  O  O267  1  0.12790203  0.49225158  0.24463329  1
  O  O268  1  0.12178797  0.48931985  0.75308792  1
  O  O269  1  0.12070458  0.99245177  0.23577467  1
  O  O270  1  0.13034511  0.99642807  0.74776766  1
  O  O271  1  0.62610806  0.48343278  0.24277714  1
  O  O272  1  0.63660106  0.50874693  0.74330060  1
  O  O273  1  0.62994371  0.99077832  0.24433703  1
  O  O274  1  0.63486799  0.98812362  0.74857271  1
  O  O275  1  0.37611030  0.00361273  0.25811098  1
  O  O276  1  0.36660924  0.00401235  0.75382010  1
  O  O277  1  0.36357878  0.48801227  0.24511624  1
  O  O278  1  0.36085584  0.50452880  0.75547845  1
  O  O279  1  0.87110137  0.00390284  0.25966745  1
  O  O280  1  0.87243207  0.01058226  0.74787938  1
  O  O281  1  0.86586002  0.49413567  0.27492694  1
  O  O282  1  0.88472928  0.51142846  0.75702968  1
  O  O283  1  0.11932546  0.36617669  0.36636308  1
  O  O284  1  0.12047844  0.36937278  0.86970936  1
  O  O285  1  0.12022617  0.86699169  0.36987242  1
  O  O286  1  0.11098097  0.87273102  0.87019169  1
  O  O287  1  0.62147289  0.35299124  0.35752352  1
  O  O288  1  0.63856221  0.38655383  0.85815431  1
  O  O289  1  0.62122079  0.86698061  0.36745639  1
  O  O290  1  0.62604815  0.86535096  0.86734564  1
  O  O291  1  0.37751085  0.13670249  0.12145189  1
  O  O292  1  0.36802403  0.12930045  0.63646196  1
  O  O293  1  0.37086785  0.64368420  0.11794143  1
  O  O294  1  0.39346024  0.62164501  0.62246470  1
  O  O295  1  0.87594485  0.13400258  0.13232394  1
  O  O296  1  0.89095361  0.12650468  0.63138649  1
  O  O297  1  0.87032897  0.63352395  0.12933343  1
  O  O298  1  0.88386303  0.63117954  0.63043362  1
  O  O299  1  0.25385571  0.25531047  0.12051474  1
  O  O300  1  0.25446863  0.25960235  0.62638775  1
  O  O301  1  0.25935558  0.76054797  0.13167240  1
  O  O302  1  0.24125915  0.76685447  0.63073862  1
  O  O303  1  0.76319393  0.25541555  0.13053751  1
  O  O304  1  0.76585312  0.24276205  0.63325095  1
  O  O305  1  0.75964506  0.75692565  0.11725566  1
  O  O306  1  0.75842994  0.76246946  0.62145357  1
  O  O307  1  0.23311818  0.25160293  0.37114669  1
  O  O308  1  0.23690418  0.24937103  0.88026397  1
  O  O309  1  0.24209664  0.74544902  0.36997849  1
  O  O310  1  0.22633834  0.76746974  0.87688273  1
  O  O311  1  0.73064578  0.23420343  0.37103470  1
  O  O312  1  0.74561208  0.24124687  0.84313029  1
  O  O313  1  0.74371934  0.75317991  0.37717949  1
  O  O314  1  0.74501992  0.74797762  0.88180146  1
  O  O315  1  0.00616451  0.11289416  0.00388144  1
  O  O316  1  -0.00160293  0.12244807  0.50657550  1
  O  O317  1  0.00756548  0.61170221  -0.00212164  1
  O  O318  1  0.00149774  0.61702898  0.50720352  1
  O  O319  1  0.50685275  0.11205415  0.00286575  1
  O  O320  1  0.49809455  0.11039310  0.49698065  1
  O  O321  1  0.50944453  0.62376949  -0.00405301  1
  O  O322  1  0.50920731  0.62266262  0.51625838  1
  O  O323  1  0.48419993  0.37582129  0.51543507  1
  O  O324  1  0.47781109  0.38760613  1.00290370  1
  O  O325  1  0.50267627  0.87707067  0.48447247  1
  O  O326  1  0.49449779  0.88581529  1.00074989  1
  O  O327  1  1.00357249  0.38327702  0.49073403  1
  O  O328  1  0.99087015  0.38576358  0.99964002  1
  O  O329  1  0.99749403  0.86883294  0.48624855  1
  O  O330  1  1.00035026  0.88741841  0.99379068  1
  O  O331  1  0.53743861  0.48293809  0.39250527  1
  O  O332  1  0.50390494  0.50471280  0.88967653  1
  O  O333  1  0.49673782  0.99367098  0.38153064  1
  O  O334  1  0.49175511  0.99355949  0.88260469  1
  O  O335  1  1.00395112  0.48958051  0.38164867  1
  O  O336  1  0.99574709  0.49510009  0.88618096  1
  O  O337  1  0.99143395  0.98986647  0.36820033  1
  O  O338  1  1.00223600  0.99289885  0.89095417  1
  O  O339  1  0.00692979  -0.00381692  0.11550808  1
  O  O340  1  0.00925778  0.01213510  0.62452720  1
  O  O341  1  0.00651913  0.49472560  0.12161612  1
  O  O342  1  -0.01084557  0.50870134  0.61141178  1
  O  O343  1  0.50334963  0.00320865  0.11778403  1
  O  O344  1  0.50304126  -0.00711859  0.60863972  1
  O  O345  1  0.50144199  0.50192636  0.10564467  1
  O  O346  1  0.50660582  0.51260206  0.62853082  1
  O  O347  1  0.24073921  0.38010730  0.24711874  1
  O  O348  1  0.24136573  0.38505794  0.74411705  1
  O  O349  1  0.24077924  0.87888025  0.24078822  1
  O  O350  1  0.24210005  0.88815785  0.74021037  1
  O  O351  1  0.74060775  0.37173129  0.24150930  1
  O  O352  1  0.76428080  0.38606641  0.74844252  1
  O  O353  1  0.74483625  0.88091187  0.24154007  1
  O  O354  1  0.74866287  0.88032896  0.74260885  1
  O  O355  1  0.25282230  0.11967525  0.25802552  1
  O  O356  1  0.25419688  0.11370678  0.75044553  1
  O  O357  1  0.25396185  0.60859584  0.25383836  1
  O  O358  1  0.24007183  0.60820866  0.74848978  1
  O  O359  1  0.75358286  0.11691974  0.25422163  1
  O  O360  1  0.76973612  0.11243890  0.74619624  1
  O  O361  1  0.75481421  0.62658429  0.25600906  1
  O  O362  1  0.76375104  0.63511289  0.75720877  1
  O  O363  1  0.38000559  0.11280099  0.37327045  1
  O  O364  1  0.37064979  0.11766660  0.86221706  1
  O  O365  1  0.39119115  0.63760298  0.36760868  1
  O  O366  1  0.35482655  0.67183803  0.86796948  1
  O  O367  1  0.86683303  0.11879589  0.37123157  1
  O  O368  1  0.87942967  0.12928297  0.86263627  1
  O  O369  1  0.86393898  0.64047291  0.37174661  1
  O  O370  1  0.86985150  0.61797855  0.86910826  1
  O  O371  1  0.12946567  0.38331663  0.13195986  1
  O  O372  1  0.13140167  0.36821323  0.63498575  1
  O  O373  1  0.13212140  0.87837635  0.12616957  1
  O  O374  1  0.12685117  0.88525584  0.63264786  1
  O  O375  1  0.63932257  0.37019956  0.12378347  1
  O  O376  1  0.63907488  0.39932952  0.62691241  1
  O  O377  1  0.63358642  0.87731840  0.13077292  1
  O  O378  1  0.63737835  0.87654580  0.63099807  1
  O  O379  1  0.11683104  0.25701088  0.25314050  1
  O  O380  1  0.12403875  0.25688697  0.75911192  1
  O  O381  1  0.11867134  0.75335769  0.25388809  1
  O  O382  1  0.11542181  0.75713783  0.75886635  1
  O  O383  1  0.61197077  0.25453835  0.24006622  1
  O  O384  1  0.60099463  0.23773149  0.74120952  1
  O  O385  1  0.63134066  0.76391175  0.25498151  1
  O  O386  1  0.62732717  0.76148035  0.75465602  1
  O  O387  1  0.38481889  0.25120746  0.24079204  1
  O  O388  1  0.36912400  0.23975549  0.73924956  1
  O  O389  1  0.38039296  0.75066960  0.24340367  1
  O  O390  1  0.39514793  0.76701913  0.73685058  1
  O  O391  1  0.88076716  0.24691375  0.24726290  1
  O  O392  1  0.88742950  0.23449768  0.73972781  1
  O  O393  1  0.88484363  0.74949767  0.24104328  1
  O  O394  1  0.88203638  0.74075037  0.74372831  1
  O  O395  1  0.37712804  0.48367414  0.50337647  1
  O  O396  1  0.37400048  0.49145021  0.99855169  1
  O  O397  1  0.38755919  0.99387108  0.49244557  1
  O  O398  1  0.38131484  0.99266816  0.99616808  1
  O  O399  1  0.88134091  0.50338393  0.47755612  1
  O  O400  1  0.88068969  0.49572535  0.99634743  1
  O  O401  1  0.87262351  0.99561694  0.48739501  1
  O  O402  1  0.88866830  1.00265665  1.00665793  1
  O  O403  1  0.11983062  0.00238694  0.00973184  1
  O  O404  1  0.12395977  -0.00410642  0.50814404  1
  O  O405  1  0.11565298  0.50304837  0.01086803  1
  O  O406  1  0.11436446  0.50123845  0.49631789  1
  O  O407  1  0.61720279  -0.00026766  0.00548364  1
  O  O408  1  0.61092897  -0.00338424  0.50036280  1
  O  O409  1  0.61742394  0.51306256  0.00247007  1
  O  O410  1  0.63375116  0.50797042  0.51591027  1
  O  O411  1  0.36677126  0.36338305  0.11735764  1
  O  O412  1  0.36377297  0.36678966  0.61967986  1
  O  O413  1  0.36813158  0.86931611  0.12103793  1
  O  O414  1  0.35661109  0.88520788  0.62719926  1
  O  O415  1  0.86753146  0.36998249  0.12261247  1
  O  O416  1  0.88347667  0.35335706  0.62664070  1
  O  O417  1  0.86520679  0.86811703  0.13064991  1
  O  O418  1  0.87287776  0.87344545  0.61961764  1
  O  O419  1  0.12080569  0.13897357  0.36802072  1
  O  O420  1  0.12464283  0.13343905  0.88240573  1
  O  O421  1  0.12499220  0.63652426  0.37654331  1
  O  O422  1  0.12607187  0.63585689  0.88476002  1
  O  O423  1  0.62851209  0.13355194  0.37151096  1
  O  O424  1  0.62567986  0.11850913  0.89138820  1
  O  O425  1  0.63434617  0.64178503  0.37258894  1
  O  O426  1  0.63113435  0.63799856  0.87747379  1
