# generated using pymatgen
data_V85Zn86O256
_symmetry_space_group_name_H-M   'P 1'
_cell_length_a   16.92013174
_cell_length_b   16.92650257
_cell_length_c   16.92736690
_cell_angle_alpha   90.03526772
_cell_angle_beta   89.98904804
_cell_angle_gamma   90.01431232
_symmetry_Int_Tables_number   1
_chemical_formula_structural   V85Zn86O256
_chemical_formula_sum   'V85 Zn86 O256'
_cell_volume   4847.97392865
_cell_formula_units_Z   1
loop_
 _symmetry_equiv_pos_site_id
 _symmetry_equiv_pos_as_xyz
  1  'x, y, z'
loop_
 _atom_site_type_symbol
 _atom_site_label
 _atom_site_symmetry_multiplicity
 _atom_site_fract_x
 _atom_site_fract_y
 _atom_site_fract_z
 _atom_site_occupancy
  V  V0  1  0.75303211  0.01934139  0.24973426  1
  V  V1  1  0.24981949  0.37059131  0.61924110  1
  V  V2  1  0.00175932  0.86147689  0.87582549  1
  V  V3  1  0.89140108  0.75113837  0.62951135  1
  V  V4  1  0.87125605  0.37688973  -0.00095244  1
  V  V5  1  0.12330753  0.25169774  0.87600100  1
  V  V6  1  0.74544689  0.74764604  0.00837242  1
  V  V7  1  0.24738977  0.00063258  0.25156692  1
  V  V8  1  0.12651662  0.38004481  0.74843584  1
  V  V9  1  0.86835732  0.12623009  0.75597724  1
  V  V10  1  0.88290179  0.88133290  0.50090588  1
  V  V11  1  0.12994760  0.49369588  0.12335113  1
  V  V12  1  0.37336121  0.74508350  0.63345244  1
  V  V13  1  0.88159868  0.47951187  0.37107254  1
  V  V14  1  -0.00509006  0.12433785  0.13442222  1
  V  V15  1  0.87403071  0.01590481  0.37789742  1
  V  V16  1  0.63715527  0.12400598  0.49624395  1
  V  V17  1  0.75074370  0.50520796  0.24756575  1
  V  V18  1  0.49948562  0.12740080  0.62639732  1
  V  V19  1  0.89019010  0.63157589  0.74740252  1
  V  V20  1  0.87091027  0.24813018  0.13131132  1
  V  V21  1  0.86954597  0.87249250  0.00657818  1
  V  V22  1  0.37826380  0.49672951  0.37305239  1
  V  V23  1  0.62506221  0.25056816  0.37494461  1
  V  V24  1  0.25240667  0.49396391  0.24516710  1
  V  V25  1  -0.00325476  0.37668781  0.87430817  1
  V  V26  1  0.50130868  0.87449844  0.86998033  1
  V  V27  1  0.11979147  0.86093719  0.75179939  1
  V  V28  1  0.76437846  0.62635397  0.37297133  1
  V  V29  1  -0.00159079  0.25837928  0.25383200  1
  V  V30  1  0.86833525  0.50299005  0.86848721  1
  V  V31  1  0.86661397  0.26011068  0.62061659  1
  V  V32  1  0.50201259  0.87407316  0.37442950  1
  V  V33  1  0.25177146  0.87360334  0.12421682  1
  V  V34  1  -0.00209343  0.50273193  0.00120869  1
  V  V35  1  0.49785009  0.61765188  0.62727237  1
  V  V36  1  0.74939780  0.24626317  -0.00685688  1
  V  V37  1  0.62635602  -0.00613916  0.62656089  1
  V  V38  1  0.74098597  0.38071077  0.12367831  1
  V  V39  1  0.50254528  0.49345602  0.49578357  1
  V  V40  1  0.63625337  0.87607089  0.24386779  1
  V  V41  1  0.37549474  0.00016131  0.37585459  1
  V  V42  1  0.50265038  -0.00199570  0.50138630  1
  V  V43  1  0.62727164  0.40027690  0.74380202  1
  V  V44  1  0.24985575  0.74454283  0.49545414  1
  V  V45  1  0.62787341  0.61832573  0.50415129  1
  V  V46  1  0.37398185  0.50387661  0.87275267  1
  V  V47  1  0.24856770  0.12711988  0.87476757  1
  V  V48  1  0.62330086  0.24976525  0.86789035  1
  V  V49  1  0.62644160  0.12270679  -0.00565685  1
  V  V50  1  0.87045102  0.00122993  0.87778162  1
  V  V51  1  0.11128938  0.62627854  0.50123674  1
  V  V52  1  0.51096888  0.62500671  0.11833104  1
  V  V53  1  0.51160524  0.74948168  0.74702997  1
  V  V54  1  -0.00112423  0.62898585  0.13899317  1
  V  V55  1  0.37512654  0.36658678  0.49617478  1
  V  V56  1  0.24848222  0.12886898  0.38545914  1
  V  V57  1  0.37483622  0.00024776  0.87503268  1
  V  V58  1  0.12460519  0.62908903  -0.00372354  1
  V  V59  1  0.62543750  0.75184137  0.87798959  1
  V  V60  1  -0.00436498  0.25075166  0.75137603  1
  V  V61  1  0.37416759  0.87119500  0.50110329  1
  V  V62  1  0.24320322  0.00035301  0.74888173  1
  V  V63  1  0.24959190  0.62933551  0.86472366  1
  V  V64  1  0.51262977  0.50060557  0.00163625  1
  V  V65  1  0.75199058  0.75158174  0.50257526  1
  V  V66  1  0.12461048  0.25713614  0.38286969  1
  V  V67  1  0.37147312  0.25663751  0.12551689  1
  V  V68  1  -0.00237441  -0.00049938  0.00003940  1
  V  V69  1  0.61917658  0.37962104  0.25495169  1
  V  V70  1  -0.00064401  0.87548623  0.36613190  1
  V  V71  1  0.74889016  0.86790157  0.62986441  1
  V  V72  1  0.12382612  0.00104593  0.12558906  1
  V  V73  1  0.24850124  0.75050574  -0.00503293  1
  V  V74  1  0.62686574  0.74892010  0.37580245  1
  V  V75  1  0.50038608  0.12339553  0.12403926  1
  V  V76  1  0.49796889  0.74934074  0.24863055  1
  V  V77  1  0.12283444  0.12576236  0.00078075  1
  V  V78  1  -0.00330545  0.48135190  0.50188215  1
  V  V79  1  0.74686908  0.62691929  0.87181575  1
  V  V80  1  0.74481334  -0.00517967  0.75401989  1
  V  V81  1  0.24799395  0.25970621  0.00434916  1
  V  V82  1  0.37579680  0.12661495  0.25030624  1
  V  V83  1  0.87685534  0.74832272  0.13675514  1
  V  V84  1  -0.00350573  0.11985708  0.62019403  1
  Zn  Zn85  1  0.11602602  -0.00433216  0.62334096  1
  Zn  Zn86  1  0.49793377  0.25599511  0.74800246  1
  Zn  Zn87  1  0.37371228  0.12945765  0.74893230  1
  Zn  Zn88  1  0.11931593  0.86848499  0.24666371  1
  Zn  Zn89  1  0.63258651  -0.00352748  0.12135662  1
  Zn  Zn90  1  0.24610651  0.87473833  0.62359373  1
  Zn  Zn91  1  0.50148162  -0.00274535  -0.00032988  1
  Zn  Zn92  1  0.25859062  0.50344826  0.74281585  1
  Zn  Zn93  1  0.37466567  0.74604529  0.12311890  1
  Zn  Zn94  1  0.49728863  0.37522416  0.87451040  1
  Zn  Zn95  1  0.75440670  0.26033432  0.49221384  1
  Zn  Zn96  1  0.49682878  0.25599703  0.25375966  1
  Zn  Zn97  1  0.12612104  0.37467337  0.24941933  1
  Zn  Zn98  1  0.12153393  0.50307989  0.62489784  1
  Zn  Zn99  1  0.12141852  0.12156329  0.50050367  1
  Zn  Zn100  1  0.37268611  0.38051225  0.00237423  1
  Zn  Zn101  1  0.74634651  0.40138016  0.62064649  1
  Zn  Zn102  1  0.37541796  0.62214354  0.24763011  1
  Zn  Zn103  1  0.11601910  0.74294792  0.36537527  1
  Zn  Zn104  1  0.24795520  0.62223263  0.37155399  1
  Zn  Zn105  1  0.37591293  0.87400978  -0.00107696  1
  Zn  Zn106  1  0.37141977  0.24864920  0.62512497  1
  Zn  Zn107  1  0.18569500  0.18822249  0.19132645  1
  Zn  Zn108  1  0.18519287  0.19099603  0.68834373  1
  Zn  Zn109  1  0.18734947  0.68443752  0.18838976  1
  Zn  Zn110  1  0.18379052  0.68691565  0.68078248  1
  Zn  Zn111  1  0.68255446  0.19187955  0.18390433  1
  Zn  Zn112  1  0.68813768  0.18113590  0.68668603  1
  Zn  Zn113  1  0.68772831  0.68759665  0.18952889  1
  Zn  Zn114  1  0.69229957  0.58196809  0.68858029  1
  Zn  Zn115  1  0.30907842  0.31539938  0.31300954  1
  Zn  Zn116  1  0.31417852  0.31542402  0.81158627  1
  Zn  Zn117  1  0.31007222  0.81252317  0.31213209  1
  Zn  Zn118  1  0.31092791  0.81401367  0.81127316  1
  Zn  Zn119  1  0.80396349  0.30763621  0.30908996  1
  Zn  Zn120  1  0.80506595  0.31653290  0.80745649  1
  Zn  Zn121  1  0.81448179  0.81678022  0.31637703  1
  Zn  Zn122  1  0.81348939  0.81039941  0.81440425  1
  Zn  Zn123  1  0.18990479  0.43958758  0.43753275  1
  Zn  Zn124  1  0.18778398  0.44139512  0.93554982  1
  Zn  Zn125  1  0.18378857  0.94001191  0.44265042  1
  Zn  Zn126  1  0.18514903  0.93593265  0.93534875  1
  Zn  Zn127  1  0.69247727  0.43640247  0.43690414  1
  Zn  Zn128  1  0.68744976  0.43525656  0.93105568  1
  Zn  Zn129  1  0.69318491  0.93855610  0.43513545  1
  Zn  Zn130  1  0.68733675  0.93266920  0.93862737  1
  Zn  Zn131  1  0.31220689  0.06587223  0.06097548  1
  Zn  Zn132  1  0.31224337  0.05997326  0.56395453  1
  Zn  Zn133  1  0.31695833  0.56589106  0.06183141  1
  Zn  Zn134  1  0.31082496  0.55947325  0.55994040  1
  Zn  Zn135  1  0.80947487  0.06334397  0.06615904  1
  Zn  Zn136  1  0.81466412  0.06196375  0.56669221  1
  Zn  Zn137  1  0.81156497  0.56673930  0.06169714  1
  Zn  Zn138  1  0.82464432  0.56520845  0.55784432  1
  Zn  Zn139  1  0.43920444  0.44053393  0.18224236  1
  Zn  Zn140  1  0.43851395  0.43575997  0.68663437  1
  Zn  Zn141  1  0.43832018  0.93777658  0.18756776  1
  Zn  Zn142  1  0.43495619  0.93662179  0.68907516  1
  Zn  Zn143  1  0.93433398  0.43867373  0.18614374  1
  Zn  Zn144  1  0.93568244  0.44239435  0.68756916  1
  Zn  Zn145  1  0.92874785  0.94021925  0.18999884  1
  Zn  Zn146  1  0.93621902  0.93544121  0.69309665  1
  Zn  Zn147  1  0.06002167  0.06274174  0.31576523  1
  Zn  Zn148  1  0.05787521  0.05995697  0.81091465  1
  Zn  Zn149  1  0.06459196  0.55799482  0.31551946  1
  Zn  Zn150  1  0.06265581  0.56302998  0.81595261  1
  Zn  Zn151  1  0.56488983  0.06434450  0.31240325  1
  Zn  Zn152  1  0.56298066  0.06326320  0.81234199  1
  Zn  Zn153  1  0.56523421  0.56428298  0.31406384  1
  Zn  Zn154  1  0.55567857  0.57117794  0.81808548  1
  Zn  Zn155  1  0.44562627  0.18647769  0.43666756  1
  Zn  Zn156  1  0.43750991  0.18779842  0.93752930  1
  Zn  Zn157  1  0.43685362  0.68205615  0.43693858  1
  Zn  Zn158  1  0.43410842  0.68606266  0.93804840  1
  Zn  Zn159  1  0.93933007  0.19550171  0.44007422  1
  Zn  Zn160  1  0.93488621  0.18613115  0.94019109  1
  Zn  Zn161  1  0.93766820  0.69344854  0.43749279  1
  Zn  Zn162  1  0.93383329  0.68631924  0.94336853  1
  Zn  Zn163  1  0.05804924  0.31294706  0.06320444  1
  Zn  Zn164  1  0.06153502  0.30783416  0.56598141  1
  Zn  Zn165  1  0.06303664  0.81116127  0.06341868  1
  Zn  Zn166  1  0.06531962  0.81744583  0.55666601  1
  Zn  Zn167  1  0.56043253  0.31195033  0.06134359  1
  Zn  Zn168  1  0.56738467  0.31329881  0.56272333  1
  Zn  Zn169  1  0.56216132  0.81396557  0.06094709  1
  Zn  Zn170  1  0.56452632  0.80874459  0.56413647  1
  O  O171  1  0.11644582  0.12025838  0.12060672  1
  O  O172  1  0.10451260  0.13170321  0.63024881  1
  O  O173  1  0.11540794  0.61811033  0.11539977  1
  O  O174  1  0.12688587  0.62084962  0.60668512  1
  O  O175  1  0.61661956  0.12542228  0.11403227  1
  O  O176  1  0.61955111  0.11489672  0.61770584  1
  O  O177  1  0.61059068  0.62807027  0.12708923  1
  O  O178  1  0.61500871  0.62998569  0.61247619  1
  O  O179  1  0.37235782  0.38526107  0.38171435  1
  O  O180  1  0.37562927  0.38816808  0.88063723  1
  O  O181  1  0.38138004  0.87941058  0.38181483  1
  O  O182  1  0.38050917  0.88287860  0.87558372  1
  O  O183  1  0.87132697  0.38132221  0.37267008  1
  O  O184  1  0.87488357  0.38474513  0.87573930  1
  O  O185  1  0.88245796  0.88314132  0.38243399  1
  O  O186  1  0.88215715  0.87953083  0.88564625  1
  O  O187  1  0.25495549  0.00570165  0.36786228  1
  O  O188  1  0.25362358  0.00491119  0.86684402  1
  O  O189  1  0.25811823  0.50032310  0.36548991  1
  O  O190  1  0.25937762  0.50843795  0.87355825  1
  O  O191  1  0.76238343  -0.00130610  0.36395427  1
  O  O192  1  0.76188647  -0.00949254  0.86932680  1
  O  O193  1  0.76430154  0.50642181  0.37033959  1
  O  O194  1  0.76049325  0.50988298  0.88063799  1
  O  O195  1  0.24038466  0.50634756  0.12857603  1
  O  O196  1  0.24559770  0.48917312  0.62654042  1
  O  O197  1  0.24603809  0.99635389  0.13119001  1
  O  O198  1  0.25310820  0.99717284  0.64075260  1
  O  O199  1  0.75753673  0.49371204  0.13435268  1
  O  O200  1  0.75468391  0.51408367  0.62599528  1
  O  O201  1  0.75134198  1.00153447  0.14344975  1
  O  O202  1  0.74806172  0.98950210  0.63351256  1
  O  O203  1  0.00137893  0.36165895  0.24277497  1
  O  O204  1  0.00398194  0.37078710  0.75541053  1
  O  O205  1  -0.00200604  0.88043719  0.26225298  1
  O  O206  1  0.01075229  0.87745173  0.75975137  1
  O  O207  1  0.51604647  0.37629763  0.23907601  1
  O  O208  1  0.51433308  0.37726960  0.75323338  1
  O  O209  1  0.50642155  0.86925331  0.25634268  1
  O  O210  1  0.49443878  0.86698866  0.76180731  1
  O  O211  1  0.49368017  0.12656261  0.24178663  1
  O  O212  1  0.49933028  0.12115633  0.73566607  1
  O  O213  1  0.50198593  0.63322242  0.24124077  1
  O  O214  1  0.50135265  0.63415496  0.73771965  1
  O  O215  1  1.00331837  0.13393614  0.23827175  1
  O  O216  1  0.98752484  0.13177859  0.74695579  1
  O  O217  1  1.00562621  0.62244428  0.23714143  1
  O  O218  1  0.98938896  0.62868366  0.75705412  1
  O  O219  1  0.36456216  0.25030903  0.00671959  1
  O  O220  1  0.38378961  0.26377617  0.49818758  1
  O  O221  1  0.36192583  0.75194593  0.00167739  1
  O  O222  1  0.36995169  0.75336091  0.50522447  1
  O  O223  1  0.86657640  0.25608622  0.00602714  1
  O  O224  1  0.87299532  0.25003429  0.51648758  1
  O  O225  1  0.86703426  0.75682991  0.00818697  1
  O  O226  1  0.86983955  0.75853170  0.50854323  1
  O  O227  1  0.11854243  0.24313751  0.48658188  1
  O  O228  1  0.12865975  0.24595353  0.99720500  1
  O  O229  1  0.13040098  0.74072258  0.49561008  1
  O  O230  1  0.13683470  0.74176700  1.00484355  1
  O  O231  1  0.62417344  0.24143202  0.49113603  1
  O  O232  1  0.63073443  0.24581344  0.99070379  1
  O  O233  1  0.63246462  0.74297401  0.49467507  1
  O  O234  1  0.63549702  0.75430741  0.99401194  1
  O  O235  1  0.49147911  0.23927832  0.12482065  1
  O  O236  1  0.50193009  0.23900630  0.62597090  1
  O  O237  1  0.49891800  0.74228988  0.12987183  1
  O  O238  1  0.49393718  0.74383825  0.63073990  1
  O  O239  1  0.99055750  0.24401485  0.12957630  1
  O  O240  1  0.98605828  0.24512324  0.63330221  1
  O  O241  1  0.99437691  0.73693467  0.12114624  1
  O  O242  1  0.99013044  0.75692820  0.62010537  1
  O  O243  1  0.01210844  0.24339538  0.36595168  1
  O  O244  1  0.00256899  0.25631865  0.87198777  1
  O  O245  1  -0.00238456  0.77014066  0.37741425  1
  O  O246  1  -0.00298871  0.76249046  0.88452969  1
  O  O247  1  0.51629630  0.24762763  0.37023697  1
  O  O248  1  0.50870841  0.25427103  0.87451553  1
  O  O249  1  0.50596018  0.75178040  0.36746666  1
  O  O250  1  0.50349973  0.75319545  0.86984155  1
  O  O251  1  0.25492540  0.12570761  0.48739307  1
  O  O252  1  0.24115928  0.13223234  0.99327531  1
  O  O253  1  0.24112360  0.63009751  0.49610974  1
  O  O254  1  0.24332966  0.63227950  0.99350171  1
  O  O255  1  0.73880429  0.12776290  0.50728554  1
  O  O256  1  0.74101273  0.13581825  1.00555871  1
  O  O257  1  0.74560327  0.63162181  0.49232978  1
  O  O258  1  0.75815595  0.63649319  0.98625431  1
  O  O259  1  0.24750261  0.36273813  -0.00183098  1
  O  O260  1  0.26110497  0.37974430  0.50677602  1
  O  O261  1  0.24870925  0.86868264  0.00594347  1
  O  O262  1  0.25648558  0.86554182  0.50077938  1
  O  O263  1  0.75201800  0.37038412  0.00558296  1
  O  O264  1  0.74072613  0.37112278  0.51142393  1
  O  O265  1  0.75966967  0.86431329  -0.00079793  1
  O  O266  1  0.76023727  0.87049274  0.50563859  1
  O  O267  1  0.13176179  0.49744485  0.24152047  1
  O  O268  1  0.12090411  0.48881163  0.74848421  1
  O  O269  1  0.13241626  0.99820781  0.24413034  1
  O  O270  1  0.12987329  0.99435086  0.74669012  1
  O  O271  1  0.63888787  0.49234173  0.25953447  1
  O  O272  1  0.62482932  0.50357743  0.75174560  1
  O  O273  1  0.63778504  0.99467722  0.25243863  1
  O  O274  1  0.63894828  1.00332955  0.74737776  1
  O  O275  1  0.36868093  0.00561036  0.25644670  1
  O  O276  1  0.36537722  0.00080516  0.76087010  1
  O  O277  1  0.37112767  0.49697525  0.25502268  1
  O  O278  1  0.37757903  0.49709804  0.76709808  1
  O  O279  1  0.86149467  0.00176595  0.26054860  1
  O  O280  1  0.86811233  0.00544225  0.75970780  1
  O  O281  1  0.86773568  0.49567764  0.26239364  1
  O  O282  1  0.88037342  0.51505425  0.75901341  1
  O  O283  1  0.12993239  0.36004542  0.37438419  1
  O  O284  1  0.11850874  0.37193003  0.86912274  1
  O  O285  1  0.10655412  0.88243995  0.37627614  1
  O  O286  1  0.11536661  0.87928108  0.86280582  1
  O  O287  1  0.62806386  0.36497915  0.36578858  1
  O  O288  1  0.62290800  0.36898669  0.86097987  1
  O  O289  1  0.62022168  0.86837798  0.37021088  1
  O  O290  1  0.61650540  0.86314677  0.87660720  1
  O  O291  1  0.38062515  0.13237554  0.12985720  1
  O  O292  1  0.38433960  0.12690011  0.62455642  1
  O  O293  1  0.38891049  0.62762179  0.12882619  1
  O  O294  1  0.38431268  0.63417907  0.61586081  1
  O  O295  1  0.88294512  0.13676208  0.11807762  1
  O  O296  1  0.88166378  0.13214672  0.63473840  1
  O  O297  1  0.89106747  0.63157337  0.12091344  1
  O  O298  1  0.87627293  0.63624350  0.63983229  1
  O  O299  1  0.25754823  0.24105695  0.11600323  1
  O  O300  1  0.24965563  0.26447278  0.62791064  1
  O  O301  1  0.25226164  0.75884702  0.11822862  1
  O  O302  1  0.25750869  0.74970172  0.61389894  1
  O  O303  1  0.75531038  0.25741216  0.11680615  1
  O  O304  1  0.76374538  0.24520363  0.62802811  1
  O  O305  1  0.75901781  0.73961116  0.11577394  1
  O  O306  1  0.76036889  0.76353631  0.62154705  1
  O  O307  1  0.23505216  0.24067734  0.36612331  1
  O  O308  1  0.24278030  0.24627233  0.88257074  1
  O  O309  1  0.25251698  0.74740508  0.38709890  1
  O  O310  1  0.25403545  0.74174521  0.88155989  1
  O  O311  1  0.73435500  0.24753799  0.37573217  1
  O  O312  1  0.74367310  0.25585883  0.88699801  1
  O  O313  1  0.74753724  0.74428272  0.38025496  1
  O  O314  1  0.74264853  0.74762402  0.88321203  1
  O  O315  1  0.00425193  0.11976651  0.00915128  1
  O  O316  1  -0.00465400  0.12787074  0.51784215  1
  O  O317  1  0.00812841  0.61975668  0.00335284  1
  O  O318  1  0.00923555  0.62234013  0.49514670  1
  O  O319  1  0.50692093  0.12235542  0.00656650  1
  O  O320  1  0.50750808  0.11599059  0.50988501  1
  O  O321  1  0.49894155  0.61777327  0.00949487  1
  O  O322  1  0.50894428  0.61809079  0.50535884  1
  O  O323  1  0.49542819  0.38823640  0.50736863  1
  O  O324  1  0.49905091  0.38939903  0.99937491  1
  O  O325  1  0.49559067  0.87765803  0.49442957  1
  O  O326  1  0.49647092  0.87638671  0.98679395  1
  O  O327  1  1.00261778  0.38288015  0.49801337  1
  O  O328  1  0.99078567  0.38043268  0.99399400  1
  O  O329  1  0.98783277  0.87860924  0.49307704  1
  O  O330  1  0.99578313  0.88194558  0.99510547  1
  O  O331  1  0.49273006  0.50426118  0.38389497  1
  O  O332  1  0.49071515  0.50500907  0.88621896  1
  O  O333  1  0.49523891  0.99526935  0.38058153  1
  O  O334  1  0.49227762  0.99240502  0.87322699  1
  O  O335  1  0.98753544  0.49750477  0.37814860  1
  O  O336  1  0.98962899  0.49561686  0.88191942  1
  O  O337  1  0.98284325  0.99418505  0.36981598  1
  O  O338  1  0.98777876  0.99394484  0.88149408  1
  O  O339  1  0.00058524  0.00741458  0.12195449  1
  O  O340  1  -0.00537248  0.01664585  0.63361422  1
  O  O341  1  0.00308713  0.51045206  0.12023650  1
  O  O342  1  -0.00132689  0.49577625  0.60650860  1
  O  O343  1  0.49982647  0.01243550  0.12258559  1
  O  O344  1  0.50666374  0.00104224  0.62046947  1
  O  O345  1  0.49961543  0.51060656  0.11094003  1
  O  O346  1  0.49328183  0.51192584  0.61569419  1
  O  O347  1  0.24699533  0.38810707  0.24759379  1
  O  O348  1  0.24061830  0.37978197  0.74478451  1
  O  O349  1  0.25232267  0.88799272  0.24326325  1
  O  O350  1  0.23626539  0.88158904  0.75126002  1
  O  O351  1  0.74216963  0.38269621  0.24136523  1
  O  O352  1  0.72997688  0.37778127  0.74662868  1
  O  O353  1  0.73812291  0.87800708  0.25499647  1
  O  O354  1  0.75805658  0.88253862  0.74228514  1
  O  O355  1  0.25523170  0.11435804  0.25510941  1
  O  O356  1  0.24710400  0.11870414  0.75729514  1
  O  O357  1  0.25420521  0.61111441  0.25036680  1
  O  O358  1  0.23955341  0.62303809  0.76096757  1
  O  O359  1  0.74445619  0.11774436  0.24932801  1
  O  O360  1  0.76189766  0.11300779  0.74726292  1
  O  O361  1  0.74468502  0.61524147  0.25925079  1
  O  O362  1  0.76241062  0.63226177  0.76716254  1
  O  O363  1  0.36969535  0.12198938  0.36958051  1
  O  O364  1  0.36736981  0.11802438  0.87329455  1
  O  O365  1  0.37350783  0.61104724  0.37117897  1
  O  O366  1  0.36442252  0.61473497  0.87789557  1
  O  O367  1  0.87855918  0.11474685  0.38165224  1
  O  O368  1  0.87790702  0.11437082  0.86931755  1
  O  O369  1  0.86618819  0.62514198  0.37694591  1
  O  O370  1  0.87169311  0.62132108  0.86801226  1
  O  O371  1  0.11811900  0.39049525  0.12251296  1
  O  O372  1  0.12946281  0.37568210  0.63191231  1
  O  O373  1  0.13550433  0.88276671  0.12458742  1
  O  O374  1  0.12439000  0.87588542  0.63766472  1
  O  O375  1  0.63711486  0.36873352  0.12990014  1
  O  O376  1  0.62213790  0.37799195  0.64238047  1
  O  O377  1  0.61647923  0.87992612  0.13839847  1
  O  O378  1  0.63584540  0.88130110  0.61967779  1
  O  O379  1  0.11599213  0.25279865  0.25688844  1
  O  O380  1  0.11736283  0.26186910  0.75672506  1
  O  O381  1  0.13585489  0.75702782  0.25535079  1
  O  O382  1  0.12792942  0.76232506  0.74891468  1
  O  O383  1  0.62414729  0.25820006  0.25803736  1
  O  O384  1  0.62507927  0.24053183  0.76297091  1
  O  O385  1  0.61709939  0.75807128  0.25440962  1
  O  O386  1  0.61162152  0.75263244  0.75819719  1
  O  O387  1  0.37452912  0.24526760  0.24356838  1
  O  O388  1  0.37949332  0.24817562  0.74695009  1
  O  O389  1  0.38884204  0.75162336  0.24967496  1
  O  O390  1  0.37990147  0.75491375  0.73651247  1
  O  O391  1  0.87908707  0.25292785  0.23905470  1
  O  O392  1  0.87506582  0.24252332  0.74820507  1
  O  O393  1  0.86825425  0.75629301  0.23584955  1
  O  O394  1  0.87707406  0.74168793  0.74505084  1
  O  O395  1  0.38300628  0.49334278  0.49120159  1
  O  O396  1  0.38168523  0.49989813  0.99009820  1
  O  O397  1  0.38041238  0.99130122  0.49501048  1
  O  O398  1  0.37336474  0.99990083  0.98587069  1
  O  O399  1  0.88964664  0.50282278  0.48522322  1
  O  O400  1  0.87868782  0.49558107  0.99276235  1
  O  O401  1  0.86605363  0.99458785  0.48764357  1
  O  O402  1  0.87519073  0.99296796  0.99642820  1
  O  O403  1  0.11868586  0.00542183  0.00555038  1
  O  O404  1  0.13365107  0.00974256  0.51287904  1
  O  O405  1  0.11971042  0.50686703  0.00573752  1
  O  O406  1  0.11024719  0.50730824  0.49496134  1
  O  O407  1  0.62583618  0.00796308  0.00137635  1
  O  O408  1  0.62270495  0.00523151  0.50318926  1
  O  O409  1  0.61149890  0.50025424  -0.00891308  1
  O  O410  1  0.61728945  0.51109255  0.48921184  1
  O  O411  1  0.37896002  0.36057228  0.12250911  1
  O  O412  1  0.36803681  0.37467298  0.61590294  1
  O  O413  1  0.36288361  0.87624484  0.12181802  1
  O  O414  1  0.37403204  0.86618764  0.61593151  1
  O  O415  1  0.86518417  0.36775637  0.11873216  1
  O  O416  1  0.86860447  0.36176569  0.63837537  1
  O  O417  1  0.88417120  0.86620593  0.11340801  1
  O  O418  1  0.87153314  0.87328127  0.61917537  1
  O  O419  1  0.13304745  0.13135710  0.37534322  1
  O  O420  1  0.12611873  0.13163913  0.87960655  1
  O  O421  1  0.12656627  0.62522730  0.38644215  1
  O  O422  1  0.13331866  0.61838535  0.88881009  1
  O  O423  1  0.62174644  0.13326542  0.38533863  1
  O  O424  1  0.62051446  0.13175256  0.88714009  1
  O  O425  1  0.63404610  0.63262851  0.38335790  1
  O  O426  1  0.63240935  0.64026484  0.87149966  1
