# generated using pymatgen
data_V85Zn86O256
_symmetry_space_group_name_H-M   'P 1'
_cell_length_a   16.92423487
_cell_length_b   16.93075508
_cell_length_c   16.92740767
_cell_angle_alpha   90.00998469
_cell_angle_beta   89.97188307
_cell_angle_gamma   89.99066670
_symmetry_Int_Tables_number   1
_chemical_formula_structural   V85Zn86O256
_chemical_formula_sum   'V85 Zn86 O256'
_cell_volume   4850.37994806
_cell_formula_units_Z   1
loop_
 _symmetry_equiv_pos_site_id
 _symmetry_equiv_pos_as_xyz
  1  'x, y, z'
loop_
 _atom_site_type_symbol
 _atom_site_label
 _atom_site_symmetry_multiplicity
 _atom_site_fract_x
 _atom_site_fract_y
 _atom_site_fract_z
 _atom_site_occupancy
  V  V0  1  0.00782307  0.86996925  0.35841845  1
  V  V1  1  0.12426981  0.62552719  0.49754714  1
  V  V2  1  0.35675947  0.46993301  0.89149146  1
  V  V3  1  0.75283225  0.38219689  0.62852918  1
  V  V4  1  0.88714687  0.74326101  0.13694364  1
  V  V5  1  0.74752306  0.25067855  -0.00576869  1
  V  V6  1  0.12938177  0.37509953  0.23808393  1
  V  V7  1  0.87626631  -0.00355757  0.37373609  1
  V  V8  1  0.00177493  -0.00466282  0.49886615  1
  V  V9  1  0.24428033  0.75255016  0.00059992  1
  V  V10  1  0.74946835  0.74421393  0.00409614  1
  V  V11  1  0.63047497  0.88041424  0.75212482  1
  V  V12  1  -0.00164177  0.49758526  0.48627030  1
  V  V13  1  0.62436449  0.50024039  0.12497296  1
  V  V14  1  0.62331500  0.37615038  0.24942893  1
  V  V15  1  -0.00109028  0.12482815  0.62653376  1
  V  V16  1  0.62277625  0.35944869  0.75186466  1
  V  V17  1  0.37065597  0.87729847  0.00423368  1
  V  V18  1  0.62593536  0.12660921  0.50016597  1
  V  V19  1  0.74285262  0.87003219  0.13327740  1
  V  V20  1  0.00244904  0.51852897  -0.00242728  1
  V  V21  1  0.74919399  0.60898959  0.36357758  1
  V  V22  1  -0.00264172  0.26076592  0.75481497  1
  V  V23  1  0.49488760  0.74746933  0.75094713  1
  V  V24  1  0.11965733  0.74124204  0.87475407  1
  V  V25  1  0.37820273  0.87268330  0.50214566  1
  V  V26  1  -0.00300032  0.25610778  0.25456296  1
  V  V27  1  0.87948087  0.37789550  0.48524748  1
  V  V28  1  0.12693857  -0.01526487  0.13040964  1
  V  V29  1  0.12833200  0.12588006  0.00515376  1
  V  V30  1  0.62433524  0.12742671  0.00115847  1
  V  V31  1  0.74919559  0.37894110  0.12557067  1
  V  V32  1  0.87608969  0.25233449  0.62390421  1
  V  V33  1  0.37213332  0.62467025  0.25667404  1
  V  V34  1  0.62494538  0.74692699  0.87631212  1
  V  V35  1  0.50591445  0.35718960  0.87733655  1
  V  V36  1  0.87201706  0.87238233  0.00122626  1
  V  V37  1  0.24771554  0.37709382  0.63122048  1
  V  V38  1  -0.00073836  0.87657611  0.87550331  1
  V  V39  1  0.25123330  0.87642635  0.62275845  1
  V  V40  1  0.49574388  0.62236623  0.12300566  1
  V  V41  1  0.24763783  0.12628846  0.37491858  1
  V  V42  1  0.75594582  0.86403393  0.62455756  1
  V  V43  1  0.86833558  -0.00103264  0.87270272  1
  V  V44  1  0.75203172  0.25131671  0.49823841  1
  V  V45  1  0.25059745  0.25270183  0.50389320  1
  V  V46  1  0.37658143  0.13570759  0.75268784  1
  V  V47  1  0.50127150  0.13281611  0.63105380  1
  V  V48  1  0.74404475  -0.00398624  0.25199305  1
  V  V49  1  0.62484999  0.50171905  0.63952663  1
  V  V50  1  0.25123827  0.50967806  0.74907626  1
  V  V51  1  0.37503219  0.00258182  0.87751863  1
  V  V52  1  0.26838801  0.63882206  0.86255744  1
  V  V53  1  0.37851478  0.13801432  0.25348114  1
  V  V54  1  0.25139912  0.00346664  0.75159466  1
  V  V55  1  0.25011379  0.74370751  0.49626039  1
  V  V56  1  0.74690483  0.61543677  0.87128845  1
  V  V57  1  0.36388093  0.25823914  0.10974706  1
  V  V58  1  0.87495258  0.24748616  0.12416581  1
  V  V59  1  0.50949155  0.87516606  0.37286515  1
  V  V60  1  0.88644448  0.60478644  0.25057409  1
  V  V61  1  0.50365808  0.49979017  0.50238633  1
  V  V62  1  0.50171041  0.00030859  0.50352691  1
  V  V63  1  0.87053749  0.63099401  0.74206075  1
  V  V64  1  0.87186564  0.12381018  0.75138941  1
  V  V65  1  0.88445492  0.37554297  -0.00563160  1
  V  V66  1  0.36867554  0.75167116  0.12700753  1
  V  V67  1  0.12497154  0.00181951  0.62505897  1
  V  V68  1  0.12912212  0.74698122  0.35926552  1
  V  V69  1  0.49912227  0.37196301  0.37417190  1
  V  V70  1  0.62378654  0.24853669  0.36887667  1
  V  V71  1  0.49921937  0.00088206  0.00940956  1
  V  V72  1  0.74336917  0.12207100  0.87142767  1
  V  V73  1  0.25641863  0.49394090  0.23692667  1
  V  V74  1  0.87596203  0.49534322  0.86492569  1
  V  V75  1  0.12375868  0.87723065  0.75147516  1
  V  V76  1  0.37361097  0.00188326  0.37567493  1
  V  V77  1  0.50825036  0.75383973  0.24946694  1
  V  V78  1  0.50332453  0.87728231  0.87639048  1
  V  V79  1  0.50068778  0.13352734  0.13204482  1
  V  V80  1  0.12224230  0.25599858  0.88117970  1
  V  V81  1  0.63529948  0.00251572  0.63030750  1
  V  V82  1  0.36825992  0.50169724  0.37878585  1
  V  V83  1  0.49474861  0.62448789  0.62931499  1
  V  V84  1  0.12082508  0.26040509  0.37652026  1
  Zn  Zn85  1  0.37552809  0.37655522  0.50629154  1
  Zn  Zn86  1  -0.00623685  0.75282887  0.74062521  1
  Zn  Zn87  1  0.37823216  0.25617450  0.63216956  1
  Zn  Zn88  1  0.62087664  -0.00506858  0.13274793  1
  Zn  Zn89  1  0.12055982  0.50385133  0.62640117  1
  Zn  Zn90  1  0.75816101  0.74150652  0.49328549  1
  Zn  Zn91  1  0.12344098  0.12664040  0.49920231  1
  Zn  Zn92  1  0.63183248  0.75011515  0.37504550  1
  Zn  Zn93  1  0.87486214  0.12382245  0.25020260  1
  Zn  Zn94  1  0.75153545  0.12311134  0.37400203  1
  Zn  Zn95  1  0.62960402  0.62704156  0.49840779  1
  Zn  Zn96  1  0.49047578  0.49289357  -0.00076228  1
  Zn  Zn97  1  0.11894449  0.38156787  0.75418710  1
  Zn  Zn98  1  0.24072134  -0.00981627  0.25217064  1
  Zn  Zn99  1  0.11557586  0.50877017  0.12108226  1
  Zn  Zn100  1  0.25000607  0.12705277  0.88248224  1
  Zn  Zn101  1  -0.00273026  0.00287148  0.00328216  1
  Zn  Zn102  1  0.00085811  0.12344604  0.12749945  1
  Zn  Zn103  1  0.88362705  0.86349507  0.50516116  1
  Zn  Zn104  1  0.62277463  0.61999275  -0.00077674  1
  Zn  Zn105  1  0.37231589  0.74555999  0.62930905  1
  Zn  Zn106  1  -0.00999269  0.63101792  0.61489765  1
  Zn  Zn107  1  0.18952275  0.18778734  0.18904043  1
  Zn  Zn108  1  0.18445763  0.18946381  0.69165514  1
  Zn  Zn109  1  0.19091723  0.67837493  0.18274045  1
  Zn  Zn110  1  0.18052202  0.69254113  0.68372024  1
  Zn  Zn111  1  0.68967935  0.18527758  0.18831538  1
  Zn  Zn112  1  0.69209403  0.18873847  0.68616542  1
  Zn  Zn113  1  0.69036695  0.68140975  0.19089435  1
  Zn  Zn114  1  0.68251578  0.68591905  0.69109373  1
  Zn  Zn115  1  0.31242628  0.31395173  0.31395820  1
  Zn  Zn116  1  0.30062201  0.31806010  0.82662185  1
  Zn  Zn117  1  0.31264496  0.81089297  0.31594383  1
  Zn  Zn118  1  0.31393263  0.81950573  0.81338371  1
  Zn  Zn119  1  0.80751956  0.31471037  0.30923766  1
  Zn  Zn120  1  0.80746502  0.31249885  0.81173912  1
  Zn  Zn121  1  0.81526661  0.80877868  0.31670891  1
  Zn  Zn122  1  0.80770371  0.81013136  0.81327366  1
  Zn  Zn123  1  0.18697029  0.43716373  0.43702851  1
  Zn  Zn124  1  0.18099588  0.44330947  0.93009073  1
  Zn  Zn125  1  0.18594445  0.93455282  0.43592513  1
  Zn  Zn126  1  0.18501615  0.94020643  0.94099765  1
  Zn  Zn127  1  0.68769572  0.43854843  0.44057811  1
  Zn  Zn128  1  0.68451538  0.43644186  0.93865191  1
  Zn  Zn129  1  0.68956622  0.93621514  0.44278693  1
  Zn  Zn130  1  0.68736035  0.93821675  0.94330584  1
  Zn  Zn131  1  0.30892401  0.06685080  0.06993134  1
  Zn  Zn132  1  0.31406247  0.06605229  0.56329858  1
  Zn  Zn133  1  0.28786261  0.57039592  0.06356043  1
  Zn  Zn134  1  0.31355320  0.56361882  0.56322396  1
  Zn  Zn135  1  0.81040445  0.05962338  0.06320267  1
  Zn  Zn136  1  0.81433240  0.05921812  0.55966509  1
  Zn  Zn137  1  0.81654724  0.56106894  0.06377585  1
  Zn  Zn138  1  0.81125529  0.55969867  0.55428217  1
  Zn  Zn139  1  0.43740155  0.43392912  0.18829798  1
  Zn  Zn140  1  0.43344527  0.43785425  0.70022421  1
  Zn  Zn141  1  0.40163021  0.92457122  0.20731004  1
  Zn  Zn142  1  0.44151105  0.94109252  0.68819236  1
  Zn  Zn143  1  0.94295825  0.43386835  0.18091761  1
  Zn  Zn144  1  0.93819884  0.44589449  0.67867224  1
  Zn  Zn145  1  0.93457201  0.93709361  0.18454388  1
  Zn  Zn146  1  0.93531684  0.93947587  0.69110492  1
  Zn  Zn147  1  0.06148672  0.06777905  0.30978568  1
  Zn  Zn148  1  0.05894539  0.06630238  0.81619952  1
  Zn  Zn149  1  0.06797002  0.56190945  0.31100087  1
  Zn  Zn150  1  0.05650874  0.56339900  0.81151591  1
  Zn  Zn151  1  0.56070189  0.06179865  0.31233206  1
  Zn  Zn152  1  0.56106624  0.06473333  0.81438384  1
  Zn  Zn153  1  0.56217012  0.56034552  0.31021953  1
  Zn  Zn154  1  0.54998446  0.55696248  0.81814792  1
  Zn  Zn155  1  0.43713000  0.19071009  0.44261986  1
  Zn  Zn156  1  0.43796089  0.18970789  0.93888044  1
  Zn  Zn157  1  0.44262320  0.68732281  0.43933023  1
  Zn  Zn158  1  0.43787211  0.68951938  0.94159716  1
  Zn  Zn159  1  0.93860771  0.18462397  0.43722803  1
  Zn  Zn160  1  0.93904317  0.18510041  0.93948422  1
  Zn  Zn161  1  0.93441237  0.68717585  0.42897070  1
  Zn  Zn162  1  0.93154682  0.68832954  0.93184755  1
  Zn  Zn163  1  0.06274136  0.31206783  0.06389847  1
  Zn  Zn164  1  0.06321327  0.31655874  0.56467093  1
  Zn  Zn165  1  0.06059037  0.81128641  0.05993124  1
  Zn  Zn166  1  0.06199254  0.80938812  0.56100297  1
  Zn  Zn167  1  0.55960942  0.31006385  0.06139179  1
  Zn  Zn168  1  0.56463202  0.31418228  0.56210898  1
  Zn  Zn169  1  0.56150534  0.81055322  0.06430730  1
  Zn  Zn170  1  0.56973432  0.80834171  0.56198276  1
  O  O171  1  0.12214929  0.12889450  0.11465428  1
  O  O172  1  0.11724286  0.11911631  0.62459219  1
  O  O173  1  0.18040872  0.59894983  0.10760766  1
  O  O174  1  0.12718278  0.62566251  0.60666750  1
  O  O175  1  0.61747048  0.12131085  0.12059016  1
  O  O176  1  0.62102823  0.11995064  0.62366792  1
  O  O177  1  0.61673228  0.61600712  0.12589128  1
  O  O178  1  0.61707948  0.61608381  0.62479154  1
  O  O179  1  0.38481255  0.38171091  0.37879933  1
  O  O180  1  0.40192290  0.36820405  0.85508121  1
  O  O181  1  0.38617463  0.87946003  0.39001991  1
  O  O182  1  0.38330829  0.88194019  0.88570132  1
  O  O183  1  0.87035355  0.37014399  0.38647372  1
  O  O184  1  0.86458134  0.38430830  0.88203683  1
  O  O185  1  0.89070768  0.88186878  0.37507432  1
  O  O186  1  0.87712686  0.88022530  0.87792856  1
  O  O187  1  0.25392799  0.00937453  0.37632843  1
  O  O188  1  0.25563288  0.00215907  0.86775135  1
  O  O189  1  0.26573204  0.49534495  0.37214729  1
  O  O190  1  0.25129384  0.52882141  0.86927138  1
  O  O191  1  0.75967377  -0.00473336  0.37051332  1
  O  O192  1  0.75654235  0.00836228  0.88098982  1
  O  O193  1  0.74632795  0.50899876  0.37205916  1
  O  O194  1  0.75662849  0.51028763  0.88362487  1
  O  O195  1  0.28001663  0.48123962  0.14094249  1
  O  O196  1  0.24952016  0.49656672  0.63301153  1
  O  O197  1  0.23154418  1.00528636  0.12845590  1
  O  O198  1  0.24611801  0.99686023  0.63100851  1
  O  O199  1  0.74236746  0.48597731  0.11656825  1
  O  O200  1  0.73983451  0.48898176  0.61838869  1
  O  O201  1  0.75065514  0.98863763  0.13410338  1
  O  O202  1  0.73886716  0.99446908  0.62355801  1
  O  O203  1  0.00931450  0.36408833  0.24646725  1
  O  O204  1  -0.00242876  0.36402836  0.74147831  1
  O  O205  1  0.00091547  0.87787325  0.26075685  1
  O  O206  1  0.00236869  0.87572779  0.76112858  1
  O  O207  1  0.51272049  0.37622397  0.26043482  1
  O  O208  1  0.51678739  0.37573963  0.75402447  1
  O  O209  1  0.49117168  0.86650703  0.26105289  1
  O  O210  1  0.51100416  0.87279830  0.75631081  1
  O  O211  1  0.49549116  0.12577407  0.24189003  1
  O  O212  1  0.48997429  0.12069041  0.74326345  1
  O  O213  1  0.49244303  0.62973550  0.24001738  1
  O  O214  1  0.50561773  0.63599669  0.74390227  1
  O  O215  1  0.99528754  0.13994029  0.24719699  1
  O  O216  1  0.99094868  0.13161558  0.74435575  1
  O  O217  1  0.98701888  0.61689267  0.25086469  1
  O  O218  1  0.98105503  0.62722088  0.74988672  1
  O  O219  1  0.36768696  0.24314058  0.00958071  1
  O  O220  1  0.36122381  0.25280563  0.50598959  1
  O  O221  1  0.37035574  0.75950980  0.00702483  1
  O  O222  1  0.36978650  0.75686914  0.50142950  1
  O  O223  1  0.86794611  0.25533404  0.00499520  1
  O  O224  1  0.87297359  0.25603525  0.50515550  1
  O  O225  1  0.86456237  0.75151237  0.00619976  1
  O  O226  1  0.87261364  0.75201855  0.49539183  1
  O  O227  1  0.13325992  0.25084173  0.49460039  1
  O  O228  1  0.11837588  0.24259775  0.98951784  1
  O  O229  1  0.13378166  0.74524142  0.49017170  1
  O  O230  1  0.13383611  0.75843651  0.98914288  1
  O  O231  1  0.63166536  0.24733285  0.49145258  1
  O  O232  1  0.63313599  0.23593911  1.00614938  1
  O  O233  1  0.63424892  0.74514560  0.49509885  1
  O  O234  1  0.63269783  0.74635603  0.99547661  1
  O  O235  1  0.49246336  0.23631045  0.11881500  1
  O  O236  1  0.49906325  0.23706822  0.61955155  1
  O  O237  1  0.49057627  0.74413704  0.13062462  1
  O  O238  1  0.50175490  0.74243658  0.63359906  1
  O  O239  1  0.98925763  0.25099277  0.13224654  1
  O  O240  1  0.99461922  0.24450625  0.63061704  1
  O  O241  1  0.98492103  0.74963892  0.11885495  1
  O  O242  1  1.00459163  0.74361056  0.62793367  1
  O  O243  1  0.00867880  0.24602994  0.36864126  1
  O  O244  1  0.00723776  0.24273709  0.86480353  1
  O  O245  1  0.01452943  0.76223505  0.37424261  1
  O  O246  1  0.00435548  0.75869873  0.87240874  1
  O  O247  1  0.50830949  0.26380072  0.38528714  1
  O  O248  1  0.50852394  0.25732139  0.87726196  1
  O  O249  1  0.50273164  0.75753836  0.36715906  1
  O  O250  1  0.50647426  0.75621262  0.87119391  1
  O  O251  1  0.24850544  0.13329267  0.49233324  1
  O  O252  1  0.23390442  0.12148128  0.99979882  1
  O  O253  1  0.24761281  0.63762220  0.50085275  1
  O  O254  1  0.26013306  0.64796491  0.97709959  1
  O  O255  1  0.74387862  0.13145460  0.49880277  1
  O  O256  1  0.74264543  0.12945176  0.99570806  1
  O  O257  1  0.74936564  0.62030771  0.48198925  1
  O  O258  1  0.74892599  0.63194646  0.99525827  1
  O  O259  1  0.28178726  0.39513933  -0.07710070  1
  O  O260  1  0.25133801  0.36938121  0.50939090  1
  O  O261  1  0.26009763  0.86642605  -0.00806132  1
  O  O262  1  0.25849253  0.86740227  0.50256278  1
  O  O263  1  0.75321287  0.36572196  0.00482193  1
  O  O264  1  0.75703874  0.37041681  0.50715728  1
  O  O265  1  0.75387931  0.86321386  0.00648195  1
  O  O266  1  0.75131120  0.87435943  0.51712174  1
  O  O267  1  0.13698033  0.49390466  0.24541337  1
  O  O268  1  0.13457724  0.50247736  0.75099620  1
  O  O269  1  0.12412792  1.00451586  0.23579199  1
  O  O270  1  0.13174327  0.99815976  0.74741380  1
  O  O271  1  0.61998207  0.49035893  0.23526305  1
  O  O272  1  0.62076534  0.49494260  0.74130337  1
  O  O273  1  0.63884998  1.00147913  0.25189771  1
  O  O274  1  0.61997290  0.99233636  0.74309971  1
  O  O275  1  0.38179680  0.02246193  0.26515895  1
  O  O276  1  0.36843426  0.00537202  0.75593697  1
  O  O277  1  0.37794055  0.50450713  0.26126459  1
  O  O278  1  0.35657710  0.49510166  0.76921406  1
  O  O279  1  0.86711491  0.00033013  0.25716869  1
  O  O280  1  0.87639389  0.00756268  0.76460663  1
  O  O281  1  0.87593072  0.50604871  0.23924009  1
  O  O282  1  0.87677686  0.50623671  0.76021808  1
  O  O283  1  0.12786902  0.36379718  0.36787184  1
  O  O284  1  0.11832838  0.35934651  0.87419124  1
  O  O285  1  0.11727632  0.86491644  0.37281699  1
  O  O286  1  0.11515750  0.87320404  0.87102181  1
  O  O287  1  0.62131273  0.36999251  0.36896643  1
  O  O288  1  0.61927519  0.37963357  0.86057024  1
  O  O289  1  0.61264350  0.87630113  0.38011055  1
  O  O290  1  0.62308962  0.87175880  0.86988695  1
  O  O291  1  0.38108816  0.13278488  0.13505229  1
  O  O292  1  0.38447971  0.12602035  0.63440951  1
  O  O293  1  0.37916289  0.63333224  0.13100135  1
  O  O294  1  0.38977544  0.62661703  0.62389309  1
  O  O295  1  0.87329107  0.13784038  0.12348973  1
  O  O296  1  0.87815673  0.12951835  0.63038085  1
  O  O297  1  0.86809769  0.63521772  0.13694505  1
  O  O298  1  0.86580425  0.61641903  0.64010766  1
  O  O299  1  0.26510702  0.25053941  0.13155416  1
  O  O300  1  0.24823400  0.25778475  0.62053825  1
  O  O301  1  0.26181923  0.75071088  0.11597872  1
  O  O302  1  0.25248572  0.75909980  0.61660730  1
  O  O303  1  0.75441923  0.25698377  0.11621234  1
  O  O304  1  0.75623837  0.25976438  0.61792937  1
  O  O305  1  0.75434391  0.75264715  0.12031701  1
  O  O306  1  0.74390331  0.76274775  0.62736647  1
  O  O307  1  0.24391547  0.24557617  0.38458805  1
  O  O308  1  0.22563551  0.24067345  0.86640026  1
  O  O309  1  0.23846491  0.75631100  0.38231189  1
  O  O310  1  0.24194126  0.75043961  0.87351687  1
  O  O311  1  0.74185929  0.24764964  0.38101462  1
  O  O312  1  0.75368389  0.24024453  0.88785544  1
  O  O313  1  0.74810091  0.73657190  0.37044989  1
  O  O314  1  0.74405307  0.73997673  0.88433736  1
  O  O315  1  0.01032226  0.12253199  0.00476205  1
  O  O316  1  0.00089719  0.11231126  0.50648480  1
  O  O317  1  -0.00327749  0.61760165  -0.00399534  1
  O  O318  1  0.00676599  0.61519578  0.49282777  1
  O  O319  1  0.50706028  0.11905874  0.00519784  1
  O  O320  1  0.50593953  0.12008467  0.50854213  1
  O  O321  1  0.50042418  0.62654534  0.01359325  1
  O  O322  1  0.50570699  0.61689952  0.50865643  1
  O  O323  1  0.49763299  0.38302079  0.49653579  1
  O  O324  1  0.50828859  0.37400878  0.98199345  1
  O  O325  1  0.49529301  0.87906632  0.49863710  1
  O  O326  1  0.49713840  0.88318390  0.99522626  1
  O  O327  1  0.99325778  0.38691479  0.50461416  1
  O  O328  1  0.98535041  0.37196899  1.00015314  1
  O  O329  1  1.00458533  0.88611568  0.49294519  1
  O  O330  1  0.99101439  0.87568292  0.98849452  1
  O  O331  1  0.49817561  0.48996999  0.38418098  1
  O  O332  1  0.48230087  0.48918873  0.87967824  1
  O  O333  1  0.49544613  0.99409090  0.38344638  1
  O  O334  1  0.49465261  0.99802097  0.88821106  1
  O  O335  1  1.00783861  0.49677323  0.38714522  1
  O  O336  1  0.98761197  0.50272649  0.88420810  1
  O  O337  1  0.99948139  0.99199844  0.37951935  1
  O  O338  1  0.99030659  0.99269177  0.87824183  1
  O  O339  1  0.00951459  0.00161978  0.12379665  1
  O  O340  1  0.00376426  0.00268599  0.61834602  1
  O  O341  1  -0.00122397  0.49897691  0.10385323  1
  O  O342  1  0.00355987  0.51070644  0.61164264  1
  O  O343  1  0.49744004  0.00881580  0.11559894  1
  O  O344  1  0.51034895  0.00972707  0.62106990  1
  O  O345  1  0.50277988  0.50661798  0.12118331  1
  O  O346  1  0.50371801  0.50462554  0.62341666  1
  O  O347  1  0.23998420  0.38209742  0.25866888  1
  O  O348  1  0.24276433  0.38557593  0.74573753  1
  O  O349  1  0.29478703  0.89160350  0.24445246  1
  O  O350  1  0.24727384  0.88748294  0.74487190  1
  O  O351  1  0.73565189  0.36961985  0.23853352  1
  O  O352  1  0.73766698  0.37227621  0.74069942  1
  O  O353  1  0.75632444  0.88060079  0.24276072  1
  O  O354  1  0.73843649  0.87208582  0.74245509  1
  O  O355  1  0.25740668  0.12574588  0.26413997  1
  O  O356  1  0.25602588  0.11386135  0.74861599  1
  O  O357  1  0.26728315  0.61385183  0.25325910  1
  O  O358  1  0.24815983  0.62725489  0.75489459  1
  O  O359  1  0.75470026  0.11449643  0.25321573  1
  O  O360  1  0.75600016  0.13063230  0.76186715  1
  O  O361  1  0.75997402  0.62106225  0.25736003  1
  O  O362  1  0.75654632  0.62753914  0.75994789  1
  O  O363  1  0.36827584  0.12512233  0.37453573  1
  O  O364  1  0.37320861  0.11990989  0.86977221  1
  O  O365  1  0.38768456  0.61413171  0.36797688  1
  O  O366  1  0.36744398  0.64379228  0.86199621  1
  O  O367  1  0.87537531  0.10803315  0.37644374  1
  O  O368  1  0.86536051  0.11744028  0.87403308  1
  O  O369  1  0.86714084  0.62218041  0.35714254  1
  O  O370  1  0.86458458  0.61709319  0.86623925  1
  O  O371  1  0.12549658  0.37887768  0.13411766  1
  O  O372  1  0.13624274  0.37999772  0.62890191  1
  O  O373  1  0.12346479  0.88592105  0.12137736  1
  O  O374  1  0.13199539  0.88261455  0.63123124  1
  O  O375  1  0.62755784  0.37743418  0.13059299  1
  O  O376  1  0.63027502  0.37968628  0.63447931  1
  O  O377  1  0.63815134  0.87553274  0.12104183  1
  O  O378  1  0.63203446  0.88313387  0.63338403  1
  O  O379  1  0.11914754  0.25696986  0.25594662  1
  O  O380  1  0.11209038  0.24970824  0.75962541  1
  O  O381  1  0.13623617  0.74182586  0.25990123  1
  O  O382  1  0.12313189  0.76221489  0.75807371  1
  O  O383  1  0.62809404  0.25378447  0.26294779  1
  O  O384  1  0.62555343  0.26070540  0.74671512  1
  O  O385  1  0.61062367  0.74690586  0.24717616  1
  O  O386  1  0.61585397  0.75940043  0.75732550  1
  O  O387  1  0.37649135  0.24134750  0.25226712  1
  O  O388  1  0.36363582  0.23726467  0.75239038  1
  O  O389  1  0.38212212  0.74118522  0.24446652  1
  O  O390  1  0.39142589  0.76551708  0.74697975  1
  O  O391  1  0.87982053  0.25170706  0.24248605  1
  O  O392  1  0.87939191  0.24522471  0.74533243  1
  O  O393  1  0.87811421  0.74678406  0.23839882  1
  O  O394  1  0.87290262  0.73508403  0.75530520  1
  O  O395  1  0.38617297  0.50020412  0.49551629  1
  O  O396  1  0.36889891  0.51461082  0.98495554  1
  O  O397  1  0.38054593  0.99466932  0.49620832  1
  O  O398  1  0.37882733  0.99628015  1.00004930  1
  O  O399  1  0.88893505  0.49264325  0.49889874  1
  O  O400  1  0.88263440  0.49391440  0.99190679  1
  O  O401  1  0.88418765  0.99181743  0.49316457  1
  O  O402  1  0.87400453  0.99160277  0.99189593  1
  O  O403  1  0.12167939  0.00894390  0.01078062  1
  O  O404  1  0.11911316  0.00207539  0.50579685  1
  O  O405  1  0.10529014  0.49546920  -0.00704377  1
  O  O406  1  0.11888414  0.50824807  0.49760447  1
  O  O407  1  0.61731050  0.00919962  0.00570107  1
  O  O408  1  0.62145099  0.00707349  0.50908617  1
  O  O409  1  0.61942007  0.49954532  0.01230064  1
  O  O410  1  0.61352233  0.49741073  0.51113163  1
  O  O411  1  0.38859741  0.35515361  0.12439393  1
  O  O412  1  0.36324292  0.37496276  0.62935357  1
  O  O413  1  0.38727370  0.86584652  0.10924209  1
  O  O414  1  0.37257180  0.87753442  0.61444496  1
  O  O415  1  0.86571303  0.36598772  0.11723840  1
  O  O416  1  0.86648279  0.37233928  0.61960978  1
  O  O417  1  0.86668846  0.86222696  0.12068612  1
  O  O418  1  0.85833413  0.88116449  0.62960058  1
  O  O419  1  0.13292508  0.13568449  0.37606828  1
  O  O420  1  0.12261770  0.12944879  0.88892339  1
  O  O421  1  0.12354627  0.63938675  0.38170520  1
  O  O422  1  0.12850111  0.64020748  0.86771237  1
  O  O423  1  0.62394915  0.13310133  0.38158722  1
  O  O424  1  0.63510326  0.11917489  0.88428852  1
  O  O425  1  0.63646988  0.62336143  0.37017224  1
  O  O426  1  0.62956819  0.62593781  0.87613448  1
