# generated using pymatgen
data_V85Zn86O256
_symmetry_space_group_name_H-M   'P 1'
_cell_length_a   16.91969276
_cell_length_b   16.91220935
_cell_length_c   16.91961086
_cell_angle_alpha   89.92951378
_cell_angle_beta   90.06361815
_cell_angle_gamma   90.03326560
_symmetry_Int_Tables_number   1
_chemical_formula_structural   V85Zn86O256
_chemical_formula_sum   'V85 Zn86 O256'
_cell_volume   4841.52879887
_cell_formula_units_Z   1
loop_
 _symmetry_equiv_pos_site_id
 _symmetry_equiv_pos_as_xyz
  1  'x, y, z'
loop_
 _atom_site_type_symbol
 _atom_site_label
 _atom_site_symmetry_multiplicity
 _atom_site_fract_x
 _atom_site_fract_y
 _atom_site_fract_z
 _atom_site_occupancy
  V  V0  1  0.37446432  0.75654023  0.62935483  1
  V  V1  1  0.50038335  0.75022377  0.24675974  1
  V  V2  1  0.37783180  0.75219233  0.11583361  1
  V  V3  1  0.75111312  0.00149481  0.74752182  1
  V  V4  1  0.88888976  0.14696968  0.77357511  1
  V  V5  1  0.87735259  0.00050089  0.37153348  1
  V  V6  1  0.49433119  0.38524059  0.37475498  1
  V  V7  1  0.62149350  0.49173879  0.62960276  1
  V  V8  1  0.12573003  0.00227297  0.12552547  1
  V  V9  1  0.74523117  0.11979561  0.87625173  1
  V  V10  1  0.75265624  0.50186687  0.24468462  1
  V  V11  1  0.74684426  0.25273932  0.49787511  1
  V  V12  1  0.62385343  0.38385131  0.24578697  1
  V  V13  1  0.24851770  0.37019687  0.62636724  1
  V  V14  1  0.62278209  0.25206597  0.37369007  1
  V  V15  1  0.23457719  -0.00274314  0.75038682  1
  V  V16  1  0.49976660  0.25254193  0.24728854  1
  V  V17  1  0.87655855  0.63017762  0.24295926  1
  V  V18  1  -0.00062553  0.00024892  0.00005237  1
  V  V19  1  0.25185361  0.62647099  0.37655154  1
  V  V20  1  0.37684704  0.62426112  0.26014307  1
  V  V21  1  0.62133361  0.61013122  0.00280128  1
  V  V22  1  0.12230987  0.49713256  0.62079892  1
  V  V23  1  0.62641959  0.87562571  0.24879036  1
  V  V24  1  0.87839950  0.24819203  0.61941305  1
  V  V25  1  0.62377868  0.74803019  0.87455505  1
  V  V26  1  0.25546082  0.87639214  0.11702083  1
  V  V27  1  0.37607896  0.49600412  0.88956891  1
  V  V28  1  0.74859907  0.62299943  0.87543488  1
  V  V29  1  0.62896229  0.25669784  0.86718751  1
  V  V30  1  0.00308899  0.37730569  0.37449978  1
  V  V31  1  0.88315077  0.37447963  0.00508269  1
  V  V32  1  0.87941312  0.14002819  0.24884369  1
  V  V33  1  0.00943638  0.50434763  -0.00073486  1
  V  V34  1  0.37415406  0.12470606  0.74881084  1
  V  V35  1  0.12170606  0.62564397  0.49224934  1
  V  V36  1  0.24940185  0.12657760  0.37503987  1
  V  V37  1  0.88317328  0.49688491  0.87659003  1
  V  V38  1  0.50022697  0.60756569  0.12091872  1
  V  V39  1  0.75207225  0.62424952  0.37376315  1
  V  V40  1  0.38014670  -0.00284473  0.39168461  1
  V  V41  1  0.12359937  0.75247608  0.88174555  1
  V  V42  1  0.23315542  0.87814137  0.62777271  1
  V  V43  1  0.62393426  0.75114214  0.37625251  1
  V  V44  1  -0.00048606  0.13948213  0.13090882  1
  V  V45  1  0.87622752  0.62533289  0.74994963  1
  V  V46  1  0.36594548  -0.00707945  0.87669652  1
  V  V47  1  0.00310790  -0.00085043  0.50485663  1
  V  V48  1  0.74820998  0.48716266  0.75207961  1
  V  V49  1  0.12760020  0.14123626  -0.00208059  1
  V  V50  1  0.24848767  0.75545410  0.49775817  1
  V  V51  1  0.00581179  0.87086424  0.37615993  1
  V  V52  1  0.24358492  0.62158770  0.88502128  1
  V  V53  1  0.37554086  0.12327593  0.24953076  1
  V  V54  1  0.25380941  0.49693616  0.25414720  1
  V  V55  1  0.25381150  0.37333858  0.11173327  1
  V  V56  1  0.37283611  0.25181805  0.10770072  1
  V  V57  1  0.62068534  0.11282276  0.50505865  1
  V  V58  1  0.75209004  0.37710897  0.12420766  1
  V  V59  1  0.00066387  0.12412306  0.62705377  1
  V  V60  1  0.50017258  0.25713454  0.74716260  1
  V  V61  1  0.74674588  0.87856437  0.62633217  1
  V  V62  1  0.24666124  0.14176262  0.87850489  1
  V  V63  1  0.62642107  -0.00203276  0.12253600  1
  V  V64  1  0.00739798  0.75743054  0.74850755  1
  V  V65  1  0.00843951  0.62880657  0.12198992  1
  V  V66  1  0.75401689  0.74866316  0.50313050  1
  V  V67  1  0.49853300  0.37835212  0.88904176  1
  V  V68  1  0.49466470  -0.00461002  -0.00390657  1
  V  V69  1  0.12569506  0.12388378  0.50402542  1
  V  V70  1  0.12421549  0.36904420  0.24920433  1
  V  V71  1  0.75506774  0.25049160  0.00482809  1
  V  V72  1  0.62311142  0.62129261  0.50362805  1
  V  V73  1  0.12963618  0.87106949  0.25300118  1
  V  V74  1  0.24984026  0.49865765  0.75189397  1
  V  V75  1  0.87970171  0.38610241  0.49923129  1
  V  V76  1  0.62538182  0.12623739  -0.00129539  1
  V  V77  1  0.75065807  0.12493181  0.37259922  1
  V  V78  1  0.37159540  0.38093191  0.49654401  1
  V  V79  1  0.00053443  0.62187380  0.62048097  1
  V  V80  1  0.75517712  0.75004618  0.00597527  1
  V  V81  1  0.10918997  0.36159627  0.76035728  1
  V  V82  1  0.49378141  0.87061587  0.87632027  1
  V  V83  1  -0.00224870  0.75426411  0.24538588  1
  V  V84  1  0.49971555  0.12627488  0.12223035  1
  Zn  Zn85  1  0.24794200  0.74774945  0.00179354  1
  Zn  Zn86  1  0.49851148  0.74536856  0.75283262  1
  Zn  Zn87  1  0.11700368  0.24574170  0.37099766  1
  Zn  Zn88  1  0.37423817  0.62279717  0.75142123  1
  Zn  Zn89  1  0.49481752  0.11120800  0.61358938  1
  Zn  Zn90  1  0.13123592  0.50444600  0.12282372  1
  Zn  Zn91  1  0.87407549  -0.00828944  0.87717811  1
  Zn  Zn92  1  0.74828953  0.37214144  0.62739881  1
  Zn  Zn93  1  0.88504274  0.86639834  0.00604603  1
  Zn  Zn94  1  0.37749049  0.24871420  0.62191145  1
  Zn  Zn95  1  0.49536061  0.62322021  0.62883834  1
  Zn  Zn96  1  0.00310538  0.88008221  0.87029725  1
  Zn  Zn97  1  0.62206145  0.87875654  0.74814684  1
  Zn  Zn98  1  0.75336849  0.00074215  0.24641630  1
  Zn  Zn99  1  0.24940968  0.25110124  0.49833099  1
  Zn  Zn100  1  0.49178680  0.50679863  0.49896171  1
  Zn  Zn101  1  0.25418978  -0.00261597  0.25129470  1
  Zn  Zn102  1  0.88343745  0.50498808  0.37674377  1
  Zn  Zn103  1  0.75893753  0.87008966  0.12749370  1
  Zn  Zn104  1  0.87514418  0.87583699  0.50022031  1
  Zn  Zn105  1  0.50352636  0.88807525  0.38623055  1
  Zn  Zn106  1  0.87595779  0.75190439  0.62712635  1
  Zn  Zn107  1  0.19131789  0.19022714  0.18588357  1
  Zn  Zn108  1  0.18473137  0.18722838  0.69015623  1
  Zn  Zn109  1  0.18842163  0.69110990  0.19008757  1
  Zn  Zn110  1  0.18753122  0.68610423  0.69013976  1
  Zn  Zn111  1  0.68950217  0.18951916  0.18772965  1
  Zn  Zn112  1  0.69027568  0.18562911  0.68705689  1
  Zn  Zn113  1  0.68333342  0.68375485  0.18391023  1
  Zn  Zn114  1  0.68775389  0.68419492  0.68844013  1
  Zn  Zn115  1  0.31320796  0.31004113  0.30964303  1
  Zn  Zn116  1  0.31570435  0.31738179  0.80992329  1
  Zn  Zn117  1  0.31423634  0.81260628  0.31242916  1
  Zn  Zn118  1  0.30526479  0.81287112  0.81086601  1
  Zn  Zn119  1  0.81456482  0.31658995  0.31518364  1
  Zn  Zn120  1  0.83579734  0.30585228  0.82048891  1
  Zn  Zn121  1  0.81358386  0.81349771  0.31218379  1
  Zn  Zn122  1  0.81628552  0.81329719  0.81754183  1
  Zn  Zn123  1  0.18744647  0.44142374  0.43654504  1
  Zn  Zn124  1  0.18425846  0.43211292  0.93361257  1
  Zn  Zn125  1  0.18972308  0.94044991  0.43975574  1
  Zn  Zn126  1  0.18086748  0.93823546  0.93846188  1
  Zn  Zn127  1  0.68824278  0.43927167  0.43511250  1
  Zn  Zn128  1  0.68938009  0.43408396  0.93392948  1
  Zn  Zn129  1  0.69106695  0.93636381  0.43552061  1
  Zn  Zn130  1  0.68387688  0.93352868  0.93576520  1
  Zn  Zn131  1  0.31122631  0.06528166  0.05960005  1
  Zn  Zn132  1  0.30877148  0.05966030  0.56606056  1
  Zn  Zn133  1  0.31443205  0.56318873  0.06668415  1
  Zn  Zn134  1  0.31147447  0.56418040  0.56422262  1
  Zn  Zn135  1  0.81633757  0.06217595  0.06568136  1
  Zn  Zn136  1  0.81303061  0.06269776  0.56092411  1
  Zn  Zn137  1  0.81589939  0.56464840  0.06327958  1
  Zn  Zn138  1  0.80931799  0.56213796  0.56722852  1
  Zn  Zn139  1  0.43072551  0.43632242  0.18733451  1
  Zn  Zn140  1  0.43557931  0.43637038  0.68878700  1
  Zn  Zn141  1  0.43958524  0.93675158  0.18901591  1
  Zn  Zn142  1  0.43007722  0.93423697  0.68790039  1
  Zn  Zn143  1  0.94006898  0.44003504  0.18724681  1
  Zn  Zn144  1  0.93685074  0.43800932  0.68410664  1
  Zn  Zn145  1  0.93741363  0.94008433  0.18413774  1
  Zn  Zn146  1  0.92841700  0.94124196  0.68816027  1
  Zn  Zn147  1  0.06378620  0.05939674  0.31162738  1
  Zn  Zn148  1  0.06306533  0.06938469  0.81683856  1
  Zn  Zn149  1  0.06481944  0.55854211  0.31104783  1
  Zn  Zn150  1  0.06576934  0.56313848  0.80925486  1
  Zn  Zn151  1  0.56214968  0.06377709  0.31314590  1
  Zn  Zn152  1  0.54295539  0.04259701  0.77573992  1
  Zn  Zn153  1  0.56349768  0.56455464  0.31187400  1
  Zn  Zn154  1  0.56103176  0.56023485  0.81038216  1
  Zn  Zn155  1  0.43718158  0.19307440  0.43725951  1
  Zn  Zn156  1  0.44046098  0.18304309  0.92781619  1
  Zn  Zn157  1  0.45150245  0.72041159  0.45479340  1
  Zn  Zn158  1  0.43564718  0.67946736  0.93727576  1
  Zn  Zn159  1  0.93990705  0.19212844  0.43553518  1
  Zn  Zn160  1  0.93624771  0.18568899  0.94224110  1
  Zn  Zn161  1  0.93879454  0.68866832  0.43315256  1
  Zn  Zn162  1  0.93955149  0.68514208  0.93531947  1
  Zn  Zn163  1  0.06554506  0.31840252  0.06509475  1
  Zn  Zn164  1  0.06149361  0.31036229  0.56055566  1
  Zn  Zn165  1  0.06581151  0.81346969  0.06378292  1
  Zn  Zn166  1  0.06328299  0.80762498  0.56053083  1
  Zn  Zn167  1  0.56761388  0.31391422  0.06261728  1
  Zn  Zn168  1  0.55917444  0.31037063  0.56176197  1
  Zn  Zn169  1  0.56574956  0.80904564  0.05884390  1
  Zn  Zn170  1  0.56411025  0.81462140  0.56571120  1
  O  O171  1  0.11908335  0.12138702  0.12241389  1
  O  O172  1  0.11126132  0.12841283  0.61889395  1
  O  O173  1  0.11358832  0.62399270  0.13247957  1
  O  O174  1  0.11929823  0.61822446  0.61811121  1
  O  O175  1  0.61888581  0.11916129  0.12024489  1
  O  O176  1  0.62909980  0.12642942  0.60691218  1
  O  O177  1  0.61120992  0.62560035  0.11687748  1
  O  O178  1  0.62520383  0.61396864  0.61836827  1
  O  O179  1  0.38290929  0.37142382  0.38069451  1
  O  O180  1  0.38837531  0.37973909  0.87527387  1
  O  O181  1  0.37444180  0.89517734  0.36821186  1
  O  O182  1  0.37643451  0.88420012  0.87378579  1
  O  O183  1  0.88240780  0.37942748  0.38233455  1
  O  O184  1  0.87357643  0.38961485  0.88881017  1
  O  O185  1  0.88372850  0.88426260  0.37550326  1
  O  O186  1  0.88320828  0.87530995  0.88616929  1
  O  O187  1  0.26204159  0.01054620  0.37451209  1
  O  O188  1  0.25224107  0.00123543  0.87025855  1
  O  O189  1  0.24945679  0.51549368  0.36897760  1
  O  O190  1  0.25380076  0.50294427  0.87059545  1
  O  O191  1  0.76032327  0.00574956  0.37131933  1
  O  O192  1  0.74986048  0.00587940  0.87426143  1
  O  O193  1  0.75193417  0.50690189  0.36166300  1
  O  O194  1  0.75825702  0.50499667  0.86972675  1
  O  O195  1  0.25178010  0.49204734  0.13336519  1
  O  O196  1  0.24302728  0.49087035  0.63235846  1
  O  O197  1  0.24178269  0.99607391  0.12559585  1
  O  O198  1  0.25137748  0.98594724  0.63297963  1
  O  O199  1  0.75289287  0.49565040  0.13642661  1
  O  O200  1  0.74351844  0.49582508  0.63552037  1
  O  O201  1  0.73608676  1.00121220  0.12395817  1
  O  O202  1  0.75603448  0.99228469  0.63305986  1
  O  O203  1  0.01362495  0.38140875  0.25471924  1
  O  O204  1  0.01031461  0.37840924  0.74583364  1
  O  O205  1  0.00695849  0.87136499  0.25504581  1
  O  O206  1  -0.00941498  0.86052722  0.74752376  1
  O  O207  1  0.50647482  0.37431021  0.25359452  1
  O  O208  1  0.49553128  0.36082362  0.75717904  1
  O  O209  1  0.51063568  0.86705792  0.25272567  1
  O  O210  1  0.50007990  0.86853126  0.76479241  1
  O  O211  1  0.49540039  0.13093204  0.24193730  1
  O  O212  1  0.48095593  0.14070038  0.76987632  1
  O  O213  1  0.49481316  0.62758761  0.24025565  1
  O  O214  1  0.49386692  0.62735585  0.74806041  1
  O  O215  1  0.99716678  0.12402268  0.23917675  1
  O  O216  1  0.98995770  0.11679455  0.74032791  1
  O  O217  1  0.99573246  0.63426833  0.24764419  1
  O  O218  1  0.99367966  0.63067646  0.74179275  1
  O  O219  1  0.38198641  0.24087436  0.00934900  1
  O  O220  1  0.37173283  0.26229523  0.50281300  1
  O  O221  1  0.37377525  0.74545790  0.01290787  1
  O  O222  1  0.35580815  0.74358203  0.51675025  1
  O  O223  1  0.86798208  0.26195611  -0.00112053  1
  O  O224  1  0.86601459  0.25583039  0.50408559  1
  O  O225  1  0.85831509  0.74383473  -0.00479697  1
  O  O226  1  0.86349670  0.74974185  0.49848926  1
  O  O227  1  0.12638846  0.23659891  0.49507907  1
  O  O228  1  0.12054382  0.24083039  1.00246851  1
  O  O229  1  0.13787308  0.73869271  0.50441111  1
  O  O230  1  0.12501793  0.74782459  0.98674552  1
  O  O231  1  0.63115689  0.24730757  0.49103023  1
  O  O232  1  0.63356453  0.24626967  0.99023056  1
  O  O233  1  0.63854555  0.73692245  0.49928260  1
  O  O234  1  0.63255488  0.73995069  0.98998034  1
  O  O235  1  0.49576299  0.24680407  0.12888444  1
  O  O236  1  0.50116448  0.24151803  0.63502076  1
  O  O237  1  0.49585252  0.74677141  0.13212176  1
  O  O238  1  0.48464752  0.75045997  0.62985321  1
  O  O239  1  1.00372996  0.23797881  0.12561375  1
  O  O240  1  0.98875977  0.23944266  0.61795046  1
  O  O241  1  1.00449340  0.74580884  0.13671852  1
  O  O242  1  0.99898391  0.73979298  0.63152658  1
  O  O243  1  0.00072560  0.26713878  0.37495717  1
  O  O244  1  -0.06781610  0.22816625  0.83654172  1
  O  O245  1  -0.00165235  0.76430410  0.36577687  1
  O  O246  1  0.01076222  0.74696019  0.86783657  1
  O  O247  1  0.50429928  0.26050322  0.36588448  1
  O  O248  1  0.50894641  0.26074484  0.87223394  1
  O  O249  1  0.50981788  0.73440085  0.35324287  1
  O  O250  1  0.50458622  0.75436928  0.87874678  1
  O  O251  1  0.24218852  0.12463212  0.49524674  1
  O  O252  1  0.24041511  0.12251132  0.99000530  1
  O  O253  1  0.24328413  0.62951633  0.49277088  1
  O  O254  1  0.25152621  0.62462381  0.98946500  1
  O  O255  1  0.74246593  0.13197177  0.49180836  1
  O  O256  1  0.74710248  0.13230800  0.99779495  1
  O  O257  1  0.74638043  0.62954165  0.49527841  1
  O  O258  1  0.74398595  0.63115356  0.99653003  1
  O  O259  1  0.24685785  0.37886672  0.01254722  1
  O  O260  1  0.25356477  0.37430842  0.50636403  1
  O  O261  1  0.24443326  0.87340822  0.01365249  1
  O  O262  1  0.24328552  0.86841656  0.51234066  1
  O  O263  1  0.75742184  0.37072700  0.00676253  1
  O  O264  1  0.75812810  0.36746864  0.49664632  1
  O  O265  1  0.74570241  0.85746594  -0.00003113  1
  O  O266  1  0.74997518  0.86611968  0.50605809  1
  O  O267  1  0.13940021  0.49329442  0.24821014  1
  O  O268  1  0.13291373  0.49378349  0.73976129  1
  O  O269  1  0.12854090  0.99112914  0.24205029  1
  O  O270  1  0.13551064  1.00711724  0.75275872  1
  O  O271  1  0.63272078  0.49015390  0.25260071  1
  O  O272  1  0.63610782  0.50173540  0.74242607  1
  O  O273  1  0.62363789  0.99281891  0.24100246  1
  O  O274  1  0.64639558  0.99741734  0.76024470  1
  O  O275  1  0.37620855  0.01398442  0.24918115  1
  O  O276  1  0.36207231  0.00748425  0.76104740  1
  O  O277  1  0.36334602  0.50934529  0.24850870  1
  O  O278  1  0.35976960  0.49543309  0.75638644  1
  O  O279  1  0.87846104  0.00946036  0.26100117  1
  O  O280  1  0.86597350  0.01337542  0.75608589  1
  O  O281  1  0.86847672  0.50908688  0.25193405  1
  O  O282  1  0.87271653  0.50765297  0.75692287  1
  O  O283  1  0.12070596  0.37445793  0.36895400  1
  O  O284  1  0.12192110  0.37475680  0.85982425  1
  O  O285  1  0.11807933  0.88397558  0.36619097  1
  O  O286  1  0.12377170  0.85833017  0.87430823  1
  O  O287  1  0.61881374  0.37092787  0.36679183  1
  O  O288  1  0.61485603  0.36786810  0.87543594  1
  O  O289  1  0.62439895  0.86972215  0.36588908  1
  O  O290  1  0.61490248  0.86405367  0.87324150  1
  O  O291  1  0.37995484  0.13012996  0.13070919  1
  O  O292  1  0.37436374  0.12654426  0.63508536  1
  O  O293  1  0.38262365  0.63281338  0.13393202  1
  O  O294  1  0.37020019  0.63823093  0.62981335  1
  O  O295  1  0.89100077  0.12155645  0.13378927  1
  O  O296  1  0.88553105  0.13167216  0.62289655  1
  O  O297  1  0.88621120  0.62301695  0.13730808  1
  O  O298  1  0.88252637  0.62514934  0.63252580  1
  O  O299  1  0.26077011  0.26013701  0.12691615  1
  O  O300  1  0.24810163  0.26160698  0.62382396  1
  O  O301  1  0.25891681  0.75707892  0.12457534  1
  O  O302  1  0.25199373  0.76035879  0.62392549  1
  O  O303  1  0.74618561  0.25763483  0.11218774  1
  O  O304  1  0.74986297  0.25147962  0.60843691  1
  O  O305  1  0.74387537  0.74771818  0.10929136  1
  O  O306  1  0.75352371  0.75295391  0.61834994  1
  O  O307  1  0.25157559  0.23543661  0.37592729  1
  O  O308  1  0.25727779  0.24013248  0.87236371  1
  O  O309  1  0.25541539  0.74055950  0.38354992  1
  O  O310  1  0.23968935  0.74220442  0.87670519  1
  O  O311  1  0.74520101  0.24671729  0.38182920  1
  O  O312  1  0.74600201  0.24586337  0.88370853  1
  O  O313  1  0.74373301  0.74524874  0.38125614  1
  O  O314  1  0.74270380  0.74228336  0.88196060  1
  O  O315  1  0.00555904  0.12275285  0.01125649  1
  O  O316  1  0.00537186  0.11829852  0.50367832  1
  O  O317  1  -0.00616163  0.61868284  0.01181789  1
  O  O318  1  0.00888794  0.63303894  0.50673965  1
  O  O319  1  0.50689830  0.11693805  0.00183818  1
  O  O320  1  0.51547298  0.13059785  0.49820465  1
  O  O321  1  0.50780055  0.62617460  0.01002168  1
  O  O322  1  0.50998914  0.62696863  0.50340459  1
  O  O323  1  0.49165272  0.37626850  0.49042875  1
  O  O324  1  0.50361242  0.37388477  0.98799244  1
  O  O325  1  0.49869977  0.82611007  0.47862316  1
  O  O326  1  0.50479456  0.88260229  0.98854886  1
  O  O327  1  0.98976762  0.37320404  0.49316305  1
  O  O328  1  0.98969836  0.38524607  1.00993660  1
  O  O329  1  1.00088765  0.88021117  0.49327016  1
  O  O330  1  1.00574295  0.88662535  0.99984230  1
  O  O331  1  0.50421029  0.48900819  0.37649317  1
  O  O332  1  0.49257410  0.48524789  0.86897911  1
  O  O333  1  0.48545399  1.00304479  0.37319843  1
  O  O334  1  0.49021134  0.99155406  0.87763114  1
  O  O335  1  1.00003493  0.48668837  0.37325043  1
  O  O336  1  0.99253586  0.51063259  0.88350949  1
  O  O337  1  0.99596801  0.99211260  0.38279389  1
  O  O338  1  1.00151066  1.00047035  0.88576028  1
  O  O339  1  0.01377462  0.00888238  0.12180749  1
  O  O340  1  -0.00872485  0.00519745  0.61094414  1
  O  O341  1  0.00377146  0.51039347  0.11798467  1
  O  O342  1  0.00728189  0.51303878  0.62781254  1
  O  O343  1  0.50800650  0.00266127  0.11583727  1
  O  O344  1  0.50533235  0.01305944  0.66806284  1
  O  O345  1  0.49492668  0.50854518  0.12661037  1
  O  O346  1  0.50665729  0.50091300  0.62324211  1
  O  O347  1  0.24676336  0.38299978  0.24763805  1
  O  O348  1  0.24081095  0.37973075  0.74300578  1
  O  O349  1  0.24427856  0.87604892  0.24176068  1
  O  O350  1  0.24760486  0.88327856  0.73889616  1
  O  O351  1  0.74577599  0.38200969  0.24443472  1
  O  O352  1  0.76208431  0.38546854  0.75319257  1
  O  O353  1  0.73875173  0.87715524  0.24799780  1
  O  O354  1  0.75468915  0.88265854  0.74380640  1
  O  O355  1  0.25829746  0.12275864  0.25670910  1
  O  O356  1  0.25610041  0.12072682  0.75718855  1
  O  O357  1  0.25619752  0.62185833  0.25644286  1
  O  O358  1  0.24837407  0.61353737  0.76026790  1
  O  O359  1  0.75865119  0.12349652  0.25432436  1
  O  O360  1  0.75868847  0.12240183  0.76096085  1
  O  O361  1  0.75654171  0.62083344  0.25025599  1
  O  O362  1  0.75976264  0.61639273  0.75507316  1
  O  O363  1  0.37114190  0.11848463  0.36932798  1
  O  O364  1  0.36331698  0.11346590  0.87253275  1
  O  O365  1  0.37108969  0.63209818  0.36301727  1
  O  O366  1  0.36571515  0.61436316  0.87224155  1
  O  O367  1  0.87250856  0.12077901  0.36875103  1
  O  O368  1  0.85913331  0.11238362  0.88085524  1
  O  O369  1  0.87044407  0.62446082  0.36359523  1
  O  O370  1  0.87003415  0.61579284  0.86873893  1
  O  O371  1  0.13591704  0.37907152  0.13302273  1
  O  O372  1  0.12901825  0.38150801  0.62695542  1
  O  O373  1  0.13242040  0.88382815  0.13208491  1
  O  O374  1  0.13399252  0.87194362  0.62619616  1
  O  O375  1  0.63846408  0.37315784  0.13290097  1
  O  O376  1  0.62775551  0.38751072  0.61701542  1
  O  O377  1  0.62642474  0.88205478  0.13047456  1
  O  O378  1  0.63946819  0.86799561  0.63054266  1
  O  O379  1  0.13320672  0.26451026  0.25262940  1
  O  O380  1  0.12081906  0.26227978  0.74636921  1
  O  O381  1  0.11804411  0.76420282  0.24848665  1
  O  O382  1  0.11524418  0.74418627  0.76024938  1
  O  O383  1  0.62105016  0.26151706  0.25325664  1
  O  O384  1  0.61956340  0.24278060  0.76078397  1
  O  O385  1  0.62073828  0.75699582  0.25125807  1
  O  O386  1  0.62586940  0.74737009  0.76482820  1
  O  O387  1  0.38181745  0.23838119  0.24436346  1
  O  O388  1  0.38017090  0.24359938  0.74607962  1
  O  O389  1  0.38355337  0.74427107  0.24254464  1
  O  O390  1  0.36988203  0.74764448  0.73985980  1
  O  O391  1  0.87118478  0.23948389  0.25257777  1
  O  O392  1  0.84873884  0.24257874  0.72245854  1
  O  O393  1  0.88493222  0.74365560  0.25333293  1
  O  O394  1  0.88112405  0.73615036  0.75291451  1
  O  O395  1  0.37414610  0.48711078  0.50424366  1
  O  O396  1  0.37321773  0.50161127  0.98885806  1
  O  O397  1  0.37744550  1.00324154  0.49083537  1
  O  O398  1  0.38688939  1.00460098  0.99354420  1
  O  O399  1  0.86830111  0.48949139  0.49914104  1
  O  O400  1  0.88280807  0.49580414  0.99445638  1
  O  O401  1  0.88256565  1.00111833  0.48668322  1
  O  O402  1  0.89159560  1.00361657  1.00262565  1
  O  O403  1  0.11743494  0.01046513  0.00805343  1
  O  O404  1  0.11624900  0.01284771  0.49604677  1
  O  O405  1  0.11268533  0.49617669  0.00036216  1
  O  O406  1  0.13065626  0.50898316  0.51355377  1
  O  O407  1  0.61610301  0.00397006  0.00449247  1
  O  O408  1  0.62676288  0.01397863  0.49162604  1
  O  O409  1  0.63217973  0.51106045  -0.00351164  1
  O  O410  1  0.62589584  0.51009202  0.50543837  1
  O  O411  1  0.36595578  0.36397541  0.12829222  1
  O  O412  1  0.36449763  0.37299938  0.61893098  1
  O  O413  1  0.36773936  0.86649554  0.13191529  1
  O  O414  1  0.36336253  0.86183307  0.62811092  1
  O  O415  1  0.86274717  0.38092386  0.11957271  1
  O  O416  1  0.87329111  0.36845229  0.61494419  1
  O  O417  1  0.87120189  0.88003730  0.11908533  1
  O  O418  1  0.86341288  0.87110604  0.61991535  1
  O  O419  1  0.13317830  0.12431271  0.37935791  1
  O  O420  1  0.13440204  0.12812224  0.88458141  1
  O  O421  1  0.13118952  0.62164642  0.38564317  1
  O  O422  1  0.13315402  0.63426297  0.87193985  1
  O  O423  1  0.63124755  0.13264237  0.37800980  1
  O  O424  1  0.63608661  0.13340061  0.88138208  1
  O  O425  1  0.63242746  0.62935854  0.38215617  1
  O  O426  1  0.62828101  0.62824957  0.88208808  1
