# generated using pymatgen
data_V85Zn86O256
_symmetry_space_group_name_H-M   'P 1'
_cell_length_a   16.96597993
_cell_length_b   16.96605906
_cell_length_c   16.98912165
_cell_angle_alpha   90.03256268
_cell_angle_beta   90.00208391
_cell_angle_gamma   90.00236910
_symmetry_Int_Tables_number   1
_chemical_formula_structural   V85Zn86O256
_chemical_formula_sum   'V85 Zn86 O256'
_cell_volume   4890.24681185
_cell_formula_units_Z   1
loop_
 _symmetry_equiv_pos_site_id
 _symmetry_equiv_pos_as_xyz
  1  'x, y, z'
loop_
 _atom_site_type_symbol
 _atom_site_label
 _atom_site_symmetry_multiplicity
 _atom_site_fract_x
 _atom_site_fract_y
 _atom_site_fract_z
 _atom_site_occupancy
  V  V0  1  0.50119158  0.49466012  -0.00413560  1
  V  V1  1  0.62513131  0.00079992  0.62275328  1
  V  V2  1  0.49716501  -0.00670194  0.00343735  1
  V  V3  1  0.75070876  0.49866322  0.25398074  1
  V  V4  1  0.24540002  0.74511946  -0.00233370  1
  V  V5  1  0.12222933  0.37043275  0.74752801  1
  V  V6  1  0.00163004  0.24990823  0.73993451  1
  V  V7  1  0.62476024  0.49713667  0.13122097  1
  V  V8  1  0.62227245  0.13151996  0.49886216  1
  V  V9  1  0.74796922  0.36789637  0.11550404  1
  V  V10  1  0.25856059  0.24977192  0.00434409  1
  V  V11  1  0.24297491  0.49368007  0.25428304  1
  V  V12  1  0.37555283  0.37634795  0.50296293  1
  V  V13  1  0.12153451  0.74935668  0.86535692  1
  V  V14  1  0.74888588  0.74857087  -0.00352540  1
  V  V15  1  0.74396087  0.13395925  0.87994968  1
  V  V16  1  -0.00107109  0.38026258  0.38776614  1
  V  V17  1  0.87243521  -0.00429959  0.87440159  1
  V  V18  1  0.74956545  0.74675852  0.49067440  1
  V  V19  1  0.37464867  0.12424972  0.74951817  1
  V  V20  1  0.87398423  0.87612872  0.50017733  1
  V  V21  1  0.62826447  0.62264857  0.00114421  1
  V  V22  1  0.37621137  0.75269198  0.11732467  1
  V  V23  1  0.12570869  -0.00286149  0.12238791  1
  V  V24  1  0.00121713  0.63141269  0.63595938  1
  V  V25  1  0.86815148  0.12064155  0.24612279  1
  V  V26  1  0.12496557  0.87233342  0.24663852  1
  V  V27  1  0.49885391  0.13124559  0.12382024  1
  V  V28  1  0.37111396  0.62663447  0.24966184  1
  V  V29  1  0.12353091  0.74911066  0.37831651  1
  V  V30  1  0.12762998  0.00182980  0.62098166  1
  V  V31  1  0.87796477  0.75439785  0.63301508  1
  V  V32  1  -0.00134685  0.12233979  0.12684072  1
  V  V33  1  0.00797184  0.62261251  0.11496957  1
  V  V34  1  0.25495803  0.87563968  0.11457155  1
  V  V35  1  0.12939481  0.50288034  0.11970706  1
  V  V36  1  0.61737732  0.75070975  0.87511014  1
  V  V37  1  0.38226978  -0.01558815  0.37935173  1
  V  V38  1  0.50072441  0.50723833  0.50473839  1
  V  V39  1  0.87729444  0.12759835  0.74930128  1
  V  V40  1  0.63628167  0.49851317  0.62822301  1
  V  V41  1  0.38017862  0.76106690  0.62299004  1
  V  V42  1  0.24650612  0.12866808  0.87247424  1
  V  V43  1  0.25457617  0.36815354  0.13041862  1
  V  V44  1  -0.00023091  0.74486971  0.25042435  1
  V  V45  1  0.25047027  0.12493023  0.37336602  1
  V  V46  1  0.74813209  0.13619786  0.37335486  1
  V  V47  1  0.62760782  0.00059469  0.13137621  1
  V  V48  1  0.37693886  0.62827724  0.75030981  1
  V  V49  1  0.87645312  0.74780858  0.12499748  1
  V  V50  1  0.50213744  0.37806987  0.37686998  1
  V  V51  1  0.87466133  0.87309795  0.00038618  1
  V  V52  1  0.00066032  -0.00359467  -0.00213076  1
  V  V53  1  -0.00184146  0.87169660  0.37174427  1
  V  V54  1  0.37375392  -0.00691340  0.87973508  1
  V  V55  1  0.07360865  0.30191152  0.92362492  1
  V  V56  1  0.76504313  0.35800293  0.61647122  1
  V  V57  1  0.37665122  0.12540584  0.24762580  1
  V  V58  1  0.61691467  0.87240820  0.75367534  1
  V  V59  1  -0.00019589  0.26281827  0.24829336  1
  V  V60  1  0.87106397  0.61950516  0.25090954  1
  V  V61  1  0.86742679  0.62681679  0.76205316  1
  V  V62  1  0.25005644  -0.00925038  0.74362865  1
  V  V63  1  0.49824156  0.25181694  0.25195886  1
  V  V64  1  0.74598053  -0.00121793  0.75127646  1
  V  V65  1  0.25451022  0.76362920  0.50593451  1
  V  V66  1  0.86425195  -0.00218994  0.36920162  1
  V  V67  1  0.62717524  0.37151360  0.75209470  1
  V  V68  1  0.37126864  0.49979251  0.37794531  1
  V  V69  1  0.00379442  0.00247910  0.49301332  1
  V  V70  1  0.25041460  0.37767401  0.62494611  1
  V  V71  1  0.12319110  0.62401099  0.50537184  1
  V  V72  1  0.86818935  0.24815611  0.11230716  1
  V  V73  1  0.62177910  0.87001998  0.26019572  1
  V  V74  1  0.74964250  0.87770086  0.13166135  1
  V  V75  1  0.63069187  0.62833808  0.49416182  1
  V  V76  1  0.49909471  0.25361906  0.75836273  1
  V  V77  1  0.50388659  0.62643122  0.63822210  1
  V  V78  1  0.25203432  -0.00253162  0.24805110  1
  V  V79  1  0.24988724  0.62514724  0.37977913  1
  V  V80  1  0.37565478  0.24948479  0.62400946  1
  V  V81  1  0.49782135  0.62252948  0.12933530  1
  V  V82  1  0.37745093  0.37090021  -0.00491954  1
  V  V83  1  0.12537687  0.12252994  -0.00369428  1
  V  V84  1  0.24894601  0.61976047  0.87661688  1
  Zn  Zn85  1  0.12387508  0.50037827  0.62717042  1
  Zn  Zn86  1  0.49274828  0.87033474  0.88040318  1
  Zn  Zn87  1  -0.00259097  0.86963475  0.86541060  1
  Zn  Zn88  1  -0.02108752  0.13823086  0.59717663  1
  Zn  Zn89  1  0.49867489  0.75832081  0.25325416  1
  Zn  Zn90  1  0.13141189  0.12821586  0.49902209  1
  Zn  Zn91  1  0.25110460  0.49797628  0.75202819  1
  Zn  Zn92  1  0.12940301  0.25664241  0.36824462  1
  Zn  Zn93  1  0.50116786  -0.01474452  0.49730672  1
  Zn  Zn94  1  0.38503601  0.49708804  0.87152045  1
  Zn  Zn95  1  0.62796852  0.12817802  0.00483454  1
  Zn  Zn96  1  0.62806354  0.25496826  0.38028393  1
  Zn  Zn97  1  0.86768933  0.49470512  0.38512372  1
  Zn  Zn98  1  0.49856625  0.12305536  0.62072579  1
  Zn  Zn99  1  -0.00798213  0.49763542  0.51111515  1
  Zn  Zn100  1  0.24903726  0.25091949  0.49545854  1
  Zn  Zn101  1  0.76696698  0.49214322  0.76416205  1
  Zn  Zn102  1  -0.07211826  0.45810847  -0.07251591  1
  Zn  Zn103  1  0.62254381  0.25903033  0.88574198  1
  Zn  Zn104  1  0.74958159  0.87545215  0.62514561  1
  Zn  Zn105  1  0.11803849  0.87304849  0.74063357  1
  Zn  Zn106  1  0.62624086  0.37367678  0.25295569  1
  Zn  Zn107  1  0.18515725  0.18558633  0.18847301  1
  Zn  Zn108  1  0.18436123  0.18640048  0.68358471  1
  Zn  Zn109  1  0.18923773  0.68664894  0.18858026  1
  Zn  Zn110  1  0.19497612  0.68884201  0.68846558  1
  Zn  Zn111  1  0.68390495  0.18897687  0.19189046  1
  Zn  Zn112  1  0.68878272  0.18712773  0.68702028  1
  Zn  Zn113  1  0.68760694  0.68849358  0.18889018  1
  Zn  Zn114  1  0.69128428  0.69081250  0.68599222  1
  Zn  Zn115  1  0.31817145  0.31101120  0.31252603  1
  Zn  Zn116  1  0.30903457  0.31227224  0.81484850  1
  Zn  Zn117  1  0.30911094  0.80846314  0.30682829  1
  Zn  Zn118  1  0.31206419  0.80954118  0.80878336  1
  Zn  Zn119  1  0.81781617  0.31594258  0.30448447  1
  Zn  Zn120  1  0.81998539  0.31595170  0.80561700  1
  Zn  Zn121  1  0.81030032  0.81010282  0.31089303  1
  Zn  Zn122  1  0.80769403  0.81084776  0.81298172  1
  Zn  Zn123  1  0.17897704  0.43501018  0.43939586  1
  Zn  Zn124  1  0.13182630  0.47431969  0.91360741  1
  Zn  Zn125  1  0.18927696  0.93843725  0.43336726  1
  Zn  Zn126  1  0.18927793  0.93500841  0.93288233  1
  Zn  Zn127  1  0.68915967  0.43882717  0.44151067  1
  Zn  Zn128  1  0.74197628  0.42363952  0.91932494  1
  Zn  Zn129  1  0.68882258  0.93972077  0.44120425  1
  Zn  Zn130  1  0.68484763  0.93849213  0.94225451  1
  Zn  Zn131  1  0.31542412  0.06379017  0.06206998  1
  Zn  Zn132  1  0.31317572  0.05983068  0.55916438  1
  Zn  Zn133  1  0.31170927  0.55879324  0.05960572  1
  Zn  Zn134  1  0.31318874  0.56632716  0.56549185  1
  Zn  Zn135  1  0.80978703  0.06060367  0.06041688  1
  Zn  Zn136  1  0.82486664  0.09462454  0.54620869  1
  Zn  Zn137  1  0.81053701  0.56228387  0.05816275  1
  Zn  Zn138  1  0.81588025  0.56569178  0.56841921  1
  Zn  Zn139  1  0.43284215  0.43785042  0.18768732  1
  Zn  Zn140  1  0.44144994  0.44011766  0.69213252  1
  Zn  Zn141  1  0.43931923  0.93804553  0.18855753  1
  Zn  Zn142  1  0.44221618  0.93984959  0.69044603  1
  Zn  Zn143  1  0.91898998  0.45678308  0.13577844  1
  Zn  Zn144  1  0.93947663  0.44049445  0.69140482  1
  Zn  Zn145  1  0.93681563  0.93661606  0.18788379  1
  Zn  Zn146  1  0.94230221  0.94352740  0.68229703  1
  Zn  Zn147  1  0.06058340  0.06173264  0.30990619  1
  Zn  Zn148  1  0.06142693  0.05913699  0.80911555  1
  Zn  Zn149  1  0.06056440  0.56022744  0.31066802  1
  Zn  Zn150  1  0.05715114  0.56661518  0.80704224  1
  Zn  Zn151  1  0.56462702  0.05972028  0.31114949  1
  Zn  Zn152  1  0.55902773  0.06268553  0.81334482  1
  Zn  Zn153  1  0.52114489  0.61808741  0.35344125  1
  Zn  Zn154  1  0.60747628  0.53539210  0.83917529  1
  Zn  Zn155  1  0.43848127  0.18403842  0.43731664  1
  Zn  Zn156  1  0.43789520  0.18334544  0.93901427  1
  Zn  Zn157  1  0.44820481  0.79878117  0.43479899  1
  Zn  Zn158  1  0.43717373  0.68341742  0.94024203  1
  Zn  Zn159  1  0.93845753  0.18990395  0.42773011  1
  Zn  Zn160  1  0.93372045  0.17911871  0.93554725  1
  Zn  Zn161  1  0.92769984  0.67165030  0.44539199  1
  Zn  Zn162  1  0.94164080  0.68656780  0.93869257  1
  Zn  Zn163  1  0.06683880  0.31729283  0.09015814  1
  Zn  Zn164  1  0.06732528  0.30927523  0.55784613  1
  Zn  Zn165  1  0.06398755  0.80912082  0.05711373  1
  Zn  Zn166  1  0.06186844  0.81540098  0.56269053  1
  Zn  Zn167  1  0.56425984  0.31144413  0.06220378  1
  Zn  Zn168  1  0.56340248  0.31407039  0.56700345  1
  Zn  Zn169  1  0.56282250  0.81281989  0.06643261  1
  Zn  Zn170  1  0.56566596  0.81208169  0.56670852  1
  O  O171  1  0.12008015  0.11613403  0.11725523  1
  O  O172  1  0.12208690  0.11499525  0.61779528  1
  O  O173  1  0.12209544  0.61442704  0.13131600  1
  O  O174  1  0.12067660  0.62804761  0.62186040  1
  O  O175  1  0.61712348  0.11689086  0.12922693  1
  O  O176  1  0.62448966  0.11833852  0.61653747  1
  O  O177  1  0.61558956  0.62106333  0.12120054  1
  O  O178  1  0.61983446  0.61864554  0.62451243  1
  O  O179  1  0.38472682  0.38098065  0.38277164  1
  O  O180  1  0.36745681  0.37892756  0.89024067  1
  O  O181  1  0.37389241  0.88151970  0.36859239  1
  O  O182  1  0.37444790  0.88857865  0.86728380  1
  O  O183  1  0.89300711  0.37801257  0.36635519  1
  O  O184  1  0.84717456  0.39591866  0.87767309  1
  O  O185  1  0.87768633  0.88107600  0.37726794  1
  O  O186  1  0.87322368  0.88029325  0.88226128  1
  O  O187  1  0.26156016  0.00282459  0.36616061  1
  O  O188  1  0.25655247  0.00887049  0.86887281  1
  O  O189  1  0.25016348  0.50297662  0.37239520  1
  O  O190  1  0.24098779  0.51452600  0.87650811  1
  O  O191  1  0.76177063  0.00642466  0.37555713  1
  O  O192  1  0.75460023  0.00482491  0.87129888  1
  O  O193  1  0.75193973  0.49159583  0.35846559  1
  O  O194  1  0.71699856  0.51568471  0.86391730  1
  O  O195  1  0.24672545  0.49661284  0.13627926  1
  O  O196  1  0.25086786  0.48734910  0.62638527  1
  O  O197  1  0.24821904  0.99179530  0.12764261  1
  O  O198  1  0.24360141  1.00554924  0.63280179  1
  O  O199  1  0.74162582  0.48680021  0.12859986  1
  O  O200  1  0.74050020  0.50399879  0.63198363  1
  O  O201  1  0.74064252  0.99033399  0.11979489  1
  O  O202  1  0.73688070  0.99884367  0.63640869  1
  O  O203  1  -0.00215596  0.36013759  0.24067592  1
  O  O204  1  0.00835191  0.36416229  0.74784673  1
  O  O205  1  0.00516714  0.86489569  0.25185334  1
  O  O206  1  0.00584070  0.89005823  0.75507521  1
  O  O207  1  0.49685887  0.36948345  0.25893453  1
  O  O208  1  0.50831476  0.36265017  0.74481510  1
  O  O209  1  0.51628592  0.87451820  0.24585851  1
  O  O210  1  0.51380303  0.87996801  0.75871248  1
  O  O211  1  0.49450310  0.13070596  0.24659651  1
  O  O212  1  0.48656257  0.12868843  0.74697272  1
  O  O213  1  0.48982880  0.62037194  0.23747750  1
  O  O214  1  0.49438306  0.62175938  0.73950287  1
  O  O215  1  0.98814779  0.12530220  0.24276380  1
  O  O216  1  0.99079268  0.13272779  0.75491675  1
  O  O217  1  0.99670467  0.63085657  0.24197791  1
  O  O218  1  0.99461897  0.63406479  0.73998457  1
  O  O219  1  0.37001712  0.25453953  0.00050666  1
  O  O220  1  0.37547914  0.25645558  0.50834310  1
  O  O221  1  0.36627520  0.74762886  0.01099601  1
  O  O222  1  0.36844825  0.75100494  0.51462986  1
  O  O223  1  0.87812388  0.24066245  0.01363433  1
  O  O224  1  0.89510489  0.18363076  0.52694382  1
  O  O225  1  0.86823546  0.75333848  0.00470021  1
  O  O226  1  0.86595365  0.75312799  0.50653944  1
  O  O227  1  0.13031189  0.24562276  0.48827238  1
  O  O228  1  0.13002605  0.24570835  0.99553206  1
  O  O229  1  0.13358984  0.74624395  0.49622040  1
  O  O230  1  0.13982721  0.75264342  0.98971659  1
  O  O231  1  0.61532674  0.23644103  0.49824724  1
  O  O232  1  0.61266126  0.23927070  0.99534266  1
  O  O233  1  0.64141167  0.74282642  0.50920760  1
  O  O234  1  0.63139966  0.74503563  1.00037965  1
  O  O235  1  0.50250560  0.23736599  0.13560372  1
  O  O236  1  0.48690208  0.24768185  0.63198457  1
  O  O237  1  0.49099325  0.74250976  0.12688992  1
  O  O238  1  0.48883738  0.73925802  0.62149805  1
  O  O239  1  0.99189302  0.24214624  0.13232014  1
  O  O240  1  1.01033076  0.24524459  0.63680058  1
  O  O241  1  0.99876306  0.74440142  0.13140697  1
  O  O242  1  0.98709141  0.74739387  0.61889296  1
  O  O243  1  -0.00242112  0.26092226  0.36228682  1
  O  O244  1  0.00665312  0.24500506  0.87061359  1
  O  O245  1  0.00300296  0.75318578  0.37074788  1
  O  O246  1  0.01900759  0.75053935  0.88072013  1
  O  O247  1  0.49854812  0.26265375  0.37111597  1
  O  O248  1  0.49906124  0.24241036  0.86113919  1
  O  O249  1  0.48019250  0.72439668  0.35946556  1
  O  O250  1  0.51204605  0.75406643  0.88762742  1
  O  O251  1  0.25294435  0.12669420  0.48634972  1
  O  O252  1  0.24627944  0.13311824  0.99696218  1
  O  O253  1  0.24082491  0.63073840  0.49614497  1
  O  O254  1  0.25686480  0.63440298  0.99060948  1
  O  O255  1  0.73458986  0.11924353  0.48380749  1
  O  O256  1  0.74896290  0.12023032  0.98340518  1
  O  O257  1  0.74411070  0.63909127  0.50932515  1
  O  O258  1  0.73907041  0.63564605  1.01161230  1
  O  O259  1  0.25675487  0.35786346  0.00944923  1
  O  O260  1  0.25652642  0.37430099  0.50719147  1
  O  O261  1  0.24959450  0.86915111  0.01031613  1
  O  O262  1  0.24851788  0.86194700  0.49411957  1
  O  O263  1  0.73736828  0.36895285  0.01746637  1
  O  O264  1  0.74827517  0.37985636  0.51762882  1
  O  O265  1  0.75464458  0.86915310  0.01058583  1
  O  O266  1  0.75602603  0.86567994  0.50161847  1
  O  O267  1  0.14021794  0.50459964  0.24665068  1
  O  O268  1  0.12780550  0.48393552  0.74773466  1
  O  O269  1  0.13139410  0.99325128  0.24110461  1
  O  O270  1  0.13607498  1.00504410  0.73996939  1
  O  O271  1  0.63374973  0.50091931  0.23686424  1
  O  O272  1  0.61197583  0.48538698  0.73616656  1
  O  O273  1  0.62191237  0.98988233  0.23768653  1
  O  O274  1  0.62966948  0.99556239  0.74705093  1
  O  O275  1  0.37054773  0.00390513  0.25792141  1
  O  O276  1  0.36906167  0.00820008  0.75353056  1
  O  O277  1  0.36435260  0.50653902  0.25729010  1
  O  O278  1  0.37428503  0.51016483  0.75484205  1
  O  O279  1  0.87846755  0.00734065  0.25695109  1
  O  O280  1  0.86575613  -0.00021149  0.76399458  1
  O  O281  1  0.86519427  0.50680465  0.23612463  1
  O  O282  1  0.87914820  0.52103491  0.74925376  1
  O  O283  1  0.10632063  0.37334706  0.37245070  1
  O  O284  1  0.13553597  0.36407577  0.86880050  1
  O  O285  1  0.11967652  0.86873728  0.36629266  1
  O  O286  1  0.12782652  0.86088985  0.87266957  1
  O  O287  1  0.61172375  0.37862023  0.37598203  1
  O  O288  1  0.63845237  0.37061910  0.85536219  1
  O  O289  1  0.63483026  0.88243516  0.35740232  1
  O  O290  1  0.62247480  0.86865252  0.87245761  1
  O  O291  1  0.38330550  0.11737605  0.13976475  1
  O  O292  1  0.37329574  0.13230938  0.63198968  1
  O  O293  1  0.37994385  0.62981482  0.12725103  1
  O  O294  1  0.38371196  0.62904483  0.63241534  1
  O  O295  1  0.87647811  0.12658492  0.12965569  1
  O  O296  1  0.87174011  0.09961642  0.65141669  1
  O  O297  1  0.88594168  0.63268312  0.13181351  1
  O  O298  1  0.88413130  0.63801888  0.63476011  1
  O  O299  1  0.24460261  0.25628458  0.11936914  1
  O  O300  1  0.26117440  0.25932409  0.62476358  1
  O  O301  1  0.25318613  0.75536466  0.11621530  1
  O  O302  1  0.26564193  0.74531698  0.61639063  1
  O  O303  1  0.75353417  0.25846868  0.13156766  1
  O  O304  1  0.75329455  0.25804355  0.62535941  1
  O  O305  1  0.75562301  0.75778347  0.11682324  1
  O  O306  1  0.76329520  0.75586771  0.61910270  1
  O  O307  1  0.25069912  0.23982289  0.37075943  1
  O  O308  1  0.25654295  0.23493525  0.88461619  1
  O  O309  1  0.24620406  0.74073179  0.38218381  1
  O  O310  1  0.24716745  0.74301639  0.88088062  1
  O  O311  1  0.75026734  0.24031377  0.36776279  1
  O  O312  1  0.74944045  0.23430043  0.86607901  1
  O  O313  1  0.75622449  0.74923140  0.39158093  1
  O  O314  1  0.73900187  0.75592303  0.89143302  1
  O  O315  1  0.00572116  0.11706031  0.00614897  1
  O  O316  1  0.01654747  0.10551927  0.47161170  1
  O  O317  1  0.00401050  0.63203421  0.01610744  1
  O  O318  1  0.01637489  0.63478615  0.51070808  1
  O  O319  1  0.49593650  0.11387693  0.01197215  1
  O  O320  1  0.50760364  0.11539046  0.49957849  1
  O  O321  1  0.50271002  0.61701221  0.01424097  1
  O  O322  1  0.51076351  0.61353368  0.51135740  1
  O  O323  1  0.49724033  0.38655312  0.49609174  1
  O  O324  1  0.48921333  0.38384951  1.01188422  1
  O  O325  1  0.50612106  0.87154096  0.49486407  1
  O  O326  1  0.50190521  0.88911875  1.00352294  1
  O  O327  1  0.99780174  0.37718608  0.49167540  1
  O  O328  1  1.02040214  0.35735843  0.98846056  1
  O  O329  1  0.99425165  0.88302991  0.49022691  1
  O  O330  1  0.99190044  0.87944691  0.99670445  1
  O  O331  1  0.49020445  0.50222159  0.38545421  1
  O  O332  1  0.50719880  0.50247789  0.89324115  1
  O  O333  1  0.48370585  1.00125749  0.37126278  1
  O  O334  1  0.49117965  1.00077194  0.88553509  1
  O  O335  1  0.99960648  0.48639088  0.37368416  1
  O  O336  1  1.02359786  0.49743853  0.88594104  1
  O  O337  1  0.99367091  0.98709004  0.37231481  1
  O  O338  1  0.98794702  1.00263160  0.88294166  1
  O  O339  1  0.00449676  0.00279221  0.11793097  1
  O  O340  1  0.00405815  0.01231158  0.60635369  1
  O  O341  1  0.02222944  0.50737446  0.13552434  1
  O  O342  1  0.00365942  0.51501894  0.62693876  1
  O  O343  1  0.50496118  0.00853817  0.12158877  1
  O  O344  1  0.51280036  0.00237302  0.62548779  1
  O  O345  1  0.50502397  0.50508987  0.12262889  1
  O  O346  1  0.50613142  0.50638483  0.61923563  1
  O  O347  1  0.26009343  0.38228939  0.24415314  1
  O  O348  1  0.24465522  0.37433712  0.74184392  1
  O  O349  1  0.24270688  0.87779448  0.23869473  1
  O  O350  1  0.24718578  0.88926976  0.75254892  1
  O  O351  1  0.74588465  0.38166548  0.24108554  1
  O  O352  1  0.74339458  0.37670441  0.73402323  1
  O  O353  1  0.74321105  0.87010033  0.23746809  1
  O  O354  1  0.74080434  0.88769231  0.75376981  1
  O  O355  1  0.25965249  0.11811613  0.25023812  1
  O  O356  1  0.25857381  0.12283662  0.75672762  1
  O  O357  1  0.25275502  0.61893721  0.26071984  1
  O  O358  1  0.25986601  0.62077001  0.75720104  1
  O  O359  1  0.76048577  0.12599093  0.25445308  1
  O  O360  1  0.75280514  0.11441310  0.76014978  1
  O  O361  1  0.75905227  0.61385326  0.23820061  1
  O  O362  1  0.76592987  0.62782516  0.74727031  1
  O  O363  1  0.36810891  0.11727357  0.36401237  1
  O  O364  1  0.36822463  0.11496816  0.86727130  1
  O  O365  1  0.35695810  0.61557125  0.37299000  1
  O  O366  1  0.36940279  0.62349065  0.86727515  1
  O  O367  1  0.86702742  0.11773577  0.36332109  1
  O  O368  1  0.86315190  0.11528867  0.86884886  1
  O  O369  1  0.88150983  0.62188449  0.35278450  1
  O  O370  1  0.87942216  0.63479310  0.86109681  1
  O  O371  1  0.14237444  0.38882835  0.13074135  1
  O  O372  1  0.13459844  0.37418330  0.63006720  1
  O  O373  1  0.13253506  0.87810706  0.12709584  1
  O  O374  1  0.11827104  0.89437289  0.62317172  1
  O  O375  1  0.63013402  0.38048243  0.13089222  1
  O  O376  1  0.63225104  0.38143741  0.63026125  1
  O  O377  1  0.63298197  0.88168951  0.13052510  1
  O  O378  1  0.62800125  0.88121093  0.63729335  1
  O  O379  1  0.10468858  0.24083227  0.24948166  1
  O  O380  1  0.12051138  0.25953638  0.74984141  1
  O  O381  1  0.12058038  0.75294686  0.25754244  1
  O  O382  1  0.13492732  0.75561722  0.76136125  1
  O  O383  1  0.61072557  0.25193476  0.25803692  1
  O  O384  1  0.61397390  0.25393663  0.74725634  1
  O  O385  1  0.62370262  0.76484022  0.24618325  1
  O  O386  1  0.63432419  0.75880067  0.76398547  1
  O  O387  1  0.38843231  0.23939762  0.25407537  1
  O  O388  1  0.37892933  0.24408174  0.74488197  1
  O  O389  1  0.36742161  0.74134027  0.23286264  1
  O  O390  1  0.37038981  0.73738606  0.73902836  1
  O  O391  1  0.88439224  0.23883665  0.24140374  1
  O  O392  1  0.88754594  0.23919188  0.75473019  1
  O  O393  1  0.88005118  0.74442659  0.24256710  1
  O  O394  1  0.87107611  0.74587501  0.74239661  1
  O  O395  1  0.38255524  0.49670466  0.49921410  1
  O  O396  1  0.38412015  0.49241431  0.99659747  1
  O  O397  1  0.37617568  0.99942021  0.48228882  1
  O  O398  1  0.38115580  1.00334078  0.99022227  1
  O  O399  1  0.88735599  0.53761643  0.48828806  1
  O  O400  1  0.88943389  0.49275094  1.02860127  1
  O  O401  1  0.88427942  0.99768449  0.48689760  1
  O  O402  1  0.87783126  0.99388991  0.99108286  1
  O  O403  1  0.12191551  0.00173042  0.00403654  1
  O  O404  1  0.12124682  -0.00118172  0.50257313  1
  O  O405  1  0.14164505  0.50277706  0.02235957  1
  O  O406  1  0.12034521  0.51122240  0.50530923  1
  O  O407  1  0.61638306  0.00469957  0.01250516  1
  O  O408  1  0.62370277  0.00602889  0.50887831  1
  O  O409  1  0.61707636  0.50952744  0.01618890  1
  O  O410  1  0.62053242  0.50579885  0.51131109  1
  O  O411  1  0.36100705  0.38197289  0.11440631  1
  O  O412  1  0.37042880  0.36929012  0.62238973  1
  O  O413  1  0.36589309  0.86634676  0.13118322  1
  O  O414  1  0.38216310  0.85939435  0.63550179  1
  O  O415  1  0.85689785  0.36069333  0.12906609  1
  O  O416  1  0.86303556  0.37987987  0.62986780  1
  O  O417  1  0.86869339  0.86900292  0.12091392  1
  O  O418  1  0.87452846  0.87293062  0.61668418  1
  O  O419  1  0.14416036  0.11921537  0.36518795  1
  O  O420  1  0.13566822  0.11622148  0.88309270  1
  O  O421  1  0.13186696  0.62860847  0.38312072  1
  O  O422  1  0.13566299  0.63962506  0.86625932  1
  O  O423  1  0.63210007  0.12493319  0.37868574  1
  O  O424  1  0.63785324  0.12284611  0.87355401  1
  O  O425  1  0.62761329  0.61769837  0.39525350  1
  O  O426  1  0.61562054  0.63698947  0.89647116  1
