# generated using pymatgen
data_V85Zn86O256
_symmetry_space_group_name_H-M   'P 1'
_cell_length_a   16.97739744
_cell_length_b   16.98482710
_cell_length_c   16.96408833
_cell_angle_alpha   89.91598910
_cell_angle_beta   90.06413684
_cell_angle_gamma   89.90160564
_symmetry_Int_Tables_number   1
_chemical_formula_structural   V85Zn86O256
_chemical_formula_sum   'V85 Zn86 O256'
_cell_volume   4891.71774689
_cell_formula_units_Z   1
loop_
 _symmetry_equiv_pos_site_id
 _symmetry_equiv_pos_as_xyz
  1  'x, y, z'
loop_
 _atom_site_type_symbol
 _atom_site_label
 _atom_site_symmetry_multiplicity
 _atom_site_fract_x
 _atom_site_fract_y
 _atom_site_fract_z
 _atom_site_occupancy
  V  V0  1  0.11961584  0.24333124  0.37907301  1
  V  V1  1  0.87497278  0.50152656  0.37644689  1
  V  V2  1  0.37709267  0.86933485  0.51534532  1
  V  V3  1  -0.05533550  0.29057848  0.19058602  1
  V  V4  1  0.63349727  0.87805530  0.74977869  1
  V  V5  1  0.13341965  0.50386933  0.13113429  1
  V  V6  1  0.63626986  0.12472459  -0.00534437  1
  V  V7  1  0.25357879  0.49808236  0.75139427  1
  V  V8  1  0.25797190  0.62561557  0.36865205  1
  V  V9  1  0.00453504  0.88963426  0.86217225  1
  V  V10  1  0.12835020  0.62968479  -0.00067080  1
  V  V11  1  0.87666671  0.49924495  0.87793310  1
  V  V12  1  0.48997306  0.63465759  0.13770096  1
  V  V13  1  0.62372715  0.37419876  0.75573585  1
  V  V14  1  0.88852806  0.88092836  0.00248048  1
  V  V15  1  0.00393146  0.50322307  -0.00025577  1
  V  V16  1  0.37434249  0.62387779  0.75094750  1
  V  V17  1  0.62639607  0.49759353  0.62351220  1
  V  V18  1  0.25372694  0.37375731  0.12462611  1
  V  V19  1  0.74976942  -0.00114507  0.25176022  1
  V  V20  1  0.74444912  0.63017093  0.37143167  1
  V  V21  1  0.49943524  0.23822039  0.75270494  1
  V  V22  1  0.38656013  0.12927798  0.24887589  1
  V  V23  1  0.75171943  0.49447425  0.24693666  1
  V  V24  1  0.12113686  0.75280257  0.37920431  1
  V  V25  1  0.37647426  -0.00177643  0.86982797  1
  V  V26  1  0.12513470  0.62517629  0.50267512  1
  V  V27  1  -0.00135185  0.37316871  0.87750255  1
  V  V28  1  -0.00558459  0.13538804  0.62464491  1
  V  V29  1  0.62170642  0.62749448  0.49555507  1
  V  V30  1  0.12410571  0.37024634  0.25074273  1
  V  V31  1  0.62167828  0.85942139  0.25474408  1
  V  V32  1  0.30677638  0.45579062  0.30530340  1
  V  V33  1  0.00284611  0.63674054  0.12696171  1
  V  V34  1  0.61886779  0.37098569  0.25214518  1
  V  V35  1  0.62714790  0.62538327  0.00340317  1
  V  V36  1  0.50025188  0.85635982  0.37175330  1
  V  V37  1  0.86113314  0.00570969  0.87320087  1
  V  V38  1  0.49911262  0.00138770  0.00371898  1
  V  V39  1  0.50263660  0.50111177  0.00171651  1
  V  V40  1  0.48774385  0.49055404  0.49594039  1
  V  V41  1  0.63123855  0.49670332  0.12462137  1
  V  V42  1  0.50009956  0.13802257  0.12988916  1
  V  V43  1  0.50032704  0.74828161  0.74944262  1
  V  V44  1  -0.00114558  0.75579250  0.25355723  1
  V  V45  1  0.12131210  0.88195971  0.26268255  1
  V  V46  1  -0.00243445  0.37050829  0.37525579  1
  V  V47  1  0.12410214  0.49921594  0.62711951  1
  V  V48  1  0.75337136  0.62457689  0.87703796  1
  V  V49  1  0.24928131  0.00535730  0.25190492  1
  V  V50  1  0.12626150  0.24680370  0.87627091  1
  V  V51  1  0.74820629  0.13117486  0.37493647  1
  V  V52  1  0.50241713  0.87176024  0.88242210  1
  V  V53  1  0.12832893  -0.00453629  0.11778882  1
  V  V54  1  0.37675530  0.49994873  0.87800901  1
  V  V55  1  0.26658292  0.84601768  0.15086884  1
  V  V56  1  0.87635957  0.63057970  0.24797288  1
  V  V57  1  0.74780665  0.75014155  0.50187107  1
  V  V58  1  0.49659783  0.62484445  0.62551899  1
  V  V59  1  -0.00342287  0.62783198  0.62653731  1
  V  V60  1  0.87780763  -0.00589916  0.37505873  1
  V  V61  1  0.87609801  0.36876812  0.50945464  1
  V  V62  1  0.37407850  0.87303467  0.01170079  1
  V  V63  1  0.74779510  0.25232415  0.50470599  1
  V  V64  1  0.12127494  0.75720639  0.86714358  1
  V  V65  1  0.62339949  0.00008527  0.13327101  1
  V  V66  1  0.75059269  0.49924749  0.75200027  1
  V  V67  1  0.00101556  0.11695768  0.11839896  1
  V  V68  1  0.25606584  0.25657438  0.50333812  1
  V  V69  1  0.85927398  0.12795769  0.74719036  1
  V  V70  1  0.62758998  0.74772101  0.87890865  1
  V  V71  1  0.25413570  0.74914641  0.51578285  1
  V  V72  1  0.76124288  0.75105171  0.00437633  1
  V  V73  1  0.25255862  0.11970074  0.87095533  1
  V  V74  1  0.13964421  0.10788984  0.51435633  1
  V  V75  1  0.37648048  -0.00414354  0.37731297  1
  V  V76  1  0.75593201  0.87085556  0.12676753  1
  V  V77  1  0.25317350  0.75340968  -0.00097401  1
  V  V78  1  0.12731277  0.37337525  0.75015922  1
  V  V79  1  0.37870304  0.36865573  0.00492771  1
  V  V80  1  -0.00210046  0.49902647  0.50008220  1
  V  V81  1  0.88102916  0.12570350  0.24690303  1
  V  V82  1  -0.00350789  -0.00453397  0.50476554  1
  V  V83  1  0.25606279  0.24543650  0.00320330  1
  V  V84  1  0.76089548  0.25900867  0.00752224  1
  Zn  Zn85  1  0.12342538  0.11496648  -0.00294653  1
  Zn  Zn86  1  0.75584624  0.37128543  0.63080860  1
  Zn  Zn87  1  0.87753360  0.37393685  0.01802690  1
  Zn  Zn88  1  0.37276671  0.12004348  0.74545121  1
  Zn  Zn89  1  0.50508289  -0.00131714  0.50418299  1
  Zn  Zn90  1  0.25947325  0.37861128  0.62126905  1
  Zn  Zn91  1  0.25139494  0.12536027  0.37425776  1
  Zn  Zn92  1  0.38002709  0.25279303  0.62194273  1
  Zn  Zn93  1  0.00046847  0.75682597  0.74499043  1
  Zn  Zn94  1  0.48510834  0.37460961  0.37374734  1
  Zn  Zn95  1  0.24834478  0.62668821  0.87442470  1
  Zn  Zn96  1  0.63071664  0.01654584  0.64820112  1
  Zn  Zn97  1  0.14494550  -0.02239350  0.64846820  1
  Zn  Zn98  1  0.62155958  0.12648964  0.50569561  1
  Zn  Zn99  1  0.50352350  0.37026915  0.87845306  1
  Zn  Zn100  1  0.87462949  0.87050457  0.50072206  1
  Zn  Zn101  1  0.61072849  0.25178716  0.37528874  1
  Zn  Zn102  1  0.75202691  0.88147813  0.62933586  1
  Zn  Zn103  1  0.87233975  0.75518126  0.62958265  1
  Zn  Zn104  1  0.63056623  0.24148620  0.87560028  1
  Zn  Zn105  1  0.87726448  0.62701223  0.75053429  1
  Zn  Zn106  1  -0.00958480  0.25105973  0.74893845  1
  Zn  Zn107  1  0.18682380  0.18652158  0.18632843  1
  Zn  Zn108  1  0.18689591  0.18593940  0.68884565  1
  Zn  Zn109  1  0.20005113  0.69187218  0.19783099  1
  Zn  Zn110  1  0.19331629  0.80721087  0.68741215  1
  Zn  Zn111  1  0.69059286  0.18649908  0.18697852  1
  Zn  Zn112  1  0.68520837  0.19324804  0.68493391  1
  Zn  Zn113  1  0.68728796  0.68377638  0.18374544  1
  Zn  Zn114  1  0.68651373  0.68655534  0.68756919  1
  Zn  Zn115  1  0.31333456  0.29261830  0.31502157  1
  Zn  Zn116  1  0.31544782  0.31264487  0.81539629  1
  Zn  Zn117  1  0.30899714  0.81126075  0.32179361  1
  Zn  Zn118  1  0.32113410  0.80910704  0.81963524  1
  Zn  Zn119  1  0.80661255  0.31627432  0.31915910  1
  Zn  Zn120  1  0.80778453  0.30792472  0.82151415  1
  Zn  Zn121  1  0.81148836  0.81130137  0.31402481  1
  Zn  Zn122  1  0.81939578  0.81072146  0.81504509  1
  Zn  Zn123  1  0.18116979  0.43569275  0.43976557  1
  Zn  Zn124  1  0.19028415  0.43733105  0.93820693  1
  Zn  Zn125  1  0.19622978  0.94401636  0.46164614  1
  Zn  Zn126  1  0.19211048  0.94010561  0.82113179  1
  Zn  Zn127  1  0.68768536  0.43958004  0.43665973  1
  Zn  Zn128  1  0.69295784  0.43197766  0.94113586  1
  Zn  Zn129  1  0.68671594  0.93846688  0.44226446  1
  Zn  Zn130  1  0.68648933  0.93719260  0.94030915  1
  Zn  Zn131  1  0.31141757  0.05961165  0.06544154  1
  Zn  Zn132  1  0.31693290  0.06517694  0.56104298  1
  Zn  Zn133  1  0.31421703  0.56339240  0.06550686  1
  Zn  Zn134  1  0.31062365  0.56457097  0.56598984  1
  Zn  Zn135  1  0.81467534  0.05879000  0.06310024  1
  Zn  Zn136  1  0.80582456  0.06290719  0.56569202  1
  Zn  Zn137  1  0.81779656  0.56353506  0.06448394  1
  Zn  Zn138  1  0.81084452  0.56280904  0.56118678  1
  Zn  Zn139  1  0.44358278  0.43877915  0.18032706  1
  Zn  Zn140  1  0.44023409  0.43088850  0.68561196  1
  Zn  Zn141  1  0.44060428  0.93907135  0.19560194  1
  Zn  Zn142  1  0.45153995  0.93920840  0.68978903  1
  Zn  Zn143  1  0.94706703  0.45781818  0.19076569  1
  Zn  Zn144  1  0.93902056  0.43990768  0.69110570  1
  Zn  Zn145  1  0.93971870  0.93858667  0.18819543  1
  Zn  Zn146  1  0.92954549  0.94466909  0.68442989  1
  Zn  Zn147  1  0.05971540  0.06712134  0.31374542  1
  Zn  Zn148  1  0.05731783  0.06677678  0.80764291  1
  Zn  Zn149  1  0.06701107  0.56264060  0.31424079  1
  Zn  Zn150  1  0.06477494  0.56497248  0.81193812  1
  Zn  Zn151  1  0.57443324  0.04613052  0.34032580  1
  Zn  Zn152  1  0.49761768  0.12239687  0.61881418  1
  Zn  Zn153  1  0.55939328  0.55875634  0.31359717  1
  Zn  Zn154  1  0.56440423  0.56081243  0.81492445  1
  Zn  Zn155  1  0.44162540  0.18900435  0.43389084  1
  Zn  Zn156  1  0.44345995  0.18429759  0.93576807  1
  Zn  Zn157  1  0.43397645  0.68453388  0.44165103  1
  Zn  Zn158  1  0.43827190  0.68603044  0.94382247  1
  Zn  Zn159  1  0.93674818  0.18420416  0.43925333  1
  Zn  Zn160  1  0.93474062  0.18451757  0.93778166  1
  Zn  Zn161  1  0.93512349  0.68840995  0.43764283  1
  Zn  Zn162  1  0.94164561  0.69309399  0.93560223  1
  Zn  Zn163  1  0.07093973  0.31317762  0.05717722  1
  Zn  Zn164  1  0.06625138  0.30817510  0.56193758  1
  Zn  Zn165  1  0.07424232  0.81667965  0.06573248  1
  Zn  Zn166  1  0.05794301  0.81409101  0.55975956  1
  Zn  Zn167  1  0.56914798  0.31194385  0.06517717  1
  Zn  Zn168  1  0.56451075  0.31066011  0.56567029  1
  Zn  Zn169  1  0.56732604  0.81086583  0.06775549  1
  Zn  Zn170  1  0.56097841  0.80987320  0.56455088  1
  O  O171  1  0.11942371  0.11366883  0.12691874  1
  O  O172  1  0.11419758  0.12881316  0.61776845  1
  O  O173  1  0.12386617  0.61971466  0.12196121  1
  O  O174  1  0.11281936  0.61763766  0.61069439  1
  O  O175  1  0.61757862  0.11485005  0.12667038  1
  O  O176  1  0.61886817  0.12794797  0.62323572  1
  O  O177  1  0.62103291  0.61339604  0.11972787  1
  O  O178  1  0.61541874  0.61622876  0.62069084  1
  O  O179  1  0.36367468  0.38800695  0.35793405  1
  O  O180  1  0.37773663  0.38591968  0.88699650  1
  O  O181  1  0.38309830  0.87528487  0.37951531  1
  O  O182  1  0.38365503  0.88008144  0.89090985  1
  O  O183  1  0.88142865  0.38231584  0.38128167  1
  O  O184  1  0.88394656  0.38535169  0.87694361  1
  O  O185  1  0.86787636  0.89121581  0.37775225  1
  O  O186  1  0.88687080  0.88493110  0.88103465  1
  O  O187  1  0.26090440  0.00051429  0.37272415  1
  O  O188  1  0.26367188  0.00912149  0.88355162  1
  O  O189  1  0.25031493  0.50701749  0.37845654  1
  O  O190  1  0.25993279  0.50231068  0.87102312  1
  O  O191  1  0.76122535  0.00945727  0.37048693  1
  O  O192  1  0.76326055  -0.00607983  0.87661823  1
  O  O193  1  0.75536484  0.51075376  0.36822577  1
  O  O194  1  0.76029789  0.50437685  0.87588266  1
  O  O195  1  0.23876514  0.49300893  0.11801580  1
  O  O196  1  0.24140204  0.49893682  0.63301093  1
  O  O197  1  0.24397384  0.99683624  0.13877563  1
  O  O198  1  0.21014239  1.02067676  0.56126647  1
  O  O199  1  0.74394654  0.50761820  0.13432977  1
  O  O200  1  0.73886611  0.50085914  0.63015381  1
  O  O201  1  0.74029616  0.99278830  0.13112647  1
  O  O202  1  0.73129802  0.99053266  0.60283014  1
  O  O203  1  0.00464899  0.36596343  0.25168047  1
  O  O204  1  0.00612000  0.37302602  0.76203376  1
  O  O205  1  0.00877785  0.86789213  0.24886097  1
  O  O206  1  -0.00347904  0.87990757  0.76004095  1
  O  O207  1  0.51580834  0.38542630  0.25106878  1
  O  O208  1  0.51132211  0.37205154  0.75721561  1
  O  O209  1  0.50668268  0.87023974  0.26090901  1
  O  O210  1  0.50767725  0.86217413  0.76098878  1
  O  O211  1  0.49017171  0.11417468  0.24581619  1
  O  O212  1  0.50033977  0.13871078  0.75401664  1
  O  O213  1  0.50311489  0.61946750  0.23660645  1
  O  O214  1  0.49536063  0.62594306  0.74527652  1
  O  O215  1  0.98859873  0.12830608  0.24224706  1
  O  O216  1  0.99026682  0.12991207  0.73982727  1
  O  O217  1  0.99982948  0.63285852  0.24463321  1
  O  O218  1  1.00092815  0.62399255  0.73752982  1
  O  O219  1  0.36980435  0.25814183  -0.00654199  1
  O  O220  1  0.35772006  0.25050325  0.49521390  1
  O  O221  1  0.36478326  0.75700741  -0.00215643  1
  O  O222  1  0.36893806  0.75881946  0.50247767  1
  O  O223  1  0.86620780  0.25362241  -0.00048002  1
  O  O224  1  0.86832766  0.26202678  0.49228157  1
  O  O225  1  0.86626919  0.75946592  -0.00481074  1
  O  O226  1  0.86310817  0.75010248  0.50080175  1
  O  O227  1  0.13067364  0.23727097  0.49485542  1
  O  O228  1  0.13565072  0.24892043  0.98767520  1
  O  O229  1  0.12962026  0.74213010  0.49448597  1
  O  O230  1  0.12650907  0.74550201  0.98682096  1
  O  O231  1  0.63356695  0.25093551  0.49422186  1
  O  O232  1  0.63010648  0.23615735  1.00275543  1
  O  O233  1  0.62856553  0.73368881  0.50499003  1
  O  O234  1  0.63867074  0.74652662  0.99671037  1
  O  O235  1  0.50410841  0.23697238  0.12420090  1
  O  O236  1  0.50139114  0.25161121  0.64237077  1
  O  O237  1  0.50754513  0.73299505  0.12264056  1
  O  O238  1  0.50458842  0.73701138  0.63747914  1
  O  O239  1  1.01104154  0.24123622  0.12710097  1
  O  O240  1  0.99769945  0.23945579  0.62511393  1
  O  O241  1  1.01193853  0.74238489  0.13495353  1
  O  O242  1  0.99664191  0.73986574  0.62336569  1
  O  O243  1  0.01151851  0.25389644  0.38083780  1
  O  O244  1  0.00859511  0.25755003  0.87751047  1
  O  O245  1  0.01314863  0.74500287  0.37046635  1
  O  O246  1  0.00568383  0.76569314  0.87293688  1
  O  O247  1  0.49714476  0.26320398  0.37287002  1
  O  O248  1  0.50973566  0.25119640  0.86822476  1
  O  O249  1  0.49270010  0.75759699  0.37465117  1
  O  O250  1  0.50835651  0.75253218  0.87565340  1
  O  O251  1  0.24676784  0.14120977  0.49310426  1
  O  O252  1  0.24996805  0.13150199  0.99378207  1
  O  O253  1  0.24215236  0.62707445  0.49373648  1
  O  O254  1  0.24063636  0.63070801  0.99927132  1
  O  O255  1  0.75021264  0.13573990  0.48911204  1
  O  O256  1  0.73933353  0.12566256  1.00649048  1
  O  O257  1  0.74168579  0.62990705  0.49208649  1
  O  O258  1  0.74907393  0.63274482  0.99853995  1
  O  O259  1  0.25899704  0.36718823  0.00330852  1
  O  O260  1  0.23639984  0.36067289  0.50376081  1
  O  O261  1  0.26643062  0.86585281  0.02080237  1
  O  O262  1  0.26803778  0.86199692  0.49719890  1
  O  O263  1  0.75716077  0.36541117  0.00836716  1
  O  O264  1  0.75933307  0.37107206  0.49967911  1
  O  O265  1  0.75800582  0.86870745  0.00822507  1
  O  O266  1  0.74404088  0.85670669  0.49362473  1
  O  O267  1  0.11654296  0.48529803  0.24170233  1
  O  O268  1  0.13138314  0.49284981  0.74802913  1
  O  O269  1  0.13005564  0.99649965  0.25192061  1
  O  O270  1  0.13503299  1.00990873  0.75275021  1
  O  O271  1  0.63374331  0.49555824  0.24286789  1
  O  O272  1  0.63059811  0.49516212  0.74421941  1
  O  O273  1  0.63097021  0.98944958  0.24771616  1
  O  O274  1  0.62385089  0.97529074  0.76014329  1
  O  O275  1  0.36542809  0.00380865  0.25772629  1
  O  O276  1  0.38797386  -0.00089861  0.76723460  1
  O  O277  1  0.36814993  0.50243033  0.24378124  1
  O  O278  1  0.37706169  0.50344835  0.76105456  1
  O  O279  1  0.87194584  0.00582365  0.25934640  1
  O  O280  1  0.87638617  0.01193041  0.76340900  1
  O  O281  1  0.86920855  0.50906376  0.25621773  1
  O  O282  1  0.86907876  0.50228349  0.76079941  1
  O  O283  1  0.11613015  0.36982633  0.36796418  1
  O  O284  1  0.11970181  0.37046313  0.86827825  1
  O  O285  1  0.13272064  0.86654611  0.36910070  1
  O  O286  1  0.11020872  0.87304758  0.87893231  1
  O  O287  1  0.62803791  0.37872562  0.35884087  1
  O  O288  1  0.62617402  0.37850027  0.86474340  1
  O  O289  1  0.60831404  0.87298377  0.36880388  1
  O  O290  1  0.62121815  0.86534157  0.87359956  1
  O  O291  1  0.38659201  0.11222217  0.13899648  1
  O  O292  1  0.37748342  0.13137104  0.62982893  1
  O  O293  1  0.39084604  0.62377225  0.12033488  1
  O  O294  1  0.38864063  0.61707388  0.63604127  1
  O  O295  1  0.88631592  0.11540788  0.13370472  1
  O  O296  1  0.87889378  0.11849965  0.63902230  1
  O  O297  1  0.89190632  0.62098014  0.13375424  1
  O  O298  1  0.88758077  0.62072634  0.62397796  1
  O  O299  1  0.24369133  0.25658928  0.11113257  1
  O  O300  1  0.24649492  0.25035513  0.61168254  1
  O  O301  1  0.22002759  0.75304610  0.10221025  1
  O  O302  1  0.24781019  0.73520223  0.61362746  1
  O  O303  1  0.74775824  0.24320062  0.10693260  1
  O  O304  1  0.74970017  0.25461262  0.60995208  1
  O  O305  1  0.74946054  0.75903340  0.11743473  1
  O  O306  1  0.75142214  0.74657021  0.61432735  1
  O  O307  1  0.23631734  0.25052941  0.38571710  1
  O  O308  1  0.24524678  0.24570067  0.88531055  1
  O  O309  1  0.23877293  0.73744537  0.38365580  1
  O  O310  1  0.24208271  0.74920907  0.88675685  1
  O  O311  1  0.74859200  0.24527436  0.38498308  1
  O  O312  1  0.74362454  0.25169751  0.89744333  1
  O  O313  1  0.75321988  0.73524983  0.37956128  1
  O  O314  1  0.74828688  0.74292727  0.88428443  1
  O  O315  1  0.00347905  0.12888632  0.01437826  1
  O  O316  1  0.00380950  0.11779390  0.50900569  1
  O  O317  1  0.01139854  0.62712260  0.00771529  1
  O  O318  1  0.00542668  0.61855563  0.50317694  1
  O  O319  1  0.50741383  0.11621658  0.01175372  1
  O  O320  1  0.49996102  0.12012973  0.49976624  1
  O  O321  1  0.50963371  0.61680970  0.00486508  1
  O  O322  1  0.50484857  0.61771474  0.50730708  1
  O  O323  1  0.50440730  0.38887948  0.50232349  1
  O  O324  1  0.49582925  0.38120252  1.00179056  1
  O  O325  1  0.49218975  0.87058442  0.49024405  1
  O  O326  1  0.49329254  0.87858676  1.00545972  1
  O  O327  1  0.99464221  0.37848738  0.49626755  1
  O  O328  1  1.00315103  0.38117102  0.98985832  1
  O  O329  1  0.99440790  0.89169100  0.49859281  1
  O  O330  1  0.99010161  0.86951371  1.00108051  1
  O  O331  1  0.50031115  0.49546545  0.39128482  1
  O  O332  1  0.49604882  0.49914452  0.88834303  1
  O  O333  1  0.48254929  0.98336506  0.36957645  1
  O  O334  1  0.49433304  0.98965422  0.89654499  1
  O  O335  1  0.99568958  0.49316513  0.38013204  1
  O  O336  1  0.99627150  0.49466191  0.88031066  1
  O  O337  1  0.98051803  1.01077095  0.37874032  1
  O  O338  1  0.99496219  0.99102534  0.87630146  1
  O  O339  1  0.01386130  0.00654137  0.13272391  1
  O  O340  1  -0.00042890  0.00820146  0.61086187  1
  O  O341  1  0.01544766  0.51337251  0.11788969  1
  O  O342  1  0.00627815  0.50458331  0.61989474  1
  O  O343  1  0.51132495  -0.00104929  0.12092839  1
  O  O344  1  0.51554951  0.00087725  0.62207720  1
  O  O345  1  0.50923653  0.50803633  0.11384445  1
  O  O346  1  0.51139725  0.50472155  0.61958640  1
  O  O347  1  0.24721937  0.38214475  0.25065844  1
  O  O348  1  0.24129319  0.38004176  0.75385062  1
  O  O349  1  0.24137988  0.89256653  0.25518258  1
  O  O350  1  0.25371773  0.87004105  0.75767428  1
  O  O351  1  0.74606151  0.39066337  0.25290213  1
  O  O352  1  0.74528790  0.38076189  0.75099200  1
  O  O353  1  0.74657758  0.87902086  0.24462563  1
  O  O354  1  0.73680135  0.86301534  0.75295268  1
  O  O355  1  0.25728608  0.11746249  0.25144386  1
  O  O356  1  0.25573098  0.13598336  0.76719202  1
  O  O357  1  0.23692228  0.61248043  0.27060990  1
  O  O358  1  0.26897652  0.61701031  0.75456842  1
  O  O359  1  0.76354785  0.11876181  0.25053802  1
  O  O360  1  0.76043105  0.12743474  0.74607987  1
  O  O361  1  0.75446694  0.61955554  0.25533747  1
  O  O362  1  0.75071331  0.61729567  0.76023525  1
  O  O363  1  0.37457856  0.11415833  0.36355429  1
  O  O364  1  0.37010445  0.11372468  0.87898206  1
  O  O365  1  0.35735958  0.62988781  0.37573749  1
  O  O366  1  0.37746216  0.61250881  0.87308126  1
  O  O367  1  0.86652428  0.12091578  0.36658238  1
  O  O368  1  0.87810091  0.11180932  0.86832715  1
  O  O369  1  0.86843933  0.61949199  0.36806706  1
  O  O370  1  0.87531007  0.61268851  0.87906954  1
  O  O371  1  0.13181041  0.38135193  0.13214729  1
  O  O372  1  0.12239062  0.37797568  0.63955786  1
  O  O373  1  0.13771417  0.87964771  0.14349302  1
  O  O374  1  0.13313496  0.87147361  0.61634792  1
  O  O375  1  0.62243137  0.38923007  0.13441261  1
  O  O376  1  0.62868138  0.38333763  0.63700098  1
  O  O377  1  0.63498119  0.88148524  0.13230976  1
  O  O378  1  0.62439507  0.86422619  0.64478835  1
  O  O379  1  0.13422144  0.26215185  0.25935345  1
  O  O380  1  0.12411254  0.25713314  0.76185112  1
  O  O381  1  0.11787901  0.75784738  0.26050615  1
  O  O382  1  0.12244353  0.74762710  0.76429440  1
  O  O383  1  0.63555314  0.27052886  0.24564511  1
  O  O384  1  0.61840383  0.25820223  0.75542340  1
  O  O385  1  0.63363937  0.76119819  0.24741228  1
  O  O386  1  0.61547693  0.74654785  0.76188148  1
  O  O387  1  0.37229099  0.22826950  0.24598144  1
  O  O388  1  0.39180318  0.24936911  0.75892097  1
  O  O389  1  0.30017606  0.76613778  0.21809071  1
  O  O390  1  0.39228695  0.73678013  0.76329404  1
  O  O391  1  0.87203986  0.24402535  0.25170793  1
  O  O392  1  0.87403759  0.23293704  0.76249698  1
  O  O393  1  0.89111581  0.74769459  0.25767074  1
  O  O394  1  0.88173617  0.74388027  0.74853014  1
  O  O395  1  0.39004692  0.50349868  0.50728266  1
  O  O396  1  0.38397543  0.49481135  0.99588815  1
  O  O397  1  0.37674769  0.98514510  0.49371273  1
  O  O398  1  0.38290524  0.99112528  1.00143998  1
  O  O399  1  0.87933717  0.49377329  0.49406811  1
  O  O400  1  0.88519576  0.49559344  0.99685957  1
  O  O401  1  0.88301705  1.00449783  0.48951819  1
  O  O402  1  0.87316695  0.99252109  0.98728293  1
  O  O403  1  0.13229863  -0.00335672  0.01901798  1
  O  O404  1  0.09763086  0.00803250  0.47225011  1
  O  O405  1  0.12270186  0.51010093  0.00452452  1
  O  O406  1  0.11749520  0.50555277  0.50538274  1
  O  O407  1  0.62088292  0.00626914  0.01190169  1
  O  O408  1  0.61241730  0.01822057  0.45667071  1
  O  O409  1  0.62182745  0.50195927  0.00644061  1
  O  O410  1  0.62161232  0.50838042  0.50836299  1
  O  O411  1  0.37034181  0.38001372  0.11252690  1
  O  O412  1  0.37057754  0.36668612  0.63052364  1
  O  O413  1  0.36952681  0.87907443  0.12674753  1
  O  O414  1  0.38493279  0.87750737  0.61341461  1
  O  O415  1  0.89889931  0.36851628  0.13439714  1
  O  O416  1  0.87556036  0.38274004  0.61334182  1
  O  O417  1  0.86387623  0.88531030  0.11823601  1
  O  O418  1  0.86897633  0.87427621  0.61975120  1
  O  O419  1  0.12789944  0.13157912  0.38206584  1
  O  O420  1  0.13155355  0.13253487  0.87894216  1
  O  O421  1  0.12912571  0.62916090  0.38721378  1
  O  O422  1  0.12486587  0.63363196  0.88417289  1
  O  O423  1  0.64425070  0.13696323  0.35367384  1
  O  O424  1  0.62397251  0.11887683  0.89816641  1
  O  O425  1  0.63234040  0.61703870  0.38368582  1
  O  O426  1  0.63248073  0.62788118  0.88464307  1
