# generated using pymatgen
data_V85Zn86O256
_symmetry_space_group_name_H-M   'P 1'
_cell_length_a   16.91522502
_cell_length_b   16.92131192
_cell_length_c   16.92414749
_cell_angle_alpha   89.99290559
_cell_angle_beta   90.05894194
_cell_angle_gamma   90.02457090
_symmetry_Int_Tables_number   1
_chemical_formula_structural   V85Zn86O256
_chemical_formula_sum   'V85 Zn86 O256'
_cell_volume   4844.15844008
_cell_formula_units_Z   1
loop_
 _symmetry_equiv_pos_site_id
 _symmetry_equiv_pos_as_xyz
  1  'x, y, z'
loop_
 _atom_site_type_symbol
 _atom_site_label
 _atom_site_symmetry_multiplicity
 _atom_site_fract_x
 _atom_site_fract_y
 _atom_site_fract_z
 _atom_site_occupancy
  V  V0  1  0.24268555  0.12931804  0.87584736  1
  V  V1  1  0.74712544  0.62230801  0.37323711  1
  V  V2  1  0.12755222  0.62061884  0.50358702  1
  V  V3  1  0.87138437  0.87776813  0.00329872  1
  V  V4  1  0.36479006  0.61856086  0.75075569  1
  V  V5  1  0.37599519  0.37577138  0.00049919  1
  V  V6  1  -0.00799596  0.36457129  0.87073156  1
  V  V7  1  0.62925437  0.61821765  0.00006990  1
  V  V8  1  0.62315839  0.38341316  0.26221298  1
  V  V9  1  0.00679727  0.00668130  0.49923776  1
  V  V10  1  0.38068259  0.87443987  0.00134301  1
  V  V11  1  0.87030157  0.49758385  0.37476406  1
  V  V12  1  0.24289155  0.25411053  -0.00067540  1
  V  V13  1  0.49848089  0.62375025  0.62269468  1
  V  V14  1  0.37096648  0.61083659  0.24878094  1
  V  V15  1  0.12693248  0.00298744  0.12366167  1
  V  V16  1  0.12952313  0.87303226  0.73905681  1
  V  V17  1  0.25358816  0.76040491  0.50268770  1
  V  V18  1  0.37544205  0.25475521  0.62232587  1
  V  V19  1  0.25961574  0.00130840  0.25141329  1
  V  V20  1  0.74051550  0.12751951  0.37295057  1
  V  V21  1  0.24764792  0.86932320  0.11924089  1
  V  V22  1  -0.00196940  0.74901148  0.25314425  1
  V  V23  1  0.87457218  0.25297768  0.62833966  1
  V  V24  1  0.87556358  -0.00205343  0.87436976  1
  V  V25  1  0.36903276  0.74244216  0.11812406  1
  V  V26  1  0.12578360  0.36081066  0.75928466  1
  V  V27  1  0.73806537  0.38831325  0.12583061  1
  V  V28  1  0.63117219  0.49699383  0.62457159  1
  V  V29  1  0.62765189  0.87120959  0.24458039  1
  V  V30  1  0.13170258  0.49650374  0.12981667  1
  V  V31  1  0.49929035  0.74889305  0.75053450  1
  V  V32  1  0.74950102  -0.00494620  0.24229032  1
  V  V33  1  0.86793042  0.75447384  0.12792901  1
  V  V34  1  0.75186381  0.25421024  0.00171573  1
  V  V35  1  0.01197236  0.87582527  0.87604110  1
  V  V36  1  0.62724715  0.25074679  0.87454261  1
  V  V37  1  0.38154213  0.00056517  0.88114066  1
  V  V38  1  0.75952757  0.51732421  0.74985183  1
  V  V39  1  0.24554031  0.24583108  0.50334469  1
  V  V40  1  0.49110580  0.48526497  0.49796311  1
  V  V41  1  0.00138965  0.75040326  0.75048448  1
  V  V42  1  0.49724750  0.74564226  0.24887940  1
  V  V43  1  0.87183841  0.25991132  0.12404841  1
  V  V44  1  0.49995760  0.12615278  0.61486224  1
  V  V45  1  0.12585274  0.74738175  0.37655842  1
  V  V46  1  -0.00391846  0.62393550  0.62995524  1
  V  V47  1  0.25091961  0.61404251  0.37325286  1
  V  V48  1  0.75100404  0.12503508  0.87446743  1
  V  V49  1  0.00089626  0.37377384  0.37723014  1
  V  V50  1  0.50728743  0.24810211  0.26408175  1
  V  V51  1  0.86884727  0.37526898  0.50570850  1
  V  V52  1  0.37838133  0.12748139  0.75165537  1
  V  V53  1  0.87193772  0.12613339  0.24876849  1
  V  V54  1  0.50504674  0.61567306  0.12386902  1
  V  V55  1  0.00091570  0.25128925  0.25049351  1
  V  V56  1  0.23752874  0.62898643  0.88382892  1
  V  V57  1  0.63883060  0.37681474  0.75092255  1
  V  V58  1  0.75470879  0.74567673  -0.00477753  1
  V  V59  1  0.26592799  0.12139281  0.38046460  1
  V  V60  1  0.74508872  0.24965226  0.49870862  1
  V  V61  1  0.00021026  0.12723340  0.12410445  1
  V  V62  1  -0.00035182  0.49313951  -0.00006107  1
  V  V63  1  0.74860722  0.87676247  0.61954526  1
  V  V64  1  0.62990095  0.74472848  0.87387695  1
  V  V65  1  0.48406622  0.87817284  0.37768191  1
  V  V66  1  0.00678250  0.12902157  0.62340346  1
  V  V67  1  0.00160926  0.87565716  0.37669352  1
  V  V68  1  0.62365766  0.87540395  0.74921209  1
  V  V69  1  0.25198678  0.37911645  0.62768941  1
  V  V70  1  0.12292543  0.23677310  0.38036605  1
  V  V71  1  -0.00182122  0.62154374  0.12637548  1
  V  V72  1  0.88226997  0.12876204  0.74996926  1
  V  V73  1  0.87024985  0.61848535  0.25034545  1
  V  V74  1  0.75041135  0.00040174  0.74739621  1
  V  V75  1  0.37182647  0.76144665  0.62319941  1
  V  V76  1  0.25192645  -0.00378216  0.74473763  1
  V  V77  1  0.62307626  0.75077733  0.37659750  1
  V  V78  1  0.50244159  0.37966758  0.87316507  1
  V  V79  1  0.87567709  0.51924882  0.87832355  1
  V  V80  1  0.61770695  -0.00549677  0.11960405  1
  V  V81  1  0.87343729  -0.00026970  0.37444557  1
  V  V82  1  0.87263266  0.74794137  0.62746400  1
  V  V83  1  0.12694329  0.49941904  0.63770712  1
  V  V84  1  0.61742560  0.11939307  -0.00236853  1
  Zn  Zn85  1  0.37304594  0.48269901  0.37362981  1
  Zn  Zn86  1  0.13344772  0.37924084  0.25876880  1
  Zn  Zn87  1  0.50541631  0.49707349  0.00065315  1
  Zn  Zn88  1  0.38086237  0.12563136  0.24858010  1
  Zn  Zn89  1  0.48726452  -0.00293224  0.49455810  1
  Zn  Zn90  1  0.38005092  0.24813544  0.12632133  1
  Zn  Zn91  1  0.50336848  0.25298334  0.74915692  1
  Zn  Zn92  1  0.12298518  0.12966474  -0.00385631  1
  Zn  Zn93  1  0.62144468  0.00177315  0.61846225  1
  Zn  Zn94  1  0.62278500  0.62139558  0.49770531  1
  Zn  Zn95  1  0.62035881  0.12538264  0.49585328  1
  Zn  Zn96  1  0.50437568  0.87749140  0.88256306  1
  Zn  Zn97  1  0.13231442  0.00355142  0.61853166  1
  Zn  Zn98  1  -0.00043502  0.49865534  0.50370681  1
  Zn  Zn99  1  0.36951280  0.49832504  0.87053189  1
  Zn  Zn100  1  0.12832863  0.63708221  0.00503111  1
  Zn  Zn101  1  0.87413397  0.87577909  0.49984782  1
  Zn  Zn102  1  0.25629729  0.37585762  0.13125681  1
  Zn  Zn103  1  0.49837181  0.12551231  0.12355282  1
  Zn  Zn104  1  0.74977637  0.74897604  0.49903628  1
  Zn  Zn105  1  0.12716203  0.87408034  0.24999623  1
  Zn  Zn106  1  0.00040662  0.00213785  -0.00016298  1
  Zn  Zn107  1  0.19138065  0.19246533  0.18975773  1
  Zn  Zn108  1  0.18962122  0.18697332  0.69093837  1
  Zn  Zn109  1  0.18644033  0.68301783  0.18966383  1
  Zn  Zn110  1  0.18819107  0.69087723  0.68854490  1
  Zn  Zn111  1  0.68064553  0.18804099  0.18622545  1
  Zn  Zn112  1  0.69073767  0.18810132  0.68506738  1
  Zn  Zn113  1  0.68861373  0.68427547  0.18672475  1
  Zn  Zn114  1  0.68611904  0.68719573  0.68484464  1
  Zn  Zn115  1  0.31306363  0.31069072  0.30803621  1
  Zn  Zn116  1  0.31124450  0.31314978  0.81198044  1
  Zn  Zn117  1  0.30729393  0.80288418  0.30461846  1
  Zn  Zn118  1  0.31271135  0.81029639  0.81338370  1
  Zn  Zn119  1  0.80557573  0.31417023  0.31043587  1
  Zn  Zn120  1  0.81553871  0.31486376  0.81229984  1
  Zn  Zn121  1  0.81054898  0.81226644  0.31380398  1
  Zn  Zn122  1  0.81499638  0.81059731  0.81185374  1
  Zn  Zn123  1  0.18855538  0.43235654  0.44443411  1
  Zn  Zn124  1  0.18810326  0.44550792  0.93561708  1
  Zn  Zn125  1  0.19078181  0.94033286  0.43654099  1
  Zn  Zn126  1  0.19342866  0.94050679  0.93842767  1
  Zn  Zn127  1  0.68777958  0.43802622  0.43972883  1
  Zn  Zn128  1  0.69759279  0.43848549  0.93509020  1
  Zn  Zn129  1  0.67805259  0.94215741  0.43578422  1
  Zn  Zn130  1  0.69072948  0.93368328  0.93727310  1
  Zn  Zn131  1  0.31422147  0.06437039  0.06273394  1
  Zn  Zn132  1  0.31926670  0.06026382  0.55904581  1
  Zn  Zn133  1  0.31257971  0.56016432  0.05390480  1
  Zn  Zn134  1  0.31136356  0.56397852  0.56553800  1
  Zn  Zn135  1  0.80850850  0.06488824  0.06302028  1
  Zn  Zn136  1  0.81586452  0.06329851  0.56053092  1
  Zn  Zn137  1  0.81661562  0.56245925  0.05697559  1
  Zn  Zn138  1  0.81169097  0.56334738  0.56114325  1
  Zn  Zn139  1  0.44395162  0.43097123  0.18757234  1
  Zn  Zn140  1  0.44220062  0.43703631  0.68789753  1
  Zn  Zn141  1  0.43850744  0.93328819  0.18778454  1
  Zn  Zn142  1  0.43870392  0.94146857  0.68817124  1
  Zn  Zn143  1  0.93739135  0.43622494  0.18985586  1
  Zn  Zn144  1  0.93788761  0.43724488  0.69175639  1
  Zn  Zn145  1  0.93929265  0.93762853  0.18788450  1
  Zn  Zn146  1  0.93874382  0.93878359  0.68534013  1
  Zn  Zn147  1  0.06579653  0.06051208  0.30765181  1
  Zn  Zn148  1  0.06347988  0.05980061  0.80901480  1
  Zn  Zn149  1  0.05970603  0.56027635  0.31382019  1
  Zn  Zn150  1  0.06095806  0.56134084  0.81298033  1
  Zn  Zn151  1  0.56059022  0.05912803  0.31074025  1
  Zn  Zn152  1  0.56114195  0.06164134  0.80984926  1
  Zn  Zn153  1  0.55973384  0.55792510  0.31363161  1
  Zn  Zn154  1  0.56418529  0.56311642  0.81098323  1
  Zn  Zn155  1  0.43777239  0.30539669  0.43804254  1
  Zn  Zn156  1  0.43609931  0.19346328  0.93568280  1
  Zn  Zn157  1  0.43496904  0.68528636  0.43784194  1
  Zn  Zn158  1  0.43958593  0.68770325  0.93597132  1
  Zn  Zn159  1  0.93249150  0.18698639  0.43884372  1
  Zn  Zn160  1  0.93514769  0.18822823  0.94042847  1
  Zn  Zn161  1  0.93639900  0.68730940  0.44307986  1
  Zn  Zn162  1  0.96661878  0.69855235  0.94888216  1
  Zn  Zn163  1  0.06231399  0.31521327  0.05844369  1
  Zn  Zn164  1  0.06154915  0.31218157  0.56414197  1
  Zn  Zn165  1  0.05990820  0.81326329  0.06403148  1
  Zn  Zn166  1  0.06392814  0.81262363  0.56092654  1
  Zn  Zn167  1  0.56254075  0.30932783  0.06488913  1
  Zn  Zn168  1  0.56895815  0.31193900  0.57010652  1
  Zn  Zn169  1  0.56185908  0.80509934  0.06381547  1
  Zn  Zn170  1  0.56011468  0.81206614  0.55952832  1
  O  O171  1  0.11688496  0.12010502  0.12532116  1
  O  O172  1  0.11040153  0.12505420  0.63418761  1
  O  O173  1  0.11577878  0.61533630  0.12554846  1
  O  O174  1  0.12114638  0.61824175  0.62112507  1
  O  O175  1  0.62583479  0.11341311  0.11344306  1
  O  O176  1  0.61360595  0.12527001  0.62762274  1
  O  O177  1  0.61685183  0.63254658  0.11418206  1
  O  O178  1  0.61714847  0.61484530  0.62396048  1
  O  O179  1  0.36601091  0.37181225  0.38528377  1
  O  O180  1  0.38564645  0.37708405  0.87623045  1
  O  O181  1  0.38687039  0.86203794  0.36425088  1
  O  O182  1  0.37476355  0.88094360  0.88418329  1
  O  O183  1  0.87793267  0.38151304  0.37935708  1
  O  O184  1  0.88964115  0.38487989  0.86638058  1
  O  O185  1  0.88245855  0.88110374  0.37559829  1
  O  O186  1  0.88073612  0.88256099  0.88011337  1
  O  O187  1  0.23914623  0.01100511  0.36329038  1
  O  O188  1  0.26083338  0.00795716  0.86707177  1
  O  O189  1  0.25093324  0.51094940  0.38654992  1
  O  O190  1  0.25429100  0.51941340  0.87584487  1
  O  O191  1  0.75357701  0.00536284  0.36489036  1
  O  O192  1  0.75642554  0.00387826  0.86775108  1
  O  O193  1  0.76200353  0.50647011  0.37832255  1
  O  O194  1  0.76639926  0.50237392  0.86554314  1
  O  O195  1  0.23400884  0.50128874  0.11820325  1
  O  O196  1  0.24102921  0.49033946  0.62116477  1
  O  O197  1  0.24299596  0.99359448  0.13030437  1
  O  O198  1  0.24986642  1.01221591  0.64130052  1
  O  O199  1  0.75679009  0.48568139  0.12050963  1
  O  O200  1  0.74572002  0.50640852  0.63807981  1
  O  O201  1  0.74190754  1.00298986  0.13708521  1
  O  O202  1  0.74830540  0.99343521  0.62897860  1
  O  O203  1  -0.00055602  0.36943522  0.26420210  1
  O  O204  1  0.01079641  0.37809783  0.76181519  1
  O  O205  1  0.00086198  0.87013020  0.26195926  1
  O  O206  1  0.00895844  0.87243712  0.75439873  1
  O  O207  1  0.51464349  0.36510013  0.24852726  1
  O  O208  1  0.51546099  0.37661683  0.75689047  1
  O  O209  1  0.50661962  0.86440084  0.25501833  1
  O  O210  1  0.51311350  0.87056890  0.74958575  1
  O  O211  1  0.50396279  0.13568194  0.24936451  1
  O  O212  1  0.48863721  0.12846111  0.74749254  1
  O  O213  1  0.49387312  0.62742759  0.24349603  1
  O  O214  1  0.49579797  0.62867904  0.73918377  1
  O  O215  1  0.99425219  0.12982366  0.23975598  1
  O  O216  1  0.98816858  0.11986309  0.74372325  1
  O  O217  1  0.98970959  0.62910015  0.24758751  1
  O  O218  1  1.00652075  0.63479330  0.73844408  1
  O  O219  1  0.36783604  0.26264101  -0.00208534  1
  O  O220  1  0.36628349  0.25215917  0.51675149  1
  O  O221  1  0.37730073  0.75304402  0.01186795  1
  O  O222  1  0.36573101  0.74248820  0.51046391  1
  O  O223  1  0.86103930  0.24478968  0.00948020  1
  O  O224  1  0.86751984  0.25708642  0.50630332  1
  O  O225  1  0.87240841  0.75549968  0.00769138  1
  O  O226  1  0.87252087  0.75505304  0.51179465  1
  O  O227  1  0.13174185  0.25213660  0.49333163  1
  O  O228  1  0.13767816  0.24975581  1.00104147  1
  O  O229  1  0.13047787  0.74036230  0.49669227  1
  O  O230  1  0.07321251  0.73453166  0.98884795  1
  O  O231  1  0.64105384  0.24818384  0.50688190  1
  O  O232  1  0.63509728  0.24154534  0.99456340  1
  O  O233  1  0.62497412  0.74617971  0.48673616  1
  O  O234  1  0.63553839  0.74633477  0.99254972  1
  O  O235  1  0.50068471  0.24467132  0.13245361  1
  O  O236  1  0.49273167  0.24683008  0.63007240  1
  O  O237  1  0.49079160  0.73788911  0.13018308  1
  O  O238  1  0.49536753  0.74144797  0.62858397  1
  O  O239  1  0.99212885  0.24730427  0.12710956  1
  O  O240  1  0.98692872  0.24160543  0.61870937  1
  O  O241  1  0.98698221  0.74331641  0.13624239  1
  O  O242  1  0.99345751  0.74625629  0.63085363  1
  O  O243  1  0.00341631  0.25493645  0.37317116  1
  O  O244  1  -0.00656676  0.26511853  0.87895352  1
  O  O245  1  0.00311397  0.75608496  0.37351066  1
  O  O246  1  -0.01508206  0.76397310  0.85503140  1
  O  O247  1  0.50549643  0.24817209  0.36393062  1
  O  O248  1  0.50901879  0.26182769  0.87143682  1
  O  O249  1  0.50616697  0.75116661  0.36839106  1
  O  O250  1  0.50887140  0.75471569  0.86764532  1
  O  O251  1  0.25085149  0.13699786  0.49621470  1
  O  O252  1  0.24985144  0.13341844  0.99124131  1
  O  O253  1  0.23978607  0.62968932  0.49694020  1
  O  O254  1  0.24619032  0.63033854  0.98995077  1
  O  O255  1  0.75071294  0.13039302  0.49011418  1
  O  O256  1  0.74191775  0.13149217  0.99232098  1
  O  O257  1  0.74683509  0.62627996  0.48665213  1
  O  O258  1  0.74576686  0.63764211  1.00431085  1
  O  O259  1  0.25696497  0.37029999  -0.00195469  1
  O  O260  1  0.24239657  0.36221182  0.51919959  1
  O  O261  1  0.25825771  0.87588593  0.01243147  1
  O  O262  1  0.24330859  0.85938085  0.49566041  1
  O  O263  1  0.74536105  0.36570858  0.01202134  1
  O  O264  1  0.76160691  0.36742834  0.49634097  1
  O  O265  1  0.76370316  0.86379307  -0.00306400  1
  O  O266  1  0.74670046  0.87627036  0.51001608  1
  O  O267  1  0.11625524  0.49901271  0.23456543  1
  O  O268  1  0.12155867  0.49358910  0.74020570  1
  O  O269  1  0.13177549  0.99706369  0.23675879  1
  O  O270  1  0.13461482  0.99186520  0.74772332  1
  O  O271  1  0.62026428  0.48423056  0.25173983  1
  O  O272  1  0.63836428  0.49796284  0.74632390  1
  O  O273  1  0.63116211  0.99003022  0.24290865  1
  O  O274  1  0.63171502  0.99067405  0.74882886  1
  O  O275  1  0.36271510  -0.00048786  0.24485792  1
  O  O276  1  0.36959038  0.00691223  0.75713644  1
  O  O277  1  0.38276327  0.50781624  0.25278540  1
  O  O278  1  0.38105567  0.51541097  0.74838310  1
  O  O279  1  0.86723732  0.00392330  0.25280122  1
  O  O280  1  0.86937900  0.00638716  0.75354974  1
  O  O281  1  0.87823337  0.51054388  0.25840457  1
  O  O282  1  0.86601970  0.50320623  0.75655443  1
  O  O283  1  0.11458271  0.36815832  0.37868217  1
  O  O284  1  0.11709646  0.38233438  0.86356353  1
  O  O285  1  0.11740914  0.86759093  0.37284094  1
  O  O286  1  0.11494196  0.88242328  0.87044548  1
  O  O287  1  0.63637134  0.37361389  0.36116187  1
  O  O288  1  0.62331745  0.37190723  0.87052099  1
  O  O289  1  0.61962624  0.86578715  0.36316323  1
  O  O290  1  0.62579422  0.86567090  0.86729740  1
  O  O291  1  0.38047101  0.12631817  0.12845481  1
  O  O292  1  0.38057335  0.13452835  0.63495374  1
  O  O293  1  0.37768390  0.62619870  0.12850029  1
  O  O294  1  0.38065550  0.63022797  0.63492327  1
  O  O295  1  0.88014213  0.13360630  0.12980483  1
  O  O296  1  0.88251656  0.13025245  0.63264765  1
  O  O297  1  0.87682177  0.62908260  0.13514502  1
  O  O298  1  0.88533871  0.63323651  0.61870660  1
  O  O299  1  0.25525194  0.25113062  0.11285756  1
  O  O300  1  0.25496770  0.25339473  0.62190111  1
  O  O301  1  0.25552289  0.75626386  0.12967850  1
  O  O302  1  0.25935898  0.74579919  0.61589541  1
  O  O303  1  0.75442067  0.25385180  0.11842252  1
  O  O304  1  0.76543621  0.24318451  0.61496286  1
  O  O305  1  0.76269359  0.74755323  0.11967534  1
  O  O306  1  0.75528089  0.75644535  0.62249488  1
  O  O307  1  0.24092799  0.23971003  0.38417481  1
  O  O308  1  0.25619383  0.23974389  0.88337735  1
  O  O309  1  0.24410718  0.73767430  0.38128731  1
  O  O310  1  0.25572599  0.72774881  0.86627645  1
  O  O311  1  0.75992231  0.23829460  0.38449318  1
  O  O312  1  0.74810600  0.24709914  0.88269912  1
  O  O313  1  0.74093812  0.74294190  0.37639953  1
  O  O314  1  0.74431517  0.75276615  0.88268713  1
  O  O315  1  0.00096067  0.12468164  0.01152053  1
  O  O316  1  -0.00628879  0.11755622  0.50903356  1
  O  O317  1  -0.01326010  0.60502202  0.01527198  1
  O  O318  1  0.01167875  0.62607913  0.51096226  1
  O  O319  1  0.51480451  0.12890262  -0.00569242  1
  O  O320  1  0.49907342  0.13236381  0.51384116  1
  O  O321  1  0.51023379  0.62492707  0.00633316  1
  O  O322  1  0.50016192  0.61865218  0.51251671  1
  O  O323  1  0.50231751  0.38114864  0.50465274  1
  O  O324  1  0.49611588  0.37525857  0.99144992  1
  O  O325  1  0.50099207  0.87027382  0.48058513  1
  O  O326  1  0.48616118  0.86928315  1.00235335  1
  O  O327  1  0.98859655  0.37347277  0.49061259  1
  O  O328  1  1.00393656  0.38382717  0.98500287  1
  O  O329  1  0.99923081  0.88042657  0.48882213  1
  O  O330  1  0.98801409  0.88016115  0.99107185  1
  O  O331  1  0.49681471  0.50455994  0.39581125  1
  O  O332  1  0.50246786  0.48894054  0.87592967  1
  O  O333  1  0.49919740  0.98060146  0.36719594  1
  O  O334  1  0.48635741  0.99637175  0.87021155  1
  O  O335  1  0.98914815  0.49229107  0.37934032  1
  O  O336  1  0.99135359  0.49612394  0.88015937  1
  O  O337  1  0.99660478  0.99420838  0.37773099  1
  O  O338  1  0.99342324  0.99308284  0.87627642  1
  O  O339  1  0.00679811  0.00968754  0.12522758  1
  O  O340  1  -0.00033427  0.00895894  0.61511873  1
  O  O341  1  0.00279355  0.49971939  0.11839933  1
  O  O342  1  0.00473001  0.50875732  0.62568348  1
  O  O343  1  0.51438325  0.00053251  0.12974379  1
  O  O344  1  0.50034471  0.01301058  0.62647734  1
  O  O345  1  0.49811773  0.51224137  0.12136104  1
  O  O346  1  0.50838288  0.50432236  0.61730298  1
  O  O347  1  0.24405379  0.36864267  0.24335178  1
  O  O348  1  0.23542463  0.37201441  0.74374343  1
  O  O349  1  0.24809320  0.88064794  0.23857201  1
  O  O350  1  0.24174608  0.88388704  0.75742841  1
  O  O351  1  0.73735814  0.36872374  0.23532782  1
  O  O352  1  0.74261183  0.38764325  0.75608034  1
  O  O353  1  0.74073703  0.88280793  0.25387304  1
  O  O354  1  0.74120951  0.87701021  0.73955996  1
  O  O355  1  0.25109177  0.11778004  0.25871896  1
  O  O356  1  0.26082556  0.12132739  0.75824777  1
  O  O357  1  0.25804684  0.62490600  0.26045412  1
  O  O358  1  0.26239548  0.62433281  0.75007590  1
  O  O359  1  0.75289439  0.11922990  0.25421175  1
  O  O360  1  0.75984470  0.12038022  0.75544629  1
  O  O361  1  0.75713166  0.62808913  0.26220571  1
  O  O362  1  0.74855853  0.61586610  0.75178586  1
  O  O363  1  0.36378353  0.12697717  0.37095210  1
  O  O364  1  0.37063874  0.11920170  0.87019356  1
  O  O365  1  0.36682748  0.62125211  0.36609430  1
  O  O366  1  0.37777439  0.62399464  0.86024796  1
  O  O367  1  0.86826555  0.11729027  0.36673864  1
  O  O368  1  0.87240761  0.11892737  0.86879881  1
  O  O369  1  0.86997807  0.61887336  0.37108491  1
  O  O370  1  0.88748438  0.61662986  0.87992356  1
  O  O371  1  0.12228195  0.38953955  0.12446610  1
  O  O372  1  0.12631200  0.38023495  0.63704539  1
  O  O373  1  0.13013952  0.88092753  0.12465606  1
  O  O374  1  0.12178498  0.88030078  0.63545477  1
  O  O375  1  0.63496139  0.37800102  0.12715479  1
  O  O376  1  0.62591054  0.38858210  0.63555330  1
  O  O377  1  0.62128578  0.87652482  0.13561638  1
  O  O378  1  0.63104903  0.87426841  0.63113920  1
  O  O379  1  0.11512937  0.25084493  0.25972859  1
  O  O380  1  0.12372202  0.26207797  0.75185358  1
  O  O381  1  0.11646693  0.74879144  0.25834890  1
  O  O382  1  0.11530883  0.75980998  0.74546166  1
  O  O383  1  0.61508006  0.25909681  0.24590964  1
  O  O384  1  0.63053223  0.25992196  0.75619239  1
  O  O385  1  0.62071965  0.75351202  0.25649407  1
  O  O386  1  0.62196756  0.75516207  0.75557791  1
  O  O387  1  0.39376960  0.24948398  0.24832569  1
  O  O388  1  0.37536483  0.24255136  0.74312764  1
  O  O389  1  0.37812820  0.73635080  0.23734710  1
  O  O390  1  0.38144746  0.74024679  0.74335632  1
  O  O391  1  0.87949787  0.24525046  0.24344117  1
  O  O392  1  0.86974804  0.24104462  0.74192221  1
  O  O393  1  0.87668970  0.74173928  0.24647100  1
  O  O394  1  0.88183293  0.75608833  0.73464841  1
  O  O395  1  0.38983888  0.50061986  0.50680069  1
  O  O396  1  0.37953599  0.48805450  0.99368645  1
  O  O397  1  0.37580876  0.99676340  0.49355348  1
  O  O398  1  0.36966889  0.98934420  0.99190386  1
  O  O399  1  0.87674551  0.49191968  0.49484109  1
  O  O400  1  0.87827936  0.49680552  0.98423547  1
  O  O401  1  0.88552865  0.99745781  0.49139365  1
  O  O402  1  0.87300863  0.99367163  0.99587741  1
  O  O403  1  0.12513151  0.00353225  0.01182846  1
  O  O404  1  0.11180348  -0.00297247  0.50081706  1
  O  O405  1  0.11448603  0.50597906  0.00941681  1
  O  O406  1  0.12101049  0.50583289  0.51148359  1
  O  O407  1  0.63330012  0.00449477  0.00758493  1
  O  O408  1  0.60939048  0.00575945  0.50015258  1
  O  O409  1  0.63019757  0.51534991  -0.00862486  1
  O  O410  1  0.61791110  0.49950159  0.50915656  1
  O  O411  1  0.37602603  0.37438234  0.11329330  1
  O  O412  1  0.36370183  0.36811981  0.63866491  1
  O  O413  1  0.36825075  0.86506526  0.12055798  1
  O  O414  1  0.37982578  0.86032958  0.63380463  1
  O  O415  1  0.86511523  0.36366760  0.13262953  1
  O  O416  1  0.88166521  0.36768482  0.61740609  1
  O  O417  1  0.88159422  0.86666851  0.11666579  1
  O  O418  1  0.86494428  0.87033019  0.62322665  1
  O  O419  1  0.12385377  0.13478835  0.37403956  1
  O  O420  1  0.13841040  0.11863710  0.87474640  1
  O  O421  1  0.12884314  0.62568145  0.38375404  1
  O  O422  1  0.13423884  0.62309678  0.87573022  1
  O  O423  1  0.63738643  0.12081534  0.37344958  1
  O  O424  1  0.63155557  0.12853681  0.87738497  1
  O  O425  1  0.63121470  0.63066036  0.37282111  1
  O  O426  1  0.62061366  0.63825150  0.88131394  1
