# generated using pymatgen
data_V85Zn86O256
_symmetry_space_group_name_H-M   'P 1'
_cell_length_a   16.92225377
_cell_length_b   16.92377761
_cell_length_c   16.92282976
_cell_angle_alpha   90.03196917
_cell_angle_beta   90.06231635
_cell_angle_gamma   90.00166333
_symmetry_Int_Tables_number   1
_chemical_formula_structural   V85Zn86O256
_chemical_formula_sum   'V85 Zn86 O256'
_cell_volume   4846.49952112
_cell_formula_units_Z   1
loop_
 _symmetry_equiv_pos_site_id
 _symmetry_equiv_pos_as_xyz
  1  'x, y, z'
loop_
 _atom_site_type_symbol
 _atom_site_label
 _atom_site_symmetry_multiplicity
 _atom_site_fract_x
 _atom_site_fract_y
 _atom_site_fract_z
 _atom_site_occupancy
  V  V0  1  0.62421353  0.24665675  0.87481887  1
  V  V1  1  0.62542981  0.74383636  0.87543521  1
  V  V2  1  0.86694949  0.25029265  0.62247411  1
  V  V3  1  0.00026871  0.37796398  0.38105604  1
  V  V4  1  0.00096548  0.12273877  0.11305582  1
  V  V5  1  0.75233044  0.87289363  0.62415799  1
  V  V6  1  0.00601720  0.36768439  0.87757494  1
  V  V7  1  0.24994695  0.37460522  0.12419470  1
  V  V8  1  0.37389189  0.87418403  0.00043178  1
  V  V9  1  -0.00828277  0.00476070  0.49386111  1
  V  V10  1  -0.00230613  0.24862804  0.24865940  1
  V  V11  1  0.17953637  0.80242343  0.43076801  1
  V  V12  1  0.37273286  0.74627085  0.12613099  1
  V  V13  1  0.37480434  0.00189107  0.37485347  1
  V  V14  1  0.74803799  0.74707283  0.00445634  1
  V  V15  1  0.00200966  0.60988900  0.62109721  1
  V  V16  1  0.87737516  0.50346475  0.37013126  1
  V  V17  1  0.75550764  0.62454400  0.36662566  1
  V  V18  1  0.49988172  0.87478669  0.37574514  1
  V  V19  1  0.37396378  0.00232459  0.87581890  1
  V  V20  1  0.62645831  0.74997495  0.37311270  1
  V  V21  1  0.63307942  0.25398062  0.37839135  1
  V  V22  1  0.24936820  0.62212328  0.87303234  1
  V  V23  1  0.74737471  0.49255997  0.23723234  1
  V  V24  1  0.12435177  0.37491035  0.24946365  1
  V  V25  1  0.63307555  0.13103582  0.50170748  1
  V  V26  1  0.37507887  0.39332384  0.49687876  1
  V  V27  1  0.62709912  0.88947118  0.24670973  1
  V  V28  1  0.87724140  0.74612931  0.61925387  1
  V  V29  1  0.37550933  0.12425392  0.24449919  1
  V  V30  1  0.62709904  0.12099820  0.01163728  1
  V  V31  1  0.62390832  0.50354735  0.62712508  1
  V  V32  1  0.12184475  0.00190484  0.11003067  1
  V  V33  1  -0.00031724  0.74285217  0.74885260  1
  V  V34  1  0.36075348  0.75706936  0.62098868  1
  V  V35  1  0.50297379  0.74872005  0.24980143  1
  V  V36  1  0.75367952  0.11233229  0.37231921  1
  V  V37  1  0.62447723  0.61999294  0.49589763  1
  V  V38  1  0.75265634  -0.00242221  0.75266793  1
  V  V39  1  0.50102107  0.61847801  0.12226599  1
  V  V40  1  0.62428035  0.87518491  0.75077763  1
  V  V41  1  0.50200236  0.00465319  0.01427501  1
  V  V42  1  0.49857956  -0.00271678  0.50185056  1
  V  V43  1  0.49791249  0.62816669  0.62075070  1
  V  V44  1  0.62904737  0.38059547  0.75182278  1
  V  V45  1  -0.01184807  0.87745543  0.37267231  1
  V  V46  1  0.12352672  0.74824195  0.87433077  1
  V  V47  1  0.74994493  0.12884072  0.87804103  1
  V  V48  1  0.00006942  0.12599005  0.62491990  1
  V  V49  1  0.37432759  0.13043176  0.75212690  1
  V  V50  1  0.50100131  0.87712379  0.87585499  1
  V  V51  1  0.86149355  0.25213233  0.12478884  1
  V  V52  1  0.25179424  0.13594413  0.37664322  1
  V  V53  1  0.87682485  0.87784385  -0.00101972  1
  V  V54  1  0.74699555  0.88878047  0.12783569  1
  V  V55  1  0.12642449  0.36927470  0.74700620  1
  V  V56  1  0.50264724  0.38680460  0.37982776  1
  V  V57  1  0.12556753  0.87353720  0.24730645  1
  V  V58  1  0.12729367  0.13590107  0.50124876  1
  V  V59  1  0.62509206  0.00017585  0.62590635  1
  V  V60  1  0.86230323  0.37100908  0.00242489  1
  V  V61  1  0.87450850  0.12620482  0.75135093  1
  V  V62  1  -0.00360144  0.87891071  0.87663334  1
  V  V63  1  -0.00336167  0.74185350  0.25385561  1
  V  V64  1  0.50179147  0.24716042  0.25231489  1
  V  V65  1  0.87383621  0.11081108  0.25201512  1
  V  V66  1  0.25168876  0.62076759  0.38118338  1
  V  V67  1  0.87260137  0.37679781  0.49848628  1
  V  V68  1  0.38274801  0.50084066  0.87491691  1
  V  V69  1  0.00066418  0.49706283  0.00108512  1
  V  V70  1  0.12363026  0.62422279  0.00272091  1
  V  V71  1  0.36944267  0.25177018  0.61235570  1
  V  V72  1  0.37914459  0.37803846  -0.00144119  1
  V  V73  1  0.25096281  -0.00418060  0.74280974  1
  V  V74  1  0.23469090  0.12815875  0.87671271  1
  V  V75  1  0.24550655  0.49825879  0.74128175  1
  V  V76  1  0.37736410  0.24574576  0.12175223  1
  V  V77  1  0.23819745  0.24688980  -0.00365100  1
  V  V78  1  0.49991547  0.12717648  0.62530582  1
  V  V79  1  0.25708163  0.50027016  0.25377165  1
  V  V80  1  0.74864726  0.38073760  0.62211619  1
  V  V81  1  0.12718965  0.87321233  0.74172267  1
  V  V82  1  0.62354642  0.61930998  0.00086880  1
  V  V83  1  0.86671815  0.50570798  0.87191258  1
  V  V84  1  0.12314042  0.60065668  0.50051654  1
  Zn  Zn85  1  0.12725946  0.25222208  0.37754708  1
  Zn  Zn86  1  0.56184373  0.45444120  0.06256119  1
  Zn  Zn87  1  0.35679111  0.87429581  0.50101383  1
  Zn  Zn88  1  0.75308280  0.74938347  0.49537348  1
  Zn  Zn89  1  0.00478963  0.24559504  0.75552046  1
  Zn  Zn90  1  0.87159100  0.88094398  0.49669229  1
  Zn  Zn91  1  0.24672831  0.00186702  0.24712482  1
  Zn  Zn92  1  0.87205205  0.74523675  0.13034946  1
  Zn  Zn93  1  0.37891622  0.62129149  0.26153010  1
  Zn  Zn94  1  0.87832544  0.00140431  0.87962682  1
  Zn  Zn95  1  0.23945683  0.37490315  0.61226612  1
  Zn  Zn96  1  0.85403695  0.61017182  0.74310952  1
  Zn  Zn97  1  -0.00364019  0.62264507  0.13114673  1
  Zn  Zn98  1  0.50333623  0.37736108  0.87730243  1
  Zn  Zn99  1  0.37507845  0.62549233  0.74689814  1
  Zn  Zn100  1  0.24882545  0.87554852  0.12515750  1
  Zn  Zn101  1  0.62861803  0.37396475  0.23094231  1
  Zn  Zn102  1  0.12716471  -0.00128899  0.62266971  1
  Zn  Zn103  1  0.24864944  0.74925067  0.00108034  1
  Zn  Zn104  1  0.49791821  0.25628100  0.74983393  1
  Zn  Zn105  1  0.49643522  0.75095051  0.74735477  1
  Zn  Zn106  1  0.12562660  0.50175245  0.12631380  1
  Zn  Zn107  1  0.18714719  0.18641687  0.18535518  1
  Zn  Zn108  1  0.18980642  0.19072125  0.68780646  1
  Zn  Zn109  1  0.18544081  0.68825312  0.19065935  1
  Zn  Zn110  1  0.18378114  0.68170057  0.68319659  1
  Zn  Zn111  1  0.68847668  0.18495059  0.19415789  1
  Zn  Zn112  1  0.68913527  0.19082626  0.69063199  1
  Zn  Zn113  1  0.68729621  0.68585182  0.18559325  1
  Zn  Zn114  1  0.68753933  0.68732144  0.68820428  1
  Zn  Zn115  1  0.31635809  0.31489785  0.31536442  1
  Zn  Zn116  1  0.31036004  0.31205520  0.81310474  1
  Zn  Zn117  1  0.31670000  0.81473896  0.30774719  1
  Zn  Zn118  1  0.31289926  0.80922504  0.80975138  1
  Zn  Zn119  1  0.81180276  0.31126650  0.31011237  1
  Zn  Zn120  1  0.81279122  0.31351633  0.81238663  1
  Zn  Zn121  1  0.81238097  0.81399575  0.30847909  1
  Zn  Zn122  1  0.80103809  0.77957626  0.80261041  1
  Zn  Zn123  1  0.19172164  0.43424905  0.43452071  1
  Zn  Zn124  1  0.18936197  0.43606021  0.93406268  1
  Zn  Zn125  1  0.17896711  0.96586042  0.43176721  1
  Zn  Zn126  1  0.18839585  0.93590096  0.93083356  1
  Zn  Zn127  1  0.68988998  0.43995906  0.43717571  1
  Zn  Zn128  1  0.69149192  0.43725327  0.93366763  1
  Zn  Zn129  1  0.68502207  0.93729019  0.43907467  1
  Zn  Zn130  1  0.68930327  0.93924766  0.94031758  1
  Zn  Zn131  1  0.30687345  0.06200061  0.06118633  1
  Zn  Zn132  1  0.31206280  0.06505143  0.56180333  1
  Zn  Zn133  1  0.31218699  0.56050887  0.06286274  1
  Zn  Zn134  1  0.31054768  0.56630881  0.56329069  1
  Zn  Zn135  1  0.81480311  0.06382485  0.06227068  1
  Zn  Zn136  1  0.81078922  0.06358536  0.56257164  1
  Zn  Zn137  1  0.81513682  0.56648776  0.05956147  1
  Zn  Zn138  1  0.81127566  0.56052438  0.55581724  1
  Zn  Zn139  1  0.43578651  0.43211063  0.19393414  1
  Zn  Zn140  1  0.44037754  0.43994026  0.68635189  1
  Zn  Zn141  1  0.43725918  0.93544277  0.18879088  1
  Zn  Zn142  1  0.43391675  0.93549409  0.68662545  1
  Zn  Zn143  1  0.93411788  0.43883502  0.18691354  1
  Zn  Zn144  1  0.93840800  0.43358939  0.69154696  1
  Zn  Zn145  1  0.94014754  0.93377368  0.18184356  1
  Zn  Zn146  1  0.93839775  0.93711592  0.68850832  1
  Zn  Zn147  1  0.06202604  0.06256659  0.30880727  1
  Zn  Zn148  1  0.06161018  0.05830684  0.81068815  1
  Zn  Zn149  1  0.06895423  0.55955929  0.31837960  1
  Zn  Zn150  1  0.06019980  0.55647447  0.81236261  1
  Zn  Zn151  1  0.56207836  0.06694262  0.31530820  1
  Zn  Zn152  1  0.56073091  0.06154739  0.81465558  1
  Zn  Zn153  1  0.56853980  0.56178799  0.30572243  1
  Zn  Zn154  1  0.56327544  0.56352945  0.80739792  1
  Zn  Zn155  1  0.44393493  0.18761746  0.43494195  1
  Zn  Zn156  1  0.43974491  0.18809283  0.93734980  1
  Zn  Zn157  1  0.43570288  0.68943991  0.44302761  1
  Zn  Zn158  1  0.43853134  0.68718645  0.93811442  1
  Zn  Zn159  1  0.93360330  0.19222611  0.43615712  1
  Zn  Zn160  1  0.93477315  0.19090800  0.93863583  1
  Zn  Zn161  1  0.94511387  0.68697014  0.43526220  1
  Zn  Zn162  1  0.93496474  0.68801264  0.94187143  1
  Zn  Zn163  1  0.05855127  0.31215398  0.06569189  1
  Zn  Zn164  1  0.05706373  0.31381865  0.56607515  1
  Zn  Zn165  1  0.06047728  0.81069151  0.06443886  1
  Zn  Zn166  1  0.05384551  0.81438879  0.56444337  1
  Zn  Zn167  1  0.56249240  0.29150910  0.06199903  1
  Zn  Zn168  1  0.55887854  0.31421413  0.56221171  1
  Zn  Zn169  1  0.56280705  0.81167241  0.06469440  1
  Zn  Zn170  1  0.56268022  0.80860434  0.56122098  1
  O  O171  1  0.11712888  0.11103945  0.12967897  1
  O  O172  1  0.11700437  0.12747348  0.62046575  1
  O  O173  1  0.12053272  0.62297697  0.11632075  1
  O  O174  1  0.11717656  0.62373399  0.61019434  1
  O  O175  1  0.62876642  0.13136491  0.11038613  1
  O  O176  1  0.62202286  0.12197262  0.61994014  1
  O  O177  1  0.61394613  0.62699034  0.11539295  1
  O  O178  1  0.62255835  0.62234830  0.61826099  1
  O  O179  1  0.38782626  0.37125598  0.38806671  1
  O  O180  1  0.37626624  0.38208143  0.88157554  1
  O  O181  1  0.38162096  0.88196491  0.37862709  1
  O  O182  1  0.38150794  0.87834606  0.88149070  1
  O  O183  1  0.88013270  0.37758015  0.38124750  1
  O  O184  1  0.88061328  0.37951316  0.88518243  1
  O  O185  1  0.88408147  0.87591004  0.37654224  1
  O  O186  1  0.88256188  0.87178727  0.88046945  1
  O  O187  1  0.25882150  0.01462259  0.36871258  1
  O  O188  1  0.25577488  0.00812366  0.86637670  1
  O  O189  1  0.24729045  0.50834818  0.36668593  1
  O  O190  1  0.25722205  0.50872998  0.86743528  1
  O  O191  1  0.74659322  0.01269215  0.37967606  1
  O  O192  1  0.75062116  0.00903426  0.86821506  1
  O  O193  1  0.75788345  0.50663597  0.36849004  1
  O  O194  1  0.76754440  0.50029644  0.87670951  1
  O  O195  1  0.24772173  0.49241883  0.13260736  1
  O  O196  1  0.25650758  0.49465527  0.63777003  1
  O  O197  1  0.23631038  0.99840265  0.12668663  1
  O  O198  1  0.24932387  1.00456103  0.63842967  1
  O  O199  1  0.75792951  0.50388087  0.13924016  1
  O  O200  1  0.73920486  0.49439407  0.62302464  1
  O  O201  1  0.75108324  0.98745366  0.12425579  1
  O  O202  1  0.74552696  0.99281422  0.63111593  1
  O  O203  1  0.00678807  0.36904384  0.25382773  1
  O  O204  1  0.01097308  0.37314545  0.75785708  1
  O  O205  1  0.00606008  0.87092752  0.25760765  1
  O  O206  1  0.00812828  0.86741126  0.75565937  1
  O  O207  1  0.49820519  0.36352699  0.26352295  1
  O  O208  1  0.51538927  0.37595443  0.75024430  1
  O  O209  1  0.50654404  0.86831515  0.25502167  1
  O  O210  1  0.50517130  0.87773580  0.75968921  1
  O  O211  1  0.49107081  0.13800382  0.25781255  1
  O  O212  1  0.48746744  0.12282902  0.74415099  1
  O  O213  1  0.49881202  0.63150507  0.24429052  1
  O  O214  1  0.49852220  0.62764873  0.73489544  1
  O  O215  1  0.99395766  0.13345627  0.24516123  1
  O  O216  1  0.99360630  0.12481173  0.74294717  1
  O  O217  1  1.01192672  0.63922189  0.25440675  1
  O  O218  1  1.00227605  0.63043573  0.74092673  1
  O  O219  1  0.37141440  0.25483420  0.00734740  1
  O  O220  1  0.38075051  0.24888557  0.51080704  1
  O  O221  1  0.37428098  0.75792273  0.00668803  1
  O  O222  1  0.37446367  0.75680475  0.51426356  1
  O  O223  1  0.87598212  0.26294530  0.00778127  1
  O  O224  1  0.87745143  0.26386689  0.50870109  1
  O  O225  1  0.86282849  0.75979132  -0.00269438  1
  O  O226  1  0.87861677  0.75298114  0.50967017  1
  O  O227  1  0.11846606  0.24026287  0.49884599  1
  O  O228  1  0.13927811  0.25439961  1.00720810  1
  O  O229  1  0.12415703  0.75034052  0.49604280  1
  O  O230  1  0.12631369  0.74166919  0.99399175  1
  O  O231  1  0.61772429  0.24047111  0.49347151  1
  O  O232  1  0.62227640  0.23291839  0.98502062  1
  O  O233  1  0.62780728  0.73993516  0.49101886  1
  O  O234  1  0.62738151  0.74295416  0.99525782  1
  O  O235  1  0.48453597  0.24691203  0.13512576  1
  O  O236  1  0.49091388  0.24362689  0.62818973  1
  O  O237  1  0.49300207  0.74312173  0.13117186  1
  O  O238  1  0.49375408  0.74336499  0.62581571  1
  O  O239  1  0.99484755  0.24282367  0.13481058  1
  O  O240  1  0.98866956  0.23966032  0.62799646  1
  O  O241  1  0.99930273  0.75203677  0.14240664  1
  O  O242  1  0.99446006  0.73958023  0.62938723  1
  O  O243  1  0.00022555  0.25814260  0.36252300  1
  O  O244  1  -0.00436666  0.26307255  0.87422151  1
  O  O245  1  0.00161144  0.76101124  0.36449145  1
  O  O246  1  0.00337960  0.75359662  0.86531950  1
  O  O247  1  0.51096595  0.25593125  0.36980636  1
  O  O248  1  0.50892998  0.25333235  0.87038494  1
  O  O249  1  0.50441942  0.75495477  0.37023462  1
  O  O250  1  0.50482315  0.76328323  0.87571648  1
  O  O251  1  0.23951607  0.11986833  0.49126470  1
  O  O252  1  0.25455857  0.13349587  0.98824171  1
  O  O253  1  0.23456373  0.61960667  0.49669917  1
  O  O254  1  0.23867205  0.62266139  0.99232274  1
  O  O255  1  0.73866568  0.12404768  0.49571325  1
  O  O256  1  0.73797404  0.11719617  0.99161742  1
  O  O257  1  0.74348585  0.62720713  0.48655374  1
  O  O258  1  0.73822466  0.63524458  1.00248371  1
  O  O259  1  0.25960179  0.36751801  0.00254312  1
  O  O260  1  0.26855770  0.37663339  0.49783379  1
  O  O261  1  0.26340626  0.87372066  -0.00234594  1
  O  O262  1  0.23529415  0.87181687  0.48306524  1
  O  O263  1  0.76376624  0.37584781  -0.00084506  1
  O  O264  1  0.75530636  0.37629961  0.51253450  1
  O  O265  1  0.75169865  0.87134140  0.01267609  1
  O  O266  1  0.75048556  0.87430652  0.51137770  1
  O  O267  1  0.13226200  0.48778360  0.24919410  1
  O  O268  1  0.13457849  0.48726878  0.75506000  1
  O  O269  1  0.12405840  0.98771930  0.24398976  1
  O  O270  1  0.13284278  0.99072158  0.74762429  1
  O  O271  1  0.64153311  0.49416068  0.25045076  1
  O  O272  1  0.62879090  0.49367603  0.74280587  1
  O  O273  1  0.61728965  0.98861835  0.25379005  1
  O  O274  1  0.63057148  0.99503879  0.74449792  1
  O  O275  1  0.37576742  0.00903876  0.25454693  1
  O  O276  1  0.36881339  0.00661026  0.75455992  1
  O  O277  1  0.36171080  0.50195187  0.24897477  1
  O  O278  1  0.36627361  0.49987404  0.75723263  1
  O  O279  1  0.88320287  0.01194024  0.24558102  1
  O  O280  1  0.86920220  0.00736685  0.75188872  1
  O  O281  1  0.86503415  0.49430918  0.26172291  1
  O  O282  1  0.87790153  0.49763027  0.76570027  1
  O  O283  1  0.11767626  0.37234090  0.36890632  1
  O  O284  1  0.11719236  0.37729657  0.86500690  1
  O  O285  1  0.12183925  0.87222044  0.37185678  1
  O  O286  1  0.11816977  0.86610941  0.86702193  1
  O  O287  1  0.61529951  0.36943406  0.38000240  1
  O  O288  1  0.62708874  0.36726275  0.86865289  1
  O  O289  1  0.62061838  0.86972249  0.36836086  1
  O  O290  1  0.61632724  0.87234778  0.87299119  1
  O  O291  1  0.36807015  0.13012478  0.13629098  1
  O  O292  1  0.37720584  0.13529465  0.63019808  1
  O  O293  1  0.37964188  0.63549548  0.12348538  1
  O  O294  1  0.38234984  0.63470805  0.62287320  1
  O  O295  1  0.88089873  0.13152802  0.13081847  1
  O  O296  1  0.87853998  0.13280566  0.62895177  1
  O  O297  1  0.88513504  0.63359496  0.11352532  1
  O  O298  1  0.87895031  0.63016869  0.62495195  1
  O  O299  1  0.25947307  0.25384007  0.11971334  1
  O  O300  1  0.26543990  0.25604552  0.62791914  1
  O  O301  1  0.25879703  0.75167547  0.12323151  1
  O  O302  1  0.26193735  0.74619820  0.62828483  1
  O  O303  1  0.76243162  0.24757189  0.13134856  1
  O  O304  1  0.76094268  0.25677194  0.62691982  1
  O  O305  1  0.74876281  0.75754345  0.11616221  1
  O  O306  1  0.75903155  0.75738120  0.61873293  1
  O  O307  1  0.24933622  0.24016126  0.37270676  1
  O  O308  1  0.25516504  0.23992306  0.88404659  1
  O  O309  1  0.24333887  0.74609323  0.37274026  1
  O  O310  1  0.24566409  0.73599263  0.87488520  1
  O  O311  1  0.73636414  0.24505938  0.37056843  1
  O  O312  1  0.74382239  0.23628562  0.86979769  1
  O  O313  1  0.74608642  0.74313778  0.37309144  1
  O  O314  1  0.73282370  0.76700736  0.89448390  1
  O  O315  1  -0.00526370  0.12861466  0.01352609  1
  O  O316  1  0.00265566  0.12366669  0.50499356  1
  O  O317  1  0.01263013  0.61659487  -0.00503340  1
  O  O318  1  0.01437461  0.62471377  0.50532702  1
  O  O319  1  0.51317278  0.11630930  -0.00514716  1
  O  O320  1  0.50811957  0.11423838  0.50435648  1
  O  O321  1  0.50779120  0.63013413  0.01038074  1
  O  O322  1  0.50926552  0.62863493  0.51012344  1
  O  O323  1  0.49179931  0.37439419  0.48815035  1
  O  O324  1  0.48843520  0.37443471  0.99934117  1
  O  O325  1  0.50594975  0.88787187  0.49520253  1
  O  O326  1  0.49168969  0.88074427  0.99578125  1
  O  O327  1  0.99281487  0.37102566  0.48797630  1
  O  O328  1  0.99693671  0.38062615  0.99436990  1
  O  O329  1  0.99917352  0.88596960  0.49134753  1
  O  O330  1  0.98957384  0.86404341  0.98993929  1
  O  O331  1  0.50492901  0.48521190  0.36713657  1
  O  O332  1  0.48645181  0.50061892  0.86967968  1
  O  O333  1  0.49422214  0.99772131  0.38362955  1
  O  O334  1  0.49392019  0.99058814  0.88215114  1
  O  O335  1  0.99157105  0.48825211  0.36629670  1
  O  O336  1  0.99454860  0.48840264  0.88517860  1
  O  O337  1  1.00711949  0.99152181  0.38283406  1
  O  O338  1  0.99872451  0.98338288  0.87082529  1
  O  O339  1  0.01191024  0.00712766  0.12547313  1
  O  O340  1  -0.00027718  0.01332231  0.61994043  1
  O  O341  1  0.00208813  0.49893665  0.11259118  1
  O  O342  1  -0.00840597  0.51097732  0.62695799  1
  O  O343  1  0.49617022  -0.00222317  0.11334398  1
  O  O344  1  0.50335454  0.00549524  0.61951522  1
  O  O345  1  0.48898263  0.51343180  0.12991228  1
  O  O346  1  0.51462430  0.50914651  0.62687834  1
  O  O347  1  0.24436315  0.37965715  0.24828098  1
  O  O348  1  0.23945106  0.37976409  0.75046057  1
  O  O349  1  0.24100078  0.87804019  0.24797224  1
  O  O350  1  0.24044390  0.88424374  0.75913423  1
  O  O351  1  0.74775460  0.38728853  0.25212133  1
  O  O352  1  0.73907510  0.36916049  0.73755350  1
  O  O353  1  0.74269824  0.87196516  0.23672743  1
  O  O354  1  0.74563056  0.87450001  0.73966167  1
  O  O355  1  0.25865327  0.12570287  0.25690248  1
  O  O356  1  0.25910536  0.12054671  0.75545689  1
  O  O357  1  0.24670533  0.61661246  0.26026778  1
  O  O358  1  0.24897308  0.61600433  0.75594940  1
  O  O359  1  0.75993545  0.12464678  0.25962518  1
  O  O360  1  0.75607270  0.11919739  0.75646469  1
  O  O361  1  0.74481430  0.61614525  0.26074119  1
  O  O362  1  0.76351239  0.67142761  0.76682998  1
  O  O363  1  0.37053777  0.12291289  0.36812857  1
  O  O364  1  0.37242493  0.12062426  0.86625750  1
  O  O365  1  0.35759690  0.63329786  0.37931358  1
  O  O366  1  0.36744476  0.61950833  0.87379852  1
  O  O367  1  0.86529745  0.13191428  0.36591678  1
  O  O368  1  0.86795495  0.12352357  0.87174043  1
  O  O369  1  0.86922503  0.61538546  0.38079609  1
  O  O370  1  0.88443653  0.60765969  0.87567958  1
  O  O371  1  0.13142338  0.37567681  0.13364327  1
  O  O372  1  0.12391019  0.37308787  0.63882296  1
  O  O373  1  0.12433021  0.88501782  0.12957399  1
  O  O374  1  0.11923583  0.87658401  0.63775018  1
  O  O375  1  0.61162335  0.37280695  0.11925501  1
  O  O376  1  0.62982993  0.38281522  0.62789468  1
  O  O377  1  0.63637857  0.87327584  0.13189608  1
  O  O378  1  0.63182337  0.87892603  0.62932333  1
  O  O379  1  0.11871642  0.25965732  0.24986765  1
  O  O380  1  0.12523211  0.26339383  0.75078316  1
  O  O381  1  0.11612791  0.76529951  0.24594600  1
  O  O382  1  0.11751802  0.75370783  0.75198389  1
  O  O383  1  0.61692787  0.25275489  0.25752309  1
  O  O384  1  0.62277223  0.25575663  0.75963894  1
  O  O385  1  0.61904006  0.75579477  0.25546096  1
  O  O386  1  0.61869550  0.75918407  0.75954868  1
  O  O387  1  0.37973050  0.24394482  0.24433295  1
  O  O388  1  0.37652198  0.24425776  0.74183238  1
  O  O389  1  0.38362448  0.74698914  0.24195647  1
  O  O390  1  0.37740579  0.74790872  0.73767961  1
  O  O391  1  0.88277327  0.24683398  0.24242386  1
  O  O392  1  0.87755456  0.24357041  0.74282501  1
  O  O393  1  0.89197801  0.75276680  0.25118499  1
  O  O394  1  0.89284231  0.75733413  0.73486423  1
  O  O395  1  0.37851434  0.49145013  0.50346592  1
  O  O396  1  0.36724157  0.48967853  0.98953308  1
  O  O397  1  0.38139248  0.99620661  0.49670034  1
  O  O398  1  0.38042386  0.99434703  0.99576113  1
  O  O399  1  0.87058177  0.48613816  0.48766204  1
  O  O400  1  0.88154124  0.48949117  0.99309786  1
  O  O401  1  0.88727900  1.00195628  0.50346413  1
  O  O402  1  0.86990295  0.98363094  0.99807366  1
  O  O403  1  0.12708243  -0.00623012  0.01114739  1
  O  O404  1  0.11086390  0.01597769  0.50616359  1
  O  O405  1  0.11853485  0.50512187  -0.00047778  1
  O  O406  1  0.12316234  0.50159609  0.50070617  1
  O  O407  1  0.61648850  0.01208525  -0.00383350  1
  O  O408  1  0.61807586  0.00780987  0.50751943  1
  O  O409  1  0.62425128  0.51385006  -0.01293144  1
  O  O410  1  0.62929818  0.51368468  0.50609441  1
  O  O411  1  0.36982327  0.36701837  0.11895702  1
  O  O412  1  0.38142791  0.36768538  0.61041232  1
  O  O413  1  0.37454165  0.86464547  0.11824283  1
  O  O414  1  0.37374120  0.86348777  0.62134304  1
  O  O415  1  0.88127164  0.36750180  0.11087971  1
  O  O416  1  0.86851475  0.37170222  0.62034300  1
  O  O417  1  0.86429799  0.86997697  0.11930675  1
  O  O418  1  0.86849565  0.86851650  0.62238232  1
  O  O419  1  0.13303829  0.12690230  0.38124438  1
  O  O420  1  0.13533004  0.12277523  0.86900750  1
  O  O421  1  0.13252211  0.62197060  0.39181429  1
  O  O422  1  0.13103542  0.62772164  0.87924090  1
  O  O423  1  0.63139250  0.13242265  0.38307561  1
  O  O424  1  0.63192676  0.12986620  0.87567604  1
  O  O425  1  0.63091518  0.62912559  0.37974451  1
  O  O426  1  0.61421194  0.63884282  0.88067684  1
