# generated using pymatgen
data_V85Zn86O256
_symmetry_space_group_name_H-M   'P 1'
_cell_length_a   16.94296346
_cell_length_b   16.94839499
_cell_length_c   16.94667750
_cell_angle_alpha   90.00626285
_cell_angle_beta   89.96729154
_cell_angle_gamma   89.97027811
_symmetry_Int_Tables_number   1
_chemical_formula_structural   V85Zn86O256
_chemical_formula_sum   'V85 Zn86 O256'
_cell_volume   4866.33927342
_cell_formula_units_Z   1
loop_
 _symmetry_equiv_pos_site_id
 _symmetry_equiv_pos_as_xyz
  1  'x, y, z'
loop_
 _atom_site_type_symbol
 _atom_site_label
 _atom_site_symmetry_multiplicity
 _atom_site_fract_x
 _atom_site_fract_y
 _atom_site_fract_z
 _atom_site_occupancy
  V  V0  1  0.25154932  0.49575062  0.74721162  1
  V  V1  1  0.12293228  0.87217170  0.23808828  1
  V  V2  1  0.50005675  0.87504590  0.87181377  1
  V  V3  1  0.11287561  0.01355553  0.63055426  1
  V  V4  1  0.63151450  0.49684468  0.12386286  1
  V  V5  1  0.13371978  0.87382346  0.73831615  1
  V  V6  1  0.87761085  0.24558746  0.62507124  1
  V  V7  1  0.87715214  0.75368872  0.62438624  1
  V  V8  1  0.13969668  0.74667410  0.87211575  1
  V  V9  1  0.37266568  0.37582352  0.50680768  1
  V  V10  1  0.37644638  0.00459284  0.86932523  1
  V  V11  1  0.74921535  0.37656956  0.62472285  1
  V  V12  1  0.49798426  0.62577453  0.12611354  1
  V  V13  1  0.37313594  0.12680060  0.25336702  1
  V  V14  1  0.76418298  0.00117992  0.25434335  1
  V  V15  1  0.74837794  0.75248874  -0.00013002  1
  V  V16  1  0.73946518  -0.00277496  0.74846596  1
  V  V17  1  0.24940573  0.12247781  0.87038815  1
  V  V18  1  0.62231941  0.74762424  0.38145162  1
  V  V19  1  0.87434495  0.37675209  0.50031819  1
  V  V20  1  0.24833944  0.49766418  0.24855158  1
  V  V21  1  0.62588875  0.12659387  0.00052167  1
  V  V22  1  0.62685352  0.00225237  0.12899864  1
  V  V23  1  0.00438285  0.50740875  0.50024494  1
  V  V24  1  0.62262685  0.50498919  0.60739744  1
  V  V25  1  0.01131690  0.11729645  0.11820030  1
  V  V26  1  0.49894742  0.12816375  0.12755287  1
  V  V27  1  0.61573786  0.11698564  0.51200287  1
  V  V28  1  0.00060453  0.24723921  0.74810860  1
  V  V29  1  0.25794391  0.74962683  0.01736151  1
  V  V30  1  0.07734509  0.07331245  0.45329552  1
  V  V31  1  0.24348394  0.13381067  0.37452622  1
  V  V32  1  0.37271419  0.62791552  0.24835950  1
  V  V33  1  0.76116464  0.11878277  0.37512361  1
  V  V34  1  0.74799459  0.24672893  0.50151134  1
  V  V35  1  0.49336094  0.88049643  0.38069747  1
  V  V36  1  0.87451270  0.62620095  0.25028160  1
  V  V37  1  0.00320537  0.62581819  0.12438682  1
  V  V38  1  0.24271552  0.62576441  0.37708132  1
  V  V39  1  0.62489635  0.62709336  0.00048669  1
  V  V40  1  0.25621522  -0.00170297  0.73697413  1
  V  V41  1  0.49797478  0.62401004  0.61082593  1
  V  V42  1  0.87763081  0.49940293  0.37573715  1
  V  V43  1  0.87031027  0.23816986  0.12871387  1
  V  V44  1  0.37299819  0.62764101  0.74750446  1
  V  V45  1  0.49584306  0.75131973  0.25116926  1
  V  V46  1  0.62853222  0.37189419  0.24672177  1
  V  V47  1  0.62482065  0.25177753  0.87385854  1
  V  V48  1  0.62447334  0.87988367  0.25484900  1
  V  V49  1  0.88144315  0.12056246  0.74714071  1
  V  V50  1  0.12159409  0.75941388  0.38218519  1
  V  V51  1  0.12311385  0.24513526  0.87921757  1
  V  V52  1  0.24904984  -0.00465631  0.24341695  1
  V  V53  1  0.75240194  0.12475326  0.87496020  1
  V  V54  1  0.73767295  0.87917296  0.62706740  1
  V  V55  1  0.62223147  0.24503863  0.37585110  1
  V  V56  1  0.13106865  0.62249631  -0.00579116  1
  V  V57  1  0.00160639  0.74940892  0.75314686  1
  V  V58  1  0.49898316  0.00166484  -0.00164544  1
  V  V59  1  0.87668260  0.49844227  0.87373885  1
  V  V60  1  0.62646387  0.75869819  0.87413516  1
  V  V61  1  0.74934301  0.50214358  0.74702062  1
  V  V62  1  0.49155550  0.24834026  0.74225828  1
  V  V63  1  0.62389888  0.37839908  0.74754734  1
  V  V64  1  0.49920229  0.38219762  0.37919069  1
  V  V65  1  0.25181348  0.74552537  0.51096643  1
  V  V66  1  0.23204704  0.25359401  0.50357332  1
  V  V67  1  0.88634913  0.88656629  0.48953536  1
  V  V68  1  0.36565822  0.87492911  0.51614497  1
  V  V69  1  0.75069347  0.62718847  0.87302646  1
  V  V70  1  0.00614904  0.88306443  0.87667097  1
  V  V71  1  0.74511342  0.62543901  0.37780669  1
  V  V72  1  0.37032807  0.50463220  0.87450065  1
  V  V73  1  0.74825008  0.74880383  0.50143865  1
  V  V74  1  0.87423169  0.75138401  0.12486754  1
  V  V75  1  0.50032096  0.37760416  0.87491194  1
  V  V76  1  0.75021213  0.49771739  0.24902149  1
  V  V77  1  0.12920530  0.37205500  0.74638450  1
  V  V78  1  0.37412602  0.37538541  0.00331590  1
  V  V79  1  0.88073378  0.87993842  -0.00113640  1
  V  V80  1  0.12045453  0.36681431  0.25161001  1
  V  V81  1  0.12814249  0.50246408  0.62175664  1
  V  V82  1  0.87070228  0.37772559  0.01105280  1
  V  V83  1  0.24746067  0.24538777  0.00046862  1
  V  V84  1  0.50280643  0.74539994  0.74713072  1
  Zn  Zn85  1  0.36790156  0.87724138  0.01261838  1
  Zn  Zn86  1  0.49756976  0.25194640  0.25175943  1
  Zn  Zn87  1  0.87905350  0.00116062  0.87649820  1
  Zn  Zn88  1  0.36929509  -0.00033592  0.37963456  1
  Zn  Zn89  1  0.74725528  0.87601117  0.12481337  1
  Zn  Zn90  1  -0.00368936  0.75479335  0.25839605  1
  Zn  Zn91  1  -0.00329453  0.23975166  0.25349818  1
  Zn  Zn92  1  0.00308089  0.49916720  -0.00197755  1
  Zn  Zn93  1  0.37744149  0.50224132  0.37992258  1
  Zn  Zn94  1  0.36267031  0.24872156  0.62474245  1
  Zn  Zn95  1  0.13138859  -0.00649636  0.10684365  1
  Zn  Zn96  1  0.12500605  0.49870858  0.12310414  1
  Zn  Zn97  1  0.24613496  0.37362607  0.12391955  1
  Zn  Zn98  1  0.74678926  0.25676383  0.00312175  1
  Zn  Zn99  1  0.44381749  0.08717641  0.67187696  1
  Zn  Zn100  1  0.37406292  0.25154402  0.12629594  1
  Zn  Zn101  1  0.00293558  0.62796727  0.62252082  1
  Zn  Zn102  1  0.00977973  0.36798983  0.38073096  1
  Zn  Zn103  1  0.87636784  0.62557641  0.74847086  1
  Zn  Zn104  1  -0.00069771  0.37353132  0.87757983  1
  Zn  Zn105  1  0.49478748  0.00143892  0.51649593  1
  Zn  Zn106  1  0.49996433  0.50087723  0.00076585  1
  Zn  Zn107  1  0.18744350  0.18718310  0.18425473  1
  Zn  Zn108  1  0.19222447  0.18480111  0.68776350  1
  Zn  Zn109  1  0.18492436  0.68710568  0.19025780  1
  Zn  Zn110  1  0.18803517  0.68032835  0.69019614  1
  Zn  Zn111  1  0.69254103  0.18643335  0.19116019  1
  Zn  Zn112  1  0.68805887  0.18866159  0.69071271  1
  Zn  Zn113  1  0.68531267  0.68941360  0.18989751  1
  Zn  Zn114  1  0.68376216  0.68642430  0.68516482  1
  Zn  Zn115  1  0.31145368  0.31336613  0.31510344  1
  Zn  Zn116  1  0.31163388  0.31570066  0.81503598  1
  Zn  Zn117  1  0.30884481  0.81199842  0.31296484  1
  Zn  Zn118  1  0.31826996  0.81495711  0.81169164  1
  Zn  Zn119  1  0.81508703  0.30978758  0.31418342  1
  Zn  Zn120  1  0.81286404  0.31403596  0.81394628  1
  Zn  Zn121  1  0.81154599  0.81575758  0.31395527  1
  Zn  Zn122  1  0.81454737  0.81647992  0.81061749  1
  Zn  Zn123  1  0.18946657  0.43629693  0.43560263  1
  Zn  Zn124  1  0.18821006  0.43483133  0.93351743  1
  Zn  Zn125  1  0.19267202  0.93538618  0.43514775  1
  Zn  Zn126  1  0.19551848  0.92779165  0.93085478  1
  Zn  Zn127  1  0.68980712  0.43364608  0.43294100  1
  Zn  Zn128  1  0.69024813  0.43942914  0.93777116  1
  Zn  Zn129  1  0.68943677  0.93783743  0.44238918  1
  Zn  Zn130  1  0.68934051  0.93878131  0.93790420  1
  Zn  Zn131  1  0.31231189  0.06363381  0.06009286  1
  Zn  Zn132  1  0.30121673  0.06775552  0.55551927  1
  Zn  Zn133  1  0.31181353  0.56419974  0.06356534  1
  Zn  Zn134  1  0.31280791  0.56105139  0.56353125  1
  Zn  Zn135  1  0.81210947  0.06177396  0.06295267  1
  Zn  Zn136  1  0.81093658  0.06073688  0.56154520  1
  Zn  Zn137  1  0.81208162  0.56354728  0.06133428  1
  Zn  Zn138  1  0.81332188  0.56761903  0.56253967  1
  Zn  Zn139  1  0.44042234  0.44121805  0.19033991  1
  Zn  Zn140  1  0.43908650  0.43970866  0.68259668  1
  Zn  Zn141  1  0.43458319  0.94200882  0.18920819  1
  Zn  Zn142  1  0.44095471  0.92395548  0.68835548  1
  Zn  Zn143  1  0.93987079  0.43886625  0.18636792  1
  Zn  Zn144  1  0.94049780  0.43517789  0.68763926  1
  Zn  Zn145  1  0.94496077  0.93726436  0.18418298  1
  Zn  Zn146  1  0.93562085  0.93457860  0.68724186  1
  Zn  Zn147  1  0.05769859  0.05847305  0.29248501  1
  Zn  Zn148  1  0.06499445  0.06247387  0.94181301  1
  Zn  Zn149  1  0.06387151  0.56295371  0.31128635  1
  Zn  Zn150  1  0.06305226  0.56341735  0.81135377  1
  Zn  Zn151  1  0.56141052  0.06195102  0.31827377  1
  Zn  Zn152  1  0.56417334  0.06513846  0.81149302  1
  Zn  Zn153  1  0.56285226  0.56192848  0.31360040  1
  Zn  Zn154  1  0.56307984  0.56391817  0.80979241  1
  Zn  Zn155  1  0.43369628  0.19181104  0.44051718  1
  Zn  Zn156  1  0.43567751  0.18861359  0.93490492  1
  Zn  Zn157  1  0.42917379  0.69173443  0.43419044  1
  Zn  Zn158  1  0.43779953  0.68575046  0.93673653  1
  Zn  Zn159  1  0.94038860  0.19011215  0.43753027  1
  Zn  Zn160  1  0.93415980  0.19219893  0.93933010  1
  Zn  Zn161  1  0.93609460  0.68945737  0.43984101  1
  Zn  Zn162  1  0.94119186  0.68940842  0.93646803  1
  Zn  Zn163  1  0.05793159  0.31241503  0.06584924  1
  Zn  Zn164  1  0.05804770  0.31738053  0.56533962  1
  Zn  Zn165  1  0.06400370  0.80717713  0.05883273  1
  Zn  Zn166  1  0.06261152  0.81411039  0.56152538  1
  Zn  Zn167  1  0.56219703  0.31286937  0.06287658  1
  Zn  Zn168  1  0.56070112  0.31407016  0.56045046  1
  Zn  Zn169  1  0.52933192  0.82970993  0.08049955  1
  Zn  Zn170  1  0.55672847  0.81065748  0.56241732  1
  O  O171  1  0.11459350  0.12439717  0.12004261  1
  O  O172  1  0.11981107  0.11246134  0.63532668  1
  O  O173  1  0.11751693  0.62477326  0.11793490  1
  O  O174  1  0.12081392  0.60761401  0.63179221  1
  O  O175  1  0.62014374  0.12262401  0.12137085  1
  O  O176  1  0.62927366  0.13211466  0.60960746  1
  O  O177  1  0.62242345  0.61718157  0.12035294  1
  O  O178  1  0.61153949  0.61693859  0.62538734  1
  O  O179  1  0.38472876  0.37640896  0.37989190  1
  O  O180  1  0.38188516  0.38341347  0.88385557  1
  O  O181  1  0.38094080  0.87590563  0.38044240  1
  O  O182  1  0.38498301  0.88550211  0.88006572  1
  O  O183  1  0.86763190  0.39031274  0.38139135  1
  O  O184  1  0.87603348  0.38326903  0.88296912  1
  O  O185  1  0.87092539  0.87248945  0.39028427  1
  O  O186  1  0.88610393  0.87366365  0.88198479  1
  O  O187  1  0.24780045  0.01212957  0.36384275  1
  O  O188  1  0.25925803  0.00539464  0.86599840  1
  O  O189  1  0.24960519  0.50867257  0.36445146  1
  O  O190  1  0.25959716  0.49554133  0.86220038  1
  O  O191  1  0.74369398  0.01160771  0.37005744  1
  O  O192  1  0.75402161  0.00668493  0.86740904  1
  O  O193  1  0.75484844  0.50745206  0.37027214  1
  O  O194  1  0.75966253  0.50546711  0.86889030  1
  O  O195  1  0.25074813  0.49849336  0.13757509  1
  O  O196  1  0.24331400  0.50154590  0.63683949  1
  O  O197  1  0.24993363  1.00701227  0.13836847  1
  O  O198  1  0.24237892  1.00397085  0.63479757  1
  O  O199  1  0.73917506  0.50484484  0.13141819  1
  O  O200  1  0.74418865  0.49789191  0.62834253  1
  O  O201  1  0.74326304  0.99950393  0.13486369  1
  O  O202  1  0.75111117  0.98607609  0.63096815  1
  O  O203  1  0.01387318  0.37838428  0.24869233  1
  O  O204  1  0.00484059  0.36248619  0.75447412  1
  O  O205  1  0.01683277  0.87282706  0.24941534  1
  O  O206  1  0.00793168  0.86536806  0.75652039  1
  O  O207  1  0.51129800  0.37356152  0.25722861  1
  O  O208  1  0.50456464  0.37041740  0.75600931  1
  O  O209  1  0.50828772  0.87401935  0.26199156  1
  O  O210  1  0.49893270  0.86065647  0.76290463  1
  O  O211  1  0.49186689  0.12495234  0.24529589  1
  O  O212  1  0.50036810  0.14395491  0.75671404  1
  O  O213  1  0.49194564  0.62773801  0.24700122  1
  O  O214  1  0.49152083  0.62796327  0.74395385  1
  O  O215  1  0.99687204  0.12566697  0.22714046  1
  O  O216  1  0.98422287  0.13866394  0.75211233  1
  O  O217  1  0.99245497  0.62854678  0.24249954  1
  O  O218  1  0.99840898  0.63855044  0.74973206  1
  O  O219  1  0.36869059  0.25994228  -0.00120977  1
  O  O220  1  0.36320714  0.26084890  0.49996204  1
  O  O221  1  0.35918322  0.74356988  -0.00526290  1
  O  O222  1  0.35964133  0.76001753  0.49690002  1
  O  O223  1  0.87186952  0.26289961  0.00887548  1
  O  O224  1  0.86757403  0.25374502  0.50987760  1
  O  O225  1  0.86853876  0.75557817  0.00596659  1
  O  O226  1  0.86678337  0.75615984  0.50692570  1
  O  O227  1  0.13391322  0.26967321  0.49415364  1
  O  O228  1  0.13507074  0.26082894  0.99028072  1
  O  O229  1  0.13591290  0.75576854  0.48972383  1
  O  O230  1  0.13744696  0.74320903  0.99200559  1
  O  O231  1  0.62928448  0.24416512  0.49332021  1
  O  O232  1  0.62652453  0.24549932  0.99288862  1
  O  O233  1  0.63103318  0.75652733  0.48884778  1
  O  O234  1  0.63285387  0.74481415  0.99122809  1
  O  O235  1  0.49883650  0.23901136  0.12746555  1
  O  O236  1  0.50037038  0.25512223  0.64062218  1
  O  O237  1  0.51577823  0.73106423  0.13835961  1
  O  O238  1  0.50620661  0.73612988  0.63480136  1
  O  O239  1  0.98862462  0.24014367  0.12464120  1
  O  O240  1  0.98645156  0.25570156  0.63268320  1
  O  O241  1  0.99216534  0.74020286  0.12619588  1
  O  O242  1  0.99415803  0.74980313  0.63246949  1
  O  O243  1  -0.02331075  0.26180957  0.36250541  1
  O  O244  1  0.00742274  0.24987331  0.86814481  1
  O  O245  1  0.01801834  0.74094493  0.37645854  1
  O  O246  1  0.01001672  0.75667245  0.86791799  1
  O  O247  1  0.50812036  0.25767917  0.37322088  1
  O  O248  1  0.50237162  0.26194137  0.86758210  1
  O  O249  1  0.50494052  0.75949130  0.37232720  1
  O  O250  1  0.50784392  0.75580458  0.87289219  1
  O  O251  1  0.23951868  0.14179112  0.48945697  1
  O  O252  1  0.25790713  0.13811767  0.98815387  1
  O  O253  1  0.25666430  0.63626715  0.49175200  1
  O  O254  1  0.23935024  0.63288352  1.00328197  1
  O  O255  1  0.73921468  0.12700778  0.49159325  1
  O  O256  1  0.74647268  0.12404721  0.98702337  1
  O  O257  1  0.75287689  0.64111258  0.49549295  1
  O  O258  1  0.74613657  0.63272350  0.99317694  1
  O  O259  1  0.25911130  0.36669688  -0.00106230  1
  O  O260  1  0.26108134  0.36284401  0.48890003  1
  O  O261  1  0.25385504  0.85482618  -0.00097931  1
  O  O262  1  0.25906830  0.86336455  0.49746934  1
  O  O263  1  0.76552712  0.37530722  -0.00382146  1
  O  O264  1  0.75478923  0.36702264  0.50478183  1
  O  O265  1  0.75682555  0.86744911  0.00222482  1
  O  O266  1  0.75509142  0.86758116  0.51081504  1
  O  O267  1  0.13323654  0.49506330  0.24545436  1
  O  O268  1  0.13246163  0.49228354  0.74859584  1
  O  O269  1  0.13136764  0.98562692  0.24195796  1
  O  O270  1  0.13563960  0.98901532  0.73870538  1
  O  O271  1  0.63007678  0.49280641  0.24369003  1
  O  O272  1  0.63157983  0.49489170  0.74361463  1
  O  O273  1  0.62933964  0.99454469  0.24911517  1
  O  O274  1  0.64011793  1.00532918  0.75260965  1
  O  O275  1  0.36850960  0.01002369  0.25345848  1
  O  O276  1  0.37040461  -0.00382226  0.75517285  1
  O  O277  1  0.36902655  0.50944164  0.25440781  1
  O  O278  1  0.36940005  0.50134397  0.75447459  1
  O  O279  1  0.86260587  -0.01262918  0.24698801  1
  O  O280  1  0.86802009  0.00813888  0.75034882  1
  O  O281  1  0.87046464  0.50417289  0.25619706  1
  O  O282  1  0.86920485  0.50042164  0.75647438  1
  O  O283  1  0.12490691  0.38183903  0.35626001  1
  O  O284  1  0.12308872  0.36451062  0.86407916  1
  O  O285  1  0.12899441  0.86218268  0.36814410  1
  O  O286  1  0.12076873  0.86463660  0.86340856  1
  O  O287  1  0.61955645  0.36333976  0.37146756  1
  O  O288  1  0.61796463  0.37315045  0.87068302  1
  O  O289  1  0.61772273  0.87053264  0.37302115  1
  O  O290  1  0.62413395  0.86353829  0.87391666  1
  O  O291  1  0.38372497  0.12563329  0.13298682  1
  O  O292  1  0.35955175  0.13536411  0.62325901  1
  O  O293  1  0.38676513  0.61859270  0.13404683  1
  O  O294  1  0.38878573  0.61752456  0.63311024  1
  O  O295  1  0.88094975  0.13508112  0.11815584  1
  O  O296  1  0.86423454  0.13556731  0.63363981  1
  O  O297  1  0.87919597  0.63532531  0.12747164  1
  O  O298  1  0.87595286  0.64058958  0.62738808  1
  O  O299  1  0.25397526  0.25182138  0.11414955  1
  O  O300  1  0.24078332  0.25258694  0.60847543  1
  O  O301  1  0.25225672  0.74556716  0.11610524  1
  O  O302  1  0.24277195  0.74161807  0.60940038  1
  O  O303  1  0.76343116  0.24159370  0.11949043  1
  O  O304  1  0.75658304  0.25708641  0.62279773  1
  O  O305  1  0.75704596  0.75254132  0.12035170  1
  O  O306  1  0.75444963  0.75684433  0.62064994  1
  O  O307  1  0.25060396  0.23954035  0.38016456  1
  O  O308  1  0.24478486  0.24221364  0.87706284  1
  O  O309  1  0.24013965  0.74375595  0.38186414  1
  O  O310  1  0.24117804  0.75016172  0.87268864  1
  O  O311  1  0.74413151  0.23938799  0.38001399  1
  O  O312  1  0.74334979  0.24204597  0.87483884  1
  O  O313  1  0.74169010  0.74741599  0.38283897  1
  O  O314  1  0.74435220  0.74765845  0.87685892  1
  O  O315  1  -0.00419363  0.12625251  0.00895567  1
  O  O316  1  0.01720920  0.13621813  0.50272052  1
  O  O317  1  0.01240543  0.62674912  0.00606377  1
  O  O318  1  -0.00469379  0.61158751  0.50201373  1
  O  O319  1  0.50415628  0.12167905  0.00638801  1
  O  O320  1  0.51145247  0.12451398  0.49658077  1
  O  O321  1  0.50541304  0.62278837  0.00917792  1
  O  O322  1  0.49127870  0.63239393  0.51205967  1
  O  O323  1  0.48521005  0.36788484  0.49200499  1
  O  O324  1  0.49361777  0.37729297  0.99162090  1
  O  O325  1  0.48362496  0.87338185  0.49746043  1
  O  O326  1  0.51195968  0.88612147  0.98106088  1
  O  O327  1  0.99002591  0.38732048  0.49860701  1
  O  O328  1  0.98671235  0.37875369  0.99746766  1
  O  O329  1  0.98516018  0.87038133  0.50196756  1
  O  O330  1  0.99263415  0.86413287  0.98925539  1
  O  O331  1  0.50225135  0.48644959  0.37451998  1
  O  O332  1  0.49546755  0.48908106  0.87414584  1
  O  O333  1  0.49667598  0.98833955  0.38236150  1
  O  O334  1  0.49519907  0.99527946  0.87408972  1
  O  O335  1  0.99276614  0.49937307  0.38120373  1
  O  O336  1  0.98708246  0.50000455  0.87443514  1
  O  O337  1  1.01973835  1.01701607  0.39464876  1
  O  O338  1  1.00015361  0.98645884  0.87426484  1
  O  O339  1  0.00525826  0.01182237  0.12092282  1
  O  O340  1  0.01452894  -0.00440600  0.63080688  1
  O  O341  1  -0.00208950  0.51554693  0.12054708  1
  O  O342  1  0.00583174  0.50191623  0.61804242  1
  O  O343  1  0.50796526  0.01463320  0.12187394  1
  O  O344  1  0.49795236  -0.00006766  0.63049826  1
  O  O345  1  0.51297591  0.50972071  0.12632402  1
  O  O346  1  0.50916003  0.51265835  0.62512232  1
  O  O347  1  0.24275883  0.38150037  0.24833360  1
  O  O348  1  0.24160852  0.38150095  0.75135446  1
  O  O349  1  0.23922557  0.88307336  0.25382868  1
  O  O350  1  0.24486002  0.88451315  0.75504343  1
  O  O351  1  0.73577925  0.38097805  0.25849268  1
  O  O352  1  0.74395872  0.38095923  0.74414450  1
  O  O353  1  0.73709793  0.88091570  0.25088194  1
  O  O354  1  0.75375396  0.88191314  0.73682466  1
  O  O355  1  0.25517374  0.12204676  0.25491146  1
  O  O356  1  0.24690518  0.11588438  0.76326543  1
  O  O357  1  0.25587927  0.61965482  0.25475605  1
  O  O358  1  0.26596377  0.61689406  0.74694507  1
  O  O359  1  0.74812875  0.11624409  0.26569753  1
  O  O360  1  0.75644244  0.12047172  0.75890415  1
  O  O361  1  0.75612921  0.61990371  0.25609894  1
  O  O362  1  0.75176704  0.61975499  0.75516378  1
  O  O363  1  0.36629805  0.12324255  0.36900329  1
  O  O364  1  0.36947797  0.11260117  0.87651685  1
  O  O365  1  0.36397300  0.62276630  0.36766213  1
  O  O366  1  0.38477588  0.60957082  0.86619783  1
  O  O367  1  0.85893420  0.12389206  0.38501735  1
  O  O368  1  0.86755666  0.12467177  0.86814651  1
  O  O369  1  0.86871109  0.61654741  0.37157509  1
  O  O370  1  0.86909502  0.61766019  0.87504447  1
  O  O371  1  0.12601019  0.37956773  0.13436750  1
  O  O372  1  0.11729003  0.38544187  0.64030636  1
  O  O373  1  0.12544645  0.86967271  0.13495637  1
  O  O374  1  0.12535708  0.87531139  0.63598365  1
  O  O375  1  0.62077507  0.38308171  0.13392689  1
  O  O376  1  0.62901832  0.38328355  0.62778075  1
  O  O377  1  0.62100245  0.88355744  0.13763239  1
  O  O378  1  0.63936471  0.86759540  0.62195510  1
  O  O379  1  0.12333655  0.26390800  0.24442046  1
  O  O380  1  0.11809921  0.25378656  0.75361834  1
  O  O381  1  0.12618579  0.75988404  0.25950035  1
  O  O382  1  0.12195686  0.75282098  0.75434894  1
  O  O383  1  0.62492763  0.25562420  0.25737503  1
  O  O384  1  0.61640596  0.25822115  0.75552757  1
  O  O385  1  0.62028424  0.75982196  0.26165520  1
  O  O386  1  0.61265724  0.73944957  0.76131956  1
  O  O387  1  0.37538515  0.23889837  0.24833343  1
  O  O388  1  0.38820196  0.26052112  0.74812455  1
  O  O389  1  0.38047518  0.73716620  0.25628912  1
  O  O390  1  0.38834178  0.73871072  0.75911657  1
  O  O391  1  0.87270225  0.25875193  0.22981060  1
  O  O392  1  0.87958342  0.24645116  0.74386108  1
  O  O393  1  0.87468937  0.74634964  0.24276944  1
  O  O394  1  0.88485863  0.75178361  0.74350787  1
  O  O395  1  0.36449616  0.48175984  0.49658411  1
  O  O396  1  0.37494550  0.49461868  0.99158230  1
  O  O397  1  0.36807975  0.98618561  0.49965373  1
  O  O398  1  0.38245571  0.99806025  0.99196389  1
  O  O399  1  0.87902488  0.49787716  0.49368741  1
  O  O400  1  0.87472205  0.49201940  0.99384866  1
  O  O401  1  0.87287422  0.98559759  0.50505646  1
  O  O402  1  0.86898298  0.98323188  0.99926361  1
  O  O403  1  0.13489737  -0.00541245  -0.00523365  1
  O  O404  1  0.13396416  0.00356864  0.51384183  1
  O  O405  1  0.12530156  0.50722562  -0.00075516  1
  O  O406  1  0.11780655  0.49103731  0.50942506  1
  O  O407  1  0.62081903  0.00782477  0.00619993  1
  O  O408  1  0.62133712  0.01403405  0.49823464  1
  O  O409  1  0.62479770  0.50539591  0.00769374  1
  O  O410  1  0.63098308  0.49724783  0.50850614  1
  O  O411  1  0.37839288  0.37650790  0.11302025  1
  O  O412  1  0.37824286  0.37148087  0.61061070  1
  O  O413  1  0.42111851  0.86541973  0.11160896  1
  O  O414  1  0.37100472  0.86822023  0.61431743  1
  O  O415  1  0.87709289  0.37146180  0.11401315  1
  O  O416  1  0.86776144  0.36920768  0.62026442  1
  O  O417  1  0.87784640  0.86360068  0.11850585  1
  O  O418  1  0.86701538  0.86433959  0.62044336  1
  O  O419  1  0.12846150  0.12312783  0.37328424  1
  O  O420  1  0.13304859  0.13759566  0.87780599  1
  O  O421  1  0.13722261  0.63603079  0.36753591  1
  O  O422  1  0.12134164  0.63364189  0.88279355  1
  O  O423  1  0.62850614  0.13554844  0.38121845  1
  O  O424  1  0.63180677  0.13163885  0.88046621  1
  O  O425  1  0.63051894  0.63646381  0.36940067  1
  O  O426  1  0.63021878  0.63115780  0.88167156  1
