# generated using pymatgen
data_V85Zn86O256
_symmetry_space_group_name_H-M   'P 1'
_cell_length_a   16.94303280
_cell_length_b   16.95289121
_cell_length_c   16.94530335
_cell_angle_alpha   90.00751128
_cell_angle_beta   90.01582435
_cell_angle_gamma   90.05150443
_symmetry_Int_Tables_number   1
_chemical_formula_structural   V85Zn86O256
_chemical_formula_sum   'V85 Zn86 O256'
_cell_volume   4867.25476366
_cell_formula_units_Z   1
loop_
 _symmetry_equiv_pos_site_id
 _symmetry_equiv_pos_as_xyz
  1  'x, y, z'
loop_
 _atom_site_type_symbol
 _atom_site_label
 _atom_site_symmetry_multiplicity
 _atom_site_fract_x
 _atom_site_fract_y
 _atom_site_fract_z
 _atom_site_occupancy
  V  V0  1  0.62632206  0.37518101  0.74964691  1
  V  V1  1  0.25867639  0.00167131  0.75085840  1
  V  V2  1  0.00913377  0.24832067  0.75591436  1
  V  V3  1  0.36994796  0.62678566  0.25141586  1
  V  V4  1  0.88046064  0.37707583  0.00252500  1
  V  V5  1  0.37889163  -0.00120282  0.36981328  1
  V  V6  1  0.87419660  0.12873794  0.75092545  1
  V  V7  1  0.62527022  0.49958350  0.12608564  1
  V  V8  1  0.24848642  0.75169049  -0.00238725  1
  V  V9  1  0.49603071  0.37458429  0.87963139  1
  V  V10  1  0.49541137  0.24434265  0.75135758  1
  V  V11  1  -0.04506335  0.80511749  0.30310991  1
  V  V12  1  0.62363830  0.75505830  0.87789102  1
  V  V13  1  0.25929887  0.12340352  0.87437546  1
  V  V14  1  0.63194432  0.12929323  0.49073062  1
  V  V15  1  0.62705754  0.25100579  0.87585196  1
  V  V16  1  0.24393803  0.49812042  0.75288332  1
  V  V17  1  0.25114856  0.12700831  0.36955609  1
  V  V18  1  0.62009322  0.36277525  0.25589989  1
  V  V19  1  0.43182810  0.18222746  0.28865524  1
  V  V20  1  0.37342831  0.24465535  0.63134215  1
  V  V21  1  0.12473401  0.12138038  0.49640993  1
  V  V22  1  0.74992257  0.62789846  0.87833015  1
  V  V23  1  0.37340850  0.62952793  0.74641273  1
  V  V24  1  0.37987193  0.49660766  0.37485110  1
  V  V25  1  0.12285842  0.49989393  0.60881941  1
  V  V26  1  0.12059840  0.25901269  0.37447194  1
  V  V27  1  0.12510648  0.87092126  0.74906606  1
  V  V28  1  0.24953955  0.25248017  0.50138451  1
  V  V29  1  0.75144019  0.49950175  0.74940280  1
  V  V30  1  0.75076815  -0.00083560  0.75032805  1
  V  V31  1  0.49523825  0.11992421  0.11846322  1
  V  V32  1  0.37547716  0.87011859  0.50179565  1
  V  V33  1  0.88254268  0.62368667  0.74717727  1
  V  V34  1  0.12557207  0.12514410  -0.00775221  1
  V  V35  1  0.13729413  0.74992420  0.38647068  1
  V  V36  1  0.11122130  0.62416295  0.00077207  1
  V  V37  1  0.76994337  0.75044812  0.50818159  1
  V  V38  1  0.87459197  -0.00078628  0.88331729  1
  V  V39  1  -0.05651271  0.79210079  0.69891615  1
  V  V40  1  0.87553711  0.75316317  0.10742644  1
  V  V41  1  0.49803222  0.75254202  0.74888236  1
  V  V42  1  0.00578840  0.37248746  0.87853823  1
  V  V43  1  0.25106694  0.87660655  0.12269444  1
  V  V44  1  0.87055852  0.12151664  0.26417279  1
  V  V45  1  0.62374477  -0.00204933  0.11927744  1
  V  V46  1  0.74790452  0.24797748  0.00200693  1
  V  V47  1  0.50081084  0.62340781  0.12352123  1
  V  V48  1  0.00130232  0.12745412  0.62252391  1
  V  V49  1  0.75350985  -0.00347784  0.26177246  1
  V  V50  1  0.75142115  0.37220005  0.62134112  1
  V  V51  1  0.24814374  0.62766039  0.87619856  1
  V  V52  1  0.62483398  0.50293980  0.61623936  1
  V  V53  1  0.00104628  0.62057007  0.61466427  1
  V  V54  1  0.75291160  0.87286518  0.10751424  1
  V  V55  1  -0.01529792  -0.00646290  0.48761579  1
  V  V56  1  0.37619540  0.75087971  0.12339385  1
  V  V57  1  -0.00773881  0.62510534  0.13961788  1
  V  V58  1  0.50619536  0.74881149  0.25172654  1
  V  V59  1  0.25243902  0.00437840  0.24946505  1
  V  V60  1  0.75063326  0.50657921  0.25269056  1
  V  V61  1  0.25265007  0.87174186  0.62152540  1
  V  V62  1  0.37382397  0.49829759  0.87944615  1
  V  V63  1  0.88007089  0.49943092  0.87934488  1
  V  V64  1  0.50069472  0.62448625  0.61925315  1
  V  V65  1  0.37814585  0.25503004  0.11792587  1
  V  V66  1  0.74592550  0.62023411  0.38347408  1
  V  V67  1  0.88822853  0.37878448  0.49477859  1
  V  V68  1  -0.00150677  0.25675358  0.25352959  1
  V  V69  1  0.88944142  0.50286325  0.37368871  1
  V  V70  1  -0.00332117  0.87101750  0.88483253  1
  V  V71  1  0.62737194  0.62544657  -0.00197127  1
  V  V72  1  0.74888381  0.37602223  0.12683036  1
  V  V73  1  0.12547696  0.00064131  0.12559070  1
  V  V74  1  0.24671480  0.25779599  -0.00413435  1
  V  V75  1  0.12585110  0.86885621  0.25279397  1
  V  V76  1  0.74919803  0.25039438  0.48233750  1
  V  V77  1  0.38754348  0.88127735  -0.00781164  1
  V  V78  1  -0.00087883  0.12495986  0.12587001  1
  V  V79  1  0.87378793  0.24742138  0.12680608  1
  V  V80  1  0.49781348  0.49786557  -0.00082916  1
  V  V81  1  0.62465781  0.74588240  0.39107782  1
  V  V82  1  0.62370506  0.87500749  0.74695644  1
  V  V83  1  0.50477108  -0.00084835  0.50270177  1
  V  V84  1  0.24661928  0.50116637  0.24634244  1
  Zn  Zn85  1  0.50346640  0.49453431  0.49653949  1
  Zn  Zn86  1  0.24928077  0.37147195  0.63016035  1
  Zn  Zn87  1  0.39155515  0.00103958  0.87122752  1
  Zn  Zn88  1  0.63281603  0.00065885  0.62238872  1
  Zn  Zn89  1  0.12566744  0.37316697  0.75364804  1
  Zn  Zn90  1  0.87555136  0.25241817  0.62244246  1
  Zn  Zn91  1  0.31431186  0.70640437  0.56405162  1
  Zn  Zn92  1  0.76503827  0.87032031  0.62493542  1
  Zn  Zn93  1  0.38300475  0.37107216  0.50177690  1
  Zn  Zn94  1  0.12692817  0.00009898  0.62353053  1
  Zn  Zn95  1  0.50313179  0.12346984  0.62799154  1
  Zn  Zn96  1  0.12028435  0.38028841  0.24837540  1
  Zn  Zn97  1  0.62122527  0.11777122  -0.00351876  1
  Zn  Zn98  1  0.24811568  0.37747781  0.12327228  1
  Zn  Zn99  1  0.50353376  0.87284487  0.37606323  1
  Zn  Zn100  1  0.11345313  0.49706660  0.12230319  1
  Zn  Zn101  1  0.50078976  0.35838241  0.37317384  1
  Zn  Zn102  1  0.75078579  0.12528381  0.87550257  1
  Zn  Zn103  1  0.24880948  0.62446048  0.39821231  1
  Zn  Zn104  1  0.11729034  0.74834139  0.87134310  1
  Zn  Zn105  1  -0.00252321  -0.00131446  0.00122399  1
  Zn  Zn106  1  0.62866019  0.87114844  0.25036493  1
  Zn  Zn107  1  0.18786261  0.18975570  0.18510184  1
  Zn  Zn108  1  0.18791117  0.18388070  0.68924803  1
  Zn  Zn109  1  0.18465412  0.68767114  0.18561708  1
  Zn  Zn110  1  0.18057980  0.68575276  0.68665810  1
  Zn  Zn111  1  0.68636217  0.18069997  0.18855924  1
  Zn  Zn112  1  0.68582742  0.18689676  0.68212244  1
  Zn  Zn113  1  0.69253655  0.68738839  0.18778140  1
  Zn  Zn114  1  0.68924076  0.68640718  0.68751956  1
  Zn  Zn115  1  0.30621293  0.31907373  0.31257526  1
  Zn  Zn116  1  0.31249767  0.31240850  0.81587407  1
  Zn  Zn117  1  0.31282150  0.81479931  0.31321320  1
  Zn  Zn118  1  0.31172405  0.81369612  0.81150185  1
  Zn  Zn119  1  0.81528615  0.31982802  0.31057838  1
  Zn  Zn120  1  0.81603527  0.31229213  0.81242138  1
  Zn  Zn121  1  0.79693107  0.80891053  0.31034065  1
  Zn  Zn122  1  0.80455955  0.81797943  0.82570613  1
  Zn  Zn123  1  0.19343104  0.43717804  0.43290275  1
  Zn  Zn124  1  0.18507443  0.44193881  0.94124212  1
  Zn  Zn125  1  0.18734687  0.93589319  0.43602462  1
  Zn  Zn126  1  0.18661509  0.93885931  0.93512219  1
  Zn  Zn127  1  0.68722226  0.43297487  0.43612021  1
  Zn  Zn128  1  0.69012817  0.43748120  0.93867505  1
  Zn  Zn129  1  0.68943103  0.92908363  0.44081755  1
  Zn  Zn130  1  0.56658513  0.93519099  0.93728191  1
  Zn  Zn131  1  0.31482789  0.06556612  0.06282314  1
  Zn  Zn132  1  0.31443271  0.06090550  0.56258391  1
  Zn  Zn133  1  0.31056296  0.56457391  0.06217157  1
  Zn  Zn134  1  0.31390971  0.54531986  0.56484689  1
  Zn  Zn135  1  0.80869032  0.06212773  0.06582717  1
  Zn  Zn136  1  0.81206162  0.06435876  0.56251638  1
  Zn  Zn137  1  0.81601175  0.56427515  0.06277130  1
  Zn  Zn138  1  0.81533066  0.56199654  0.56012320  1
  Zn  Zn139  1  0.43744283  0.43529592  0.18967322  1
  Zn  Zn140  1  0.43560046  0.43366065  0.68974351  1
  Zn  Zn141  1  0.43941384  0.93526878  0.18625176  1
  Zn  Zn142  1  0.43827716  0.93593718  0.68603005  1
  Zn  Zn143  1  0.93577455  0.44144215  0.18886400  1
  Zn  Zn144  1  0.94015624  0.43731319  0.68733684  1
  Zn  Zn145  1  0.93076941  0.94014601  0.18189206  1
  Zn  Zn146  1  0.94076021  0.95525899  0.68595749  1
  Zn  Zn147  1  0.06258765  0.06415765  0.31147226  1
  Zn  Zn148  1  0.06532694  0.05721462  0.81230924  1
  Zn  Zn149  1  0.06735254  0.57267445  0.31272674  1
  Zn  Zn150  1  0.05996520  0.56330962  0.81406249  1
  Zn  Zn151  1  0.57189786  0.05605046  0.31312749  1
  Zn  Zn152  1  0.56632210  0.06518416  0.81033529  1
  Zn  Zn153  1  0.56490998  0.56279037  0.31181278  1
  Zn  Zn154  1  0.56241996  0.56307556  0.80735178  1
  Zn  Zn155  1  0.43735962  0.18345048  0.45446722  1
  Zn  Zn156  1  0.43692037  0.18649009  0.94009794  1
  Zn  Zn157  1  0.43986282  0.68170275  0.43444124  1
  Zn  Zn158  1  0.43841264  0.68823322  0.93472599  1
  Zn  Zn159  1  0.93744657  0.18997737  0.43889399  1
  Zn  Zn160  1  0.93753019  0.18778629  0.93841229  1
  Zn  Zn161  1  0.93923705  0.68056000  0.43409529  1
  Zn  Zn162  1  0.93617631  0.69014501  0.93441913  1
  Zn  Zn163  1  0.06511446  0.31165859  0.06488447  1
  Zn  Zn164  1  0.06561063  0.31232595  0.56683445  1
  Zn  Zn165  1  0.06193960  0.81059259  0.06382985  1
  Zn  Zn166  1  0.06360302  0.81727077  0.55921608  1
  Zn  Zn167  1  0.56039643  0.31145809  0.06559549  1
  Zn  Zn168  1  0.56341649  0.31136177  0.56134973  1
  Zn  Zn169  1  0.56854292  0.80780373  0.06645534  1
  Zn  Zn170  1  0.56129074  0.81332693  0.56802862  1
  O  O171  1  0.11739215  0.12021249  0.11849827  1
  O  O172  1  0.11880780  0.12577268  0.61473194  1
  O  O173  1  0.10671076  0.63074016  0.11969149  1
  O  O174  1  0.11680704  0.60853638  0.63204881  1
  O  O175  1  0.61692227  0.11571956  0.12256027  1
  O  O176  1  0.62345711  0.11960742  0.61426482  1
  O  O177  1  0.62169007  0.61994345  0.11955225  1
  O  O178  1  0.61537042  0.61243250  0.63648777  1
  O  O179  1  0.38002381  0.38356677  0.37173834  1
  O  O180  1  0.38440745  0.38549978  0.87168149  1
  O  O181  1  0.37823908  0.88350471  0.38245039  1
  O  O182  1  0.37358119  0.87541539  0.88975366  1
  O  O183  1  0.87455959  0.38664777  0.38622833  1
  O  O184  1  0.88102126  0.38087180  0.88316896  1
  O  O185  1  0.89311947  0.85650433  0.36094036  1
  O  O186  1  0.88451128  0.88677417  0.86875219  1
  O  O187  1  0.25999922  0.00729737  0.37124608  1
  O  O188  1  0.25310537  0.00669784  0.86814946  1
  O  O189  1  0.25996310  0.50383851  0.36369864  1
  O  O190  1  0.25671421  0.50606320  0.87212078  1
  O  O191  1  0.74552093  -0.00742142  0.36043214  1
  O  O192  1  0.76106722  0.00467722  0.85907380  1
  O  O193  1  0.75144096  0.50526609  0.37083352  1
  O  O194  1  0.75954669  0.50340523  0.86913723  1
  O  O195  1  0.25370095  0.49978935  0.13668687  1
  O  O196  1  0.23840863  0.49408371  0.63610170  1
  O  O197  1  0.24705489  0.99638789  0.13034656  1
  O  O198  1  0.24957165  0.99404038  0.63268927  1
  O  O199  1  0.74787133  0.49644893  0.13301167  1
  O  O200  1  0.74452001  0.49137273  0.62796151  1
  O  O201  1  0.74632553  0.98709874  0.12798948  1
  O  O202  1  0.75709268  0.99365315  0.63735031  1
  O  O203  1  -0.00206935  0.36039742  0.24384438  1
  O  O204  1  -0.00154198  0.36541822  0.75961027  1
  O  O205  1  0.00816724  0.87619348  0.24423655  1
  O  O206  1  0.00468419  0.87122319  0.74958067  1
  O  O207  1  0.51579257  0.37607367  0.25036155  1
  O  O208  1  0.50581069  0.36789012  0.76197055  1
  O  O209  1  0.50145433  0.85900168  0.25076754  1
  O  O210  1  0.50786907  0.86439774  0.74464315  1
  O  O211  1  0.50355169  0.12298460  0.24233725  1
  O  O212  1  0.50638648  0.14103698  0.74801687  1
  O  O213  1  0.49114717  0.63290283  0.24586029  1
  O  O214  1  0.48975720  0.62750169  0.74246832  1
  O  O215  1  0.99288979  0.13156039  0.24232618  1
  O  O216  1  0.99651853  0.12915655  0.74460911  1
  O  O217  1  0.99802477  0.63020939  0.23751122  1
  O  O218  1  0.98782029  0.62458463  0.74722877  1
  O  O219  1  0.36410576  0.24736804  0.01048964  1
  O  O220  1  0.36487586  0.25194380  0.50824516  1
  O  O221  1  0.36996662  0.75798848  0.00273073  1
  O  O222  1  0.38516087  0.76525723  0.49547887  1
  O  O223  1  0.86678601  0.25594367  0.00583672  1
  O  O224  1  0.86799104  0.26164791  0.50014233  1
  O  O225  1  0.86872567  0.74845996  0.00883619  1
  O  O226  1  0.86802279  0.74714336  0.49850858  1
  O  O227  1  0.12893282  0.24228831  0.49428514  1
  O  O228  1  0.13919504  0.24058440  1.00536739  1
  O  O229  1  0.12446648  0.75593590  0.48477525  1
  O  O230  1  0.13337861  0.74322188  0.99820122  1
  O  O231  1  0.63335250  0.23796529  0.50226993  1
  O  O232  1  0.63256858  0.25276509  0.99322669  1
  O  O233  1  0.62368881  0.74953565  0.49252934  1
  O  O234  1  0.61767518  0.73946338  0.98826406  1
  O  O235  1  0.48582097  0.24329163  0.12349966  1
  O  O236  1  0.49309075  0.25220513  0.63566455  1
  O  O237  1  0.49691086  0.74242165  0.13220424  1
  O  O238  1  0.50603974  0.73872809  0.63861743  1
  O  O239  1  0.99593731  0.23951113  0.13084769  1
  O  O240  1  0.99819501  0.24144519  0.63220506  1
  O  O241  1  0.98408106  0.74462657  0.11869886  1
  O  O242  1  1.00605946  0.74206572  0.63003998  1
  O  O243  1  0.00866919  0.24428425  0.36551089  1
  O  O244  1  -0.00569952  0.25908646  0.86752695  1
  O  O245  1  0.01072179  0.74286027  0.36696002  1
  O  O246  1  -0.00102111  0.76277684  0.87388721  1
  O  O247  1  0.48113069  0.23948106  0.36084688  1
  O  O248  1  0.50512787  0.25605121  0.87231097  1
  O  O249  1  0.50882251  0.74611757  0.36801103  1
  O  O250  1  0.51070431  0.73952241  0.85976678  1
  O  O251  1  0.24446338  0.13395066  0.49367148  1
  O  O252  1  0.24393644  0.13113332  0.99430132  1
  O  O253  1  0.25926076  0.62635552  0.51028393  1
  O  O254  1  0.24691298  0.63868279  0.99726152  1
  O  O255  1  0.74138164  0.13543364  0.50499612  1
  O  O256  1  0.74714051  0.13811145  1.00005229  1
  O  O257  1  0.75278477  0.63515206  0.49443196  1
  O  O258  1  0.74437934  0.61641037  0.98586415  1
  O  O259  1  0.24594966  0.36102792  -0.00137152  1
  O  O260  1  0.24933372  0.36040596  0.50141244  1
  O  O261  1  0.25406215  0.86536939  0.00281975  1
  O  O262  1  0.26065345  0.88276098  0.50966145  1
  O  O263  1  0.75769474  0.36590863  0.00544846  1
  O  O264  1  0.75516844  0.36806628  0.50548842  1
  O  O265  1  0.74588672  0.87254274  0.01245652  1
  O  O266  1  0.75149080  0.85618354  0.50457346  1
  O  O267  1  0.13319577  0.50356988  0.24699695  1
  O  O268  1  0.13710934  0.50027368  0.75429641  1
  O  O269  1  0.13034025  0.99108915  0.24582165  1
  O  O270  1  0.13358189  0.98861895  0.74766135  1
  O  O271  1  0.63200132  0.49463330  0.24304627  1
  O  O272  1  0.63271530  0.49242551  0.74469984  1
  O  O273  1  0.63774984  0.99668925  0.23968552  1
  O  O274  1  0.63497602  0.99309958  0.74826425  1
  O  O275  1  0.37137465  -0.00738350  0.26239700  1
  O  O276  1  0.36311157  -0.00610369  0.75278164  1
  O  O277  1  0.37115356  0.50840147  0.25432601  1
  O  O278  1  0.36491578  0.50717801  0.75789523  1
  O  O279  1  0.86274076  0.00670633  0.24700942  1
  O  O280  1  0.87298640  0.01430747  0.75706119  1
  O  O281  1  0.86518775  0.49052670  0.26637387  1
  O  O282  1  0.87034316  0.50483099  0.75751186  1
  O  O283  1  0.12799821  0.36258157  0.37225715  1
  O  O284  1  0.10901056  0.38200553  0.87819317  1
  O  O285  1  0.12969941  0.86474750  0.36596734  1
  O  O286  1  0.11392053  0.87641707  0.86689379  1
  O  O287  1  0.62254239  0.37584058  0.36011226  1
  O  O288  1  0.62068360  0.36742375  0.87105593  1
  O  O289  1  0.62378980  0.86089060  0.37135075  1
  O  O290  1  0.62480305  0.86193535  0.86540228  1
  O  O291  1  0.38312704  0.13409632  0.12680048  1
  O  O292  1  0.37996539  0.13917040  0.61854700  1
  O  O293  1  0.38199459  0.63184459  0.13032178  1
  O  O294  1  0.38007032  0.62304856  0.63428307  1
  O  O295  1  0.88221437  0.13020078  0.12946147  1
  O  O296  1  0.88400655  0.12881828  0.63257131  1
  O  O297  1  0.88223993  0.63792444  0.12156096  1
  O  O298  1  0.88475114  0.61506358  0.63554527  1
  O  O299  1  0.25932335  0.24864421  0.11313735  1
  O  O300  1  0.25432665  0.24890191  0.61967238  1
  O  O301  1  0.25633518  0.75528912  0.11711953  1
  O  O302  1  0.24856999  0.76625389  0.63496164  1
  O  O303  1  0.75355479  0.25456546  0.11919453  1
  O  O304  1  0.75271447  0.26360799  0.62165462  1
  O  O305  1  0.76296561  0.76074384  0.13193480  1
  O  O306  1  0.75165245  0.74648666  0.61203652  1
  O  O307  1  0.24469998  0.24493922  0.38176341  1
  O  O308  1  0.25499540  0.24186814  0.88839188  1
  O  O309  1  0.24170072  0.75007634  0.37534670  1
  O  O310  1  0.24747420  0.74514420  0.88230915  1
  O  O311  1  0.75252697  0.25672421  0.38333761  1
  O  O312  1  0.74350983  0.25268958  0.88302013  1
  O  O313  1  0.74408971  0.74036196  0.38585328  1
  O  O314  1  0.73790932  0.73836004  0.87218666  1
  O  O315  1  0.00831344  0.12620499  0.00752274  1
  O  O316  1  0.00673415  0.12387435  0.50658676  1
  O  O317  1  0.00822225  0.63018451  0.00249801  1
  O  O318  1  -0.00436571  0.62463078  0.51527479  1
  O  O319  1  0.50309141  0.12803401  0.01349549  1
  O  O320  1  0.51397609  0.11717039  0.50352166  1
  O  O321  1  0.50544006  0.61769700  0.00331043  1
  O  O322  1  0.49382857  0.61969794  0.51577169  1
  O  O323  1  0.50178476  0.37392594  0.49022669  1
  O  O324  1  0.50518172  0.38036507  0.98739582  1
  O  O325  1  0.49517477  0.88310211  0.49979033  1
  O  O326  1  0.49126798  0.86970459  1.00277616  1
  O  O327  1  0.98612728  0.36891955  0.50345348  1
  O  O328  1  0.98784092  0.36601537  0.99518962  1
  O  O329  1  1.00380795  0.89614954  0.50461268  1
  O  O330  1  1.00488019  0.87959905  0.98922220  1
  O  O331  1  0.48819647  0.50513060  0.37431261  1
  O  O332  1  0.49362991  0.49390067  0.87664323  1
  O  O333  1  0.49598250  0.99769186  0.38303145  1
  O  O334  1  0.50384943  1.00355349  0.87674291  1
  O  O335  1  0.98808727  0.50897196  0.36851424  1
  O  O336  1  0.98621138  0.49233602  0.87190558  1
  O  O337  1  1.00219541  1.00813333  0.38889501  1
  O  O338  1  0.99164203  0.99282720  0.87548201  1
  O  O339  1  0.00269079  0.01151610  0.12317173  1
  O  O340  1  0.00559802  0.01598402  0.61550398  1
  O  O341  1  -0.00654805  0.51900284  0.12677363  1
  O  O342  1  0.01499913  0.50424298  0.62945490  1
  O  O343  1  0.50901965  0.00735591  0.13145033  1
  O  O344  1  0.50074209  0.00156328  0.61245694  1
  O  O345  1  0.50300508  0.50416812  0.11927339  1
  O  O346  1  0.50813107  0.50400260  0.62775398  1
  O  O347  1  0.24450881  0.38727138  0.24619490  1
  O  O348  1  0.24604101  0.38345334  0.75406230  1
  O  O349  1  0.24524093  0.88313668  0.24292071  1
  O  O350  1  0.24463944  0.88301845  0.74587187  1
  O  O351  1  0.74157110  0.38501429  0.24535963  1
  O  O352  1  0.74909134  0.37942836  0.74176235  1
  O  O353  1  0.74959932  0.88626283  0.24184539  1
  O  O354  1  0.74280089  0.88158030  0.74904437  1
  O  O355  1  0.24283995  0.11558230  0.25586661  1
  O  O356  1  0.24242833  0.11553795  0.76257227  1
  O  O357  1  0.26217549  0.62208584  0.24405355  1
  O  O358  1  0.25589000  0.62008048  0.75471848  1
  O  O359  1  0.75786158  0.10888260  0.24323726  1
  O  O360  1  0.75879806  0.12167795  0.74861750  1
  O  O361  1  0.74808957  0.61211297  0.25795794  1
  O  O362  1  0.75961469  0.61916230  0.75880405  1
  O  O363  1  0.37568992  0.12155177  0.36562075  1
  O  O364  1  0.36341769  0.11998243  0.88198685  1
  O  O365  1  0.37045336  0.61921592  0.36585209  1
  O  O366  1  0.36915237  0.61832532  0.86713617  1
  O  O367  1  0.87564601  0.13018076  0.36278749  1
  O  O368  1  0.87415108  0.12092628  0.86704137  1
  O  O369  1  0.86423008  0.60888592  0.37945559  1
  O  O370  1  0.86957603  0.61711906  0.87133867  1
  O  O371  1  0.12755788  0.38076802  0.12781514  1
  O  O372  1  0.12533825  0.38755558  0.63082098  1
  O  O373  1  0.13122212  0.88068525  0.12971534  1
  O  O374  1  0.13293188  0.87939238  0.63082212  1
  O  O375  1  0.63013519  0.38105014  0.13116188  1
  O  O376  1  0.63275091  0.38068684  0.63073684  1
  O  O377  1  0.63612084  0.87722785  0.12839666  1
  O  O378  1  0.62998710  0.87710251  0.63743913  1
  O  O379  1  0.11612370  0.24929245  0.25733425  1
  O  O380  1  0.11294412  0.25109406  0.74820019  1
  O  O381  1  0.13005830  0.76476471  0.25137443  1
  O  O382  1  0.13083294  0.76562126  0.75345530  1
  O  O383  1  0.63201299  0.26469389  0.24426547  1
  O  O384  1  0.62107790  0.25692519  0.75751225  1
  O  O385  1  0.61881596  0.74635069  0.25755020  1
  O  O386  1  0.62058143  0.75613326  0.75539212  1
  O  O387  1  0.36480744  0.24579316  0.23848539  1
  O  O388  1  0.38345609  0.25308906  0.74559788  1
  O  O389  1  0.38146640  0.74373582  0.24596591  1
  O  O390  1  0.38248777  0.73907740  0.75668903  1
  O  O391  1  0.87882030  0.24468417  0.24487527  1
  O  O392  1  0.88341308  0.24072742  0.74868484  1
  O  O393  1  0.88517638  0.75674367  0.24445551  1
  O  O394  1  0.87207495  0.74089828  0.75720064  1
  O  O395  1  0.37845458  0.48972108  0.48964407  1
  O  O396  1  0.37922421  0.50666408  0.98689527  1
  O  O397  1  0.38400386  0.99704134  0.48882421  1
  O  O398  1  0.37032785  0.98246984  1.00075362  1
  O  O399  1  0.87235404  0.48774558  0.48803699  1
  O  O400  1  0.86851733  0.48790951  0.99230579  1
  O  O401  1  0.88520402  1.00439742  0.50023407  1
  O  O402  1  0.87500183  1.00894480  0.98652900  1
  O  O403  1  0.12496839  0.00787280  0.00882322  1
  O  O404  1  0.12583295  0.01428137  0.49830148  1
  O  O405  1  0.13580321  0.51967584  0.00786359  1
  O  O406  1  0.13066386  0.49626563  0.51044566  1
  O  O407  1  0.62765662  -0.00153674  0.01417325  1
  O  O408  1  0.62191681  0.00515338  0.50054634  1
  O  O409  1  0.61978412  0.50430824  0.00563103  1
  O  O410  1  0.62555113  0.49614911  0.51272633  1
  O  O411  1  0.37348980  0.35864568  0.12861450  1
  O  O412  1  0.37087028  0.36214142  0.62499145  1
  O  O413  1  0.37083858  0.86900270  0.11519376  1
  O  O414  1  0.36734423  0.87988325  0.61361796  1
  O  O415  1  0.86977390  0.36995559  0.11888424  1
  O  O416  1  0.86880952  0.37850476  0.61303241  1
  O  O417  1  0.86562898  0.86579955  0.12054737  1
  O  O418  1  0.88575359  0.86187226  0.64488202  1
  O  O419  1  0.13029277  0.13502933  0.38081613  1
  O  O420  1  0.13141237  0.11838939  0.88823930  1
  O  O421  1  0.13495058  0.64411501  0.36777745  1
  O  O422  1  0.12933768  0.62736380  0.88301464  1
  O  O423  1  0.62531762  0.12159430  0.39131565  1
  O  O424  1  0.62959505  0.14027704  0.87705802  1
  O  O425  1  0.63744060  0.62976682  0.37346691  1
  O  O426  1  0.63284064  0.62865433  0.87586892  1
