# generated using pymatgen
data_V85Zn86O256
_symmetry_space_group_name_H-M   'P 1'
_cell_length_a   16.92330455
_cell_length_b   16.93603099
_cell_length_c   16.92527866
_cell_angle_alpha   90.08667256
_cell_angle_beta   90.01024537
_cell_angle_gamma   89.96305294
_symmetry_Int_Tables_number   1
_chemical_formula_structural   V85Zn86O256
_chemical_formula_sum   'V85 Zn86 O256'
_cell_volume   4851.00858323
_cell_formula_units_Z   1
loop_
 _symmetry_equiv_pos_site_id
 _symmetry_equiv_pos_as_xyz
  1  'x, y, z'
loop_
 _atom_site_type_symbol
 _atom_site_label
 _atom_site_symmetry_multiplicity
 _atom_site_fract_x
 _atom_site_fract_y
 _atom_site_fract_z
 _atom_site_occupancy
  V  V0  1  0.13042437  0.49743598  0.12339152  1
  V  V1  1  0.37623632  0.25196595  0.62473920  1
  V  V2  1  0.74658755  0.87437283  0.62268849  1
  V  V3  1  0.86984423  0.37673884  0.49817015  1
  V  V4  1  0.74518203  0.00286354  0.76070917  1
  V  V5  1  0.37676412  0.62170798  0.76172559  1
  V  V6  1  0.49700024  0.49939113  0.48912123  1
  V  V7  1  0.12657631  0.87791916  0.74613079  1
  V  V8  1  0.88163343  0.12747643  0.25249865  1
  V  V9  1  0.12495187  0.00257762  0.12874369  1
  V  V10  1  0.37199225  0.87385001  0.00184927  1
  V  V11  1  0.25308874  0.75220918  0.49524600  1
  V  V12  1  0.86809092  0.75485448  0.12189029  1
  V  V13  1  0.37551873  0.00219900  0.87939198  1
  V  V14  1  0.00081768  0.24090160  0.74455050  1
  V  V15  1  0.62674407  0.62340689  0.49994894  1
  V  V16  1  0.25202543  0.37829941  0.62538441  1
  V  V17  1  0.62685762  0.75257831  0.36902238  1
  V  V18  1  0.88368031  0.88227541  0.50349529  1
  V  V19  1  0.49901596  0.74822610  0.75207520  1
  V  V20  1  0.24533209  0.24816617  0.49842455  1
  V  V21  1  0.37404915  0.37881158  0.48930763  1
  V  V22  1  0.36749860  0.25624363  0.12879505  1
  V  V23  1  -0.00192801  0.00103990  -0.00071422  1
  V  V24  1  0.49927821  0.87341388  0.87731236  1
  V  V25  1  0.63127025  0.74926226  0.87825639  1
  V  V26  1  0.24836245  0.87423710  0.12499956  1
  V  V27  1  0.87463067  0.62504832  0.24773078  1
  V  V28  1  0.11664297  0.87057512  0.25039230  1
  V  V29  1  0.00730735  0.50471008  -0.00166927  1
  V  V30  1  0.73189972  0.88068465  0.12760627  1
  V  V31  1  0.88167380  0.00195117  0.38034158  1
  V  V32  1  0.00294948  0.62220017  0.62046482  1
  V  V33  1  0.00317025  0.87114363  0.87787578  1
  V  V34  1  0.26150724  0.49306651  0.24998201  1
  V  V35  1  0.75004021  0.12831164  0.37686792  1
  V  V36  1  0.75200237  0.62621908  0.87734752  1
  V  V37  1  0.49637105  0.49933151  -0.00337058  1
  V  V38  1  0.23579018  0.62678855  0.87737333  1
  V  V39  1  0.11443839  0.38009032  0.75168875  1
  V  V40  1  0.87997536  0.37484459  -0.00119189  1
  V  V41  1  0.11612678  0.74364676  0.37120650  1
  V  V42  1  0.63151010  0.62569101  0.00205881  1
  V  V43  1  0.49729228  0.62274144  0.12985339  1
  V  V44  1  0.50788184  0.13653172  0.13066412  1
  V  V45  1  0.87652028  0.62464402  0.75063462  1
  V  V46  1  0.49964411  0.75341403  0.24762619  1
  V  V47  1  0.25586445  0.49838212  0.75259977  1
  V  V48  1  0.24608754  0.12824633  0.37125891  1
  V  V49  1  0.63334922  0.24405954  0.87497878  1
  V  V50  1  0.63297519  0.50165918  0.13018052  1
  V  V51  1  0.61534837  0.24965585  0.36933232  1
  V  V52  1  0.23707523  0.74528530  -0.00294837  1
  V  V53  1  0.48751908  -0.00702036  0.50211820  1
  V  V54  1  0.37156804  0.74405754  0.12800304  1
  V  V55  1  0.50286245  0.00062882  0.01286837  1
  V  V56  1  0.37347407  0.75394024  0.62180700  1
  V  V57  1  0.49688253  0.37560821  0.87418983  1
  V  V58  1  0.37182428  -0.00085469  0.37458814  1
  V  V59  1  0.49683098  0.12416055  0.62351648  1
  V  V60  1  0.75413435  0.37698419  0.12908216  1
  V  V61  1  0.11219558  0.25437148  0.37396303  1
  V  V62  1  0.63431926  0.12047728  0.00045008  1
  V  V63  1  0.49122626  0.87163972  0.37734581  1
  V  V64  1  0.12708460  0.12713929  -0.00075376  1
  V  V65  1  0.63125058  0.37007217  0.74807629  1
  V  V66  1  0.62573243  -0.00340741  0.62027454  1
  V  V67  1  0.62286022  0.37182328  0.24738659  1
  V  V68  1  0.00898831  0.74705891  0.75536014  1
  V  V69  1  0.12060449  0.25798887  0.87835638  1
  V  V70  1  0.00074752  0.49356895  0.48866433  1
  V  V71  1  0.37760125  0.12682881  0.75275579  1
  V  V72  1  0.26452724  0.61984007  0.36840266  1
  V  V73  1  0.11179242  0.37365861  0.24880666  1
  V  V74  1  0.74435266  0.25536315  0.50593612  1
  V  V75  1  0.88066242  0.49688753  0.87516273  1
  V  V76  1  0.87565991  0.74864892  0.62513199  1
  V  V77  1  0.75027498  0.75107134  0.49807231  1
  V  V78  1  0.49879396  0.62313589  0.62559575  1
  V  V79  1  0.00966550  0.63389563  0.12829452  1
  V  V80  1  0.62929246  0.49417465  0.62363758  1
  V  V81  1  0.75153015  0.49799851  0.74739723  1
  V  V82  1  0.75098011  0.61641774  0.36807977  1
  V  V83  1  0.24900956  -0.00017347  0.74589097  1
  V  V84  1  0.88267316  0.25113819  0.13089607  1
  Zn  Zn85  1  0.49419563  0.37403728  0.36485027  1
  Zn  Zn86  1  0.87675308  0.48998352  0.36144052  1
  Zn  Zn87  1  0.86871945  0.12854608  0.75709795  1
  Zn  Zn88  1  0.24794150  0.26226008  0.00186042  1
  Zn  Zn89  1  0.37027656  0.37701357  -0.00132594  1
  Zn  Zn90  1  0.12565803  0.49877925  0.62083733  1
  Zn  Zn91  1  0.00022631  0.87507577  0.37687199  1
  Zn  Zn92  1  0.87045332  0.00440537  0.87951521  1
  Zn  Zn93  1  0.06220099  0.06062185  0.56545154  1
  Zn  Zn94  1  0.12784382  0.61990258  0.49506766  1
  Zn  Zn95  1  0.24718023  0.87972111  0.61381614  1
  Zn  Zn96  1  0.50419942  0.24930101  0.75079405  1
  Zn  Zn97  1  0.62351261  0.87140411  0.75051060  1
  Zn  Zn98  1  0.74314177  -0.00366709  0.25028867  1
  Zn  Zn99  1  0.25061924  0.12840733  0.87780099  1
  Zn  Zn100  1  0.62147513  0.12474276  0.49692950  1
  Zn  Zn101  1  0.00303078  0.13108720  0.12999911  1
  Zn  Zn102  1  0.75790696  0.24292905  -0.00293118  1
  Zn  Zn103  1  0.25100636  0.00043602  0.25009562  1
  Zn  Zn104  1  0.86912593  0.86989145  -0.00237959  1
  Zn  Zn105  1  0.38150068  0.13005395  0.25179267  1
  Zn  Zn106  1  0.87425390  0.25339022  0.62558357  1
  Zn  Zn107  1  0.18765922  0.18992484  0.19075422  1
  Zn  Zn108  1  0.18727543  0.19103102  0.69149135  1
  Zn  Zn109  1  0.18964527  0.68455205  0.19168180  1
  Zn  Zn110  1  0.18782225  0.68717441  0.68613377  1
  Zn  Zn111  1  0.69458826  0.18940118  0.18770168  1
  Zn  Zn112  1  0.69562653  0.17920480  0.68125598  1
  Zn  Zn113  1  0.69050629  0.69215657  0.18798771  1
  Zn  Zn114  1  0.68694889  0.68578039  0.68877711  1
  Zn  Zn115  1  0.30994651  0.31255869  0.30667888  1
  Zn  Zn116  1  0.31003834  0.31190389  0.81660339  1
  Zn  Zn117  1  0.30889689  0.81108811  0.30920010  1
  Zn  Zn118  1  0.31100159  0.81037104  0.81326387  1
  Zn  Zn119  1  0.81015727  0.31269908  0.31359547  1
  Zn  Zn120  1  0.81367263  0.31490597  0.81495762  1
  Zn  Zn121  1  0.81700570  0.81131034  0.30835665  1
  Zn  Zn122  1  0.81544371  0.81615165  0.81187936  1
  Zn  Zn123  1  0.18678275  0.43632533  0.43245013  1
  Zn  Zn124  1  0.19141175  0.43984810  0.93469409  1
  Zn  Zn125  1  0.18551619  0.93428911  0.43458135  1
  Zn  Zn126  1  0.18489995  0.93642884  0.93443986  1
  Zn  Zn127  1  0.68695845  0.43551786  0.43359021  1
  Zn  Zn128  1  0.68930525  0.43606577  0.93878466  1
  Zn  Zn129  1  0.66983170  0.95311363  0.40870499  1
  Zn  Zn130  1  0.68536729  0.93067241  0.94713121  1
  Zn  Zn131  1  0.31343420  0.06935791  0.06595329  1
  Zn  Zn132  1  0.22447273  0.06249161  0.56261201  1
  Zn  Zn133  1  0.31109515  0.55977351  0.06099847  1
  Zn  Zn134  1  0.31392868  0.56616975  0.56269115  1
  Zn  Zn135  1  0.81345971  0.05752791  0.06964136  1
  Zn  Zn136  1  0.89823473  0.07348482  0.57918366  1
  Zn  Zn137  1  0.81584987  0.56403165  0.06342799  1
  Zn  Zn138  1  0.81353097  0.56045159  0.55927227  1
  Zn  Zn139  1  0.44164950  0.43606161  0.18313124  1
  Zn  Zn140  1  0.44116016  0.43753570  0.68563805  1
  Zn  Zn141  1  0.43775410  0.93568901  0.19073981  1
  Zn  Zn142  1  0.43449215  0.93570634  0.68977919  1
  Zn  Zn143  1  0.93952241  0.44411065  0.18451839  1
  Zn  Zn144  1  0.93539938  0.43541924  0.67874675  1
  Zn  Zn145  1  0.93607420  0.94127856  0.19122654  1
  Zn  Zn146  1  0.93514859  0.93487889  0.69306075  1
  Zn  Zn147  1  0.06233252  0.06409138  0.31777461  1
  Zn  Zn148  1  0.06248064  0.06223126  0.81343716  1
  Zn  Zn149  1  0.06491050  0.56281669  0.30796506  1
  Zn  Zn150  1  0.06318096  0.55988371  0.81071802  1
  Zn  Zn151  1  0.56557629  0.05910995  0.30757933  1
  Zn  Zn152  1  0.56403419  0.05988709  0.81456282  1
  Zn  Zn153  1  0.56419064  0.56415093  0.30856687  1
  Zn  Zn154  1  0.56399234  0.55996030  0.81318269  1
  Zn  Zn155  1  0.43412228  0.18578538  0.43929383  1
  Zn  Zn156  1  0.44298218  0.19080209  0.94242590  1
  Zn  Zn157  1  0.43719561  0.68486730  0.43754848  1
  Zn  Zn158  1  0.43801550  0.68635014  0.94231929  1
  Zn  Zn159  1  0.93783194  0.19101071  0.44046822  1
  Zn  Zn160  1  0.93936119  0.18583969  0.93230009  1
  Zn  Zn161  1  0.93567184  0.68527037  0.43764455  1
  Zn  Zn162  1  0.94125199  0.68564914  0.94142896  1
  Zn  Zn163  1  0.06223547  0.31779191  0.06355956  1
  Zn  Zn164  1  0.06173484  0.31333367  0.56202968  1
  Zn  Zn165  1  0.06045511  0.81357611  0.06396713  1
  Zn  Zn166  1  0.06670593  0.81029359  0.56225335  1
  Zn  Zn167  1  0.56569414  0.31120883  0.05880749  1
  Zn  Zn168  1  0.56156687  0.31333821  0.56039978  1
  Zn  Zn169  1  0.56169736  0.80965729  0.06003384  1
  Zn  Zn170  1  0.55993262  0.81092550  0.55792889  1
  O  O171  1  0.12388945  0.11958606  0.12141891  1
  O  O172  1  0.14513644  0.12276938  0.61792067  1
  O  O173  1  0.11497924  0.61910212  0.13012083  1
  O  O174  1  0.11337115  0.62325083  0.62242676  1
  O  O175  1  0.61559124  0.13150514  0.11887374  1
  O  O176  1  0.61277838  0.11429497  0.62403860  1
  O  O177  1  0.62256765  0.62071021  0.11928075  1
  O  O178  1  0.61845162  0.61826456  0.61991171  1
  O  O179  1  0.37579286  0.37076063  0.38520205  1
  O  O180  1  0.39308704  0.36858261  0.87336708  1
  O  O181  1  0.38308996  0.87919330  0.37033275  1
  O  O182  1  0.37910608  0.88102014  0.88223424  1
  O  O183  1  0.87100496  0.37672620  0.38766755  1
  O  O184  1  0.87189994  0.38926826  0.88360693  1
  O  O185  1  0.87489837  0.88199060  0.38418195  1
  O  O186  1  0.88679965  0.87919859  0.87844278  1
  O  O187  1  0.25666147  0.00911628  0.37486641  1
  O  O188  1  0.26256710  0.00097850  0.87024493  1
  O  O189  1  0.24817437  0.50973939  0.36329418  1
  O  O190  1  0.24905646  0.51418017  0.86267224  1
  O  O191  1  0.76597500  0.01550031  0.38472625  1
  O  O192  1  0.74467906  -0.01614866  0.86252077  1
  O  O193  1  0.75107638  0.51391348  0.37690228  1
  O  O194  1  0.75724328  0.50643201  0.86906730  1
  O  O195  1  0.23894903  0.51115887  0.13714824  1
  O  O196  1  0.24920296  0.49806812  0.63507187  1
  O  O197  1  0.23901896  0.99634317  0.12389252  1
  O  O198  1  0.27078720  0.99226017  0.64378805  1
  O  O199  1  0.74342842  0.49223659  0.11838547  1
  O  O200  1  0.73703791  0.50744587  0.62979892  1
  O  O201  1  0.74742782  0.98617103  0.13137731  1
  O  O202  1  0.73258069  0.99016583  0.63393424  1
  O  O203  1  0.01261572  0.38241176  0.25033393  1
  O  O204  1  0.01198656  0.37648554  0.74568929  1
  O  O205  1  0.01278008  0.87840439  0.25266997  1
  O  O206  1  0.00498136  0.86627404  0.75682945  1
  O  O207  1  0.51653849  0.38062708  0.24865391  1
  O  O208  1  0.51268485  0.37516240  0.75651621  1
  O  O209  1  0.49713047  0.86071874  0.25714952  1
  O  O210  1  0.49960338  0.86619597  0.75927433  1
  O  O211  1  0.50252612  0.11854346  0.23405293  1
  O  O212  1  0.49162369  0.12329501  0.74522806  1
  O  O213  1  0.50309012  0.63310597  0.23686248  1
  O  O214  1  0.49412194  0.62736044  0.74719253  1
  O  O215  1  0.98632362  0.12133328  0.24955965  1
  O  O216  1  1.00254481  0.13919418  0.75020021  1
  O  O217  1  0.99462464  0.62203897  0.23445066  1
  O  O218  1  0.99603254  0.62950224  0.74350515  1
  O  O219  1  0.37355962  0.24937923  0.01205100  1
  O  O220  1  0.36884630  0.25963824  0.50545185  1
  O  O221  1  0.36993785  0.75508538  0.01022772  1
  O  O222  1  0.36748069  0.73975092  0.51032853  1
  O  O223  1  0.87762680  0.25988025  0.00348186  1
  O  O224  1  0.86218136  0.26151848  0.49901005  1
  O  O225  1  0.87862677  0.74833149  0.01665507  1
  O  O226  1  0.86739688  0.75465135  0.50579327  1
  O  O227  1  0.13393786  0.26246263  0.48510318  1
  O  O228  1  0.12286698  0.24554575  0.99497990  1
  O  O229  1  0.13475202  0.74484336  0.49005746  1
  O  O230  1  0.13799307  0.75149033  1.00500361  1
  O  O231  1  0.62859057  0.25243277  0.48885606  1
  O  O232  1  0.63012154  0.24018921  0.99273427  1
  O  O233  1  0.63004687  0.73968175  0.49461884  1
  O  O234  1  0.61979342  0.73787899  0.99050068  1
  O  O235  1  0.49629943  0.23896029  0.12116903  1
  O  O236  1  0.49632738  0.24069200  0.62639626  1
  O  O237  1  0.49371493  0.74375053  0.12963004  1
  O  O238  1  0.49424370  0.74278413  0.63036973  1
  O  O239  1  0.98719637  0.25099574  0.12244245  1
  O  O240  1  1.00024757  0.25572406  0.64104796  1
  O  O241  1  0.99562905  0.73686203  0.12174113  1
  O  O242  1  0.99564546  0.74127590  0.63120685  1
  O  O243  1  0.01386264  0.24997075  0.37632749  1
  O  O244  1  0.01356872  0.25118995  0.86473804  1
  O  O245  1  0.01295886  0.74860064  0.37824949  1
  O  O246  1  -0.00508244  0.75543901  0.86672733  1
  O  O247  1  0.51117142  0.25078668  0.37902245  1
  O  O248  1  0.51357494  0.25776976  0.87379872  1
  O  O249  1  0.50145351  0.75129489  0.36674657  1
  O  O250  1  0.50742665  0.75191375  0.87220681  1
  O  O251  1  0.26057881  0.14278687  0.48598000  1
  O  O252  1  0.23637098  0.12625672  0.99944076  1
  O  O253  1  0.24961712  0.62744093  0.48593113  1
  O  O254  1  0.25463554  0.62834948  0.98443962  1
  O  O255  1  0.74402215  0.14136606  0.48557546  1
  O  O256  1  0.73795555  0.12038226  1.00722625  1
  O  O257  1  0.74681619  0.63167805  0.49190152  1
  O  O258  1  0.73888357  0.62011058  0.99504631  1
  O  O259  1  0.25688154  0.37647171  -0.00380201  1
  O  O260  1  0.25713293  0.37092303  0.50315842  1
  O  O261  1  0.25285329  0.86685040  0.00379891  1
  O  O262  1  0.25231645  0.85617630  0.49628279  1
  O  O263  1  0.76345999  0.37658243  0.00931644  1
  O  O264  1  0.75778811  0.37014650  0.49566166  1
  O  O265  1  0.75401900  0.87661017  0.01963992  1
  O  O266  1  0.75428338  0.86832139  0.51266787  1
  O  O267  1  0.13108902  0.49041059  0.24402327  1
  O  O268  1  0.13384371  0.49410954  0.74670212  1
  O  O269  1  0.12652191  0.99509223  0.24343933  1
  O  O270  1  0.13758230  0.99230610  0.75657442  1
  O  O271  1  0.62536021  0.49639242  0.23577896  1
  O  O272  1  0.63017678  0.49343405  0.74207327  1
  O  O273  1  0.64087543  0.98054687  0.29777961  1
  O  O274  1  0.62698894  0.99172405  0.74257479  1
  O  O275  1  0.37393901  0.00128939  0.26242003  1
  O  O276  1  0.37382437  0.00648103  0.76184661  1
  O  O277  1  0.36081564  0.49316771  0.24184757  1
  O  O278  1  0.36809767  0.50851795  0.74452635  1
  O  O279  1  0.86962001  0.00794201  0.26028696  1
  O  O280  1  0.85190597  -0.00398597  0.75175067  1
  O  O281  1  0.87683114  0.51643568  0.24706898  1
  O  O282  1  0.87336700  0.50315154  0.75586271  1
  O  O283  1  0.12724204  0.36458634  0.36272625  1
  O  O284  1  0.12842035  0.37027724  0.86348169  1
  O  O285  1  0.12441969  0.86456978  0.36665891  1
  O  O286  1  0.11242361  0.87578590  0.86464787  1
  O  O287  1  0.62410845  0.36909167  0.36345481  1
  O  O288  1  0.62027697  0.36868983  0.86799005  1
  O  O289  1  0.60819291  0.85485912  0.38920766  1
  O  O290  1  0.61763295  0.86362420  0.87766468  1
  O  O291  1  0.38807218  0.13483237  0.12715307  1
  O  O292  1  0.38782440  0.13006250  0.63513293  1
  O  O293  1  0.38566843  0.63220519  0.11731860  1
  O  O294  1  0.38078846  0.63247615  0.63580282  1
  O  O295  1  0.87527357  0.13326965  0.13396331  1
  O  O296  1  0.84266898  0.14503868  0.64697059  1
  O  O297  1  0.88202954  0.63390509  0.12861432  1
  O  O298  1  0.88429733  0.62785522  0.62920958  1
  O  O299  1  0.26394304  0.24503542  0.12280198  1
  O  O300  1  0.25661967  0.25865469  0.61665241  1
  O  O301  1  0.25610276  0.74985500  0.11861337  1
  O  O302  1  0.25685733  0.74564822  0.61415574  1
  O  O303  1  0.76228278  0.25913063  0.11899312  1
  O  O304  1  0.73550263  0.25647689  0.60759637  1
  O  O305  1  0.76204221  0.75827586  0.12461687  1
  O  O306  1  0.75385845  0.75411702  0.62110809  1
  O  O307  1  0.24483824  0.24603655  0.37956650  1
  O  O308  1  0.23561397  0.24709418  0.87559784  1
  O  O309  1  0.24719796  0.73720800  0.37711315  1
  O  O310  1  0.25485825  0.73622384  0.88240770  1
  O  O311  1  0.73820390  0.24725003  0.37977954  1
  O  O312  1  0.73845668  0.25496771  0.87852156  1
  O  O313  1  0.74209146  0.74643371  0.37755255  1
  O  O314  1  0.73886583  0.74522195  0.86852001  1
  O  O315  1  0.01118246  0.11787599  0.00373853  1
  O  O316  1  -0.02035708  0.12194431  0.51357517  1
  O  O317  1  -0.00240498  0.61464223  0.01433842  1
  O  O318  1  0.00026558  0.61753190  0.50722409  1
  O  O319  1  0.50783969  0.11813281  0.01215625  1
  O  O320  1  0.49905190  0.11569525  0.50891700  1
  O  O321  1  0.51082293  0.61912225  0.00828939  1
  O  O322  1  0.50568238  0.61726459  0.50419830  1
  O  O323  1  0.49152040  0.38347719  0.49717090  1
  O  O324  1  0.50332628  0.38305495  0.99136164  1
  O  O325  1  0.49479208  0.87976307  0.49231052  1
  O  O326  1  0.49321360  0.88247242  0.99794291  1
  O  O327  1  0.98864875  0.38341585  0.50186009  1
  O  O328  1  0.98774072  0.38905618  1.00698907  1
  O  O329  1  0.98714659  0.86620549  0.50030201  1
  O  O330  1  1.00218718  0.88222203  0.99266742  1
  O  O331  1  0.50600158  0.49972593  0.38565686  1
  O  O332  1  0.50936858  0.49007564  0.88493574  1
  O  O333  1  0.49288905  0.98912261  0.38151793  1
  O  O334  1  0.48980462  0.99469959  0.88371195  1
  O  O335  1  0.99613546  0.50966265  0.38560997  1
  O  O336  1  0.99260782  0.50814566  0.88456141  1
  O  O337  1  0.98704700  0.99861690  0.37632010  1
  O  O338  1  1.00067237  0.99160619  0.88386932  1
  O  O339  1  0.01169000  0.00089942  0.11899301  1
  O  O340  1  -0.01912755  0.00838997  0.62737211  1
  O  O341  1  0.01132953  0.50971504  0.11867377  1
  O  O342  1  0.00063136  0.50804223  0.61415147  1
  O  O343  1  0.49424581  0.00722938  0.11678870  1
  O  O344  1  0.50326923  0.00128183  0.61964250  1
  O  O345  1  0.50982309  0.50778638  0.11938021  1
  O  O346  1  0.51058757  0.50553030  0.61751362  1
  O  O347  1  0.24111173  0.38992398  0.25365773  1
  O  O348  1  0.24726641  0.38412259  0.74691105  1
  O  O349  1  0.23997463  0.87774220  0.24161276  1
  O  O350  1  0.24182290  0.88110416  0.75451771  1
  O  O351  1  0.74234502  0.37441388  0.23631555  1
  O  O352  1  0.73902297  0.38160377  0.75322405  1
  O  O353  1  0.75820832  0.87214442  0.23108390  1
  O  O354  1  0.74571718  0.87588886  0.73691830  1
  O  O355  1  0.25424803  0.12402916  0.26076337  1
  O  O356  1  0.26385834  0.11835907  0.75481415  1
  O  O357  1  0.24920041  0.61330064  0.26108309  1
  O  O358  1  0.25655285  0.62187379  0.75876199  1
  O  O359  1  0.75806632  0.12405293  0.26117659  1
  O  O360  1  0.73381857  0.10428122  0.75906152  1
  O  O361  1  0.75836016  0.63037778  0.25746086  1
  O  O362  1  0.75750610  0.61864278  0.75585484  1
  O  O363  1  0.36963991  0.11752340  0.37119256  1
  O  O364  1  0.37804422  0.11914837  0.87124227  1
  O  O365  1  0.36353744  0.62480341  0.37200916  1
  O  O366  1  0.37330963  0.62757958  0.86462643  1
  O  O367  1  0.86926130  0.12349776  0.36981505  1
  O  O368  1  0.87689947  0.11815096  0.86966277  1
  O  O369  1  0.86658782  0.62812743  0.36470912  1
  O  O370  1  0.87121840  0.61696488  0.87190178  1
  O  O371  1  0.12373207  0.38308559  0.13734138  1
  O  O372  1  0.13512905  0.37582599  0.63371952  1
  O  O373  1  0.12883275  0.88176785  0.13078073  1
  O  O374  1  0.12958443  0.86707403  0.64068305  1
  O  O375  1  0.63335986  0.38103665  0.12681787  1
  O  O376  1  0.61825799  0.38454103  0.63395403  1
  O  O377  1  0.63272280  0.86936556  0.12600563  1
  O  O378  1  0.62873959  0.87808932  0.62410240  1
  O  O379  1  0.12828118  0.26489360  0.25688872  1
  O  O380  1  0.11696345  0.25903879  0.75596182  1
  O  O381  1  0.13087798  0.75786261  0.25875592  1
  O  O382  1  0.11366391  0.75337912  0.74900628  1
  O  O383  1  0.63015320  0.25943670  0.25602949  1
  O  O384  1  0.62759821  0.25466954  0.75428215  1
  O  O385  1  0.61475669  0.74481788  0.25858969  1
  O  O386  1  0.61583207  0.74726766  0.75898934  1
  O  O387  1  0.37583907  0.24958525  0.23556471  1
  O  O388  1  0.37713354  0.24206275  0.74553070  1
  O  O389  1  0.37995599  0.75185602  0.23544899  1
  O  O390  1  0.38067452  0.74095595  0.74615761  1
  O  O391  1  0.86938117  0.24219343  0.24262297  1
  O  O392  1  0.89432886  0.26032364  0.75549087  1
  O  O393  1  0.87653341  0.73867486  0.23547184  1
  O  O394  1  0.88425574  0.74386203  0.74415760  1
  O  O395  1  0.38542613  0.49186569  0.50678319  1
  O  O396  1  0.39237367  0.49919102  1.00611182  1
  O  O397  1  0.38518703  1.00118674  0.48728597  1
  O  O398  1  0.37963641  0.99698374  0.99604951  1
  O  O399  1  0.87941847  0.49058340  0.49602813  1
  O  O400  1  0.88290658  0.49677384  0.99317114  1
  O  O401  1  0.86729691  0.98676918  0.49660574  1
  O  O402  1  0.88913765  0.99724623  1.00457521  1
  O  O403  1  0.11809855  0.00619475  0.00608517  1
  O  O404  1  0.14410495  -0.00309967  0.51400717  1
  O  O405  1  0.11764076  0.49478821  0.00901339  1
  O  O406  1  0.11646586  0.49853022  0.50015849  1
  O  O407  1  0.61241221  0.00705651  -0.00562446  1
  O  O408  1  0.61255654  0.00029334  0.50573975  1
  O  O409  1  0.61884582  0.50584475  0.00896327  1
  O  O410  1  0.61992821  0.50270732  0.50595363  1
  O  O411  1  0.38578784  0.35844330  0.12042518  1
  O  O412  1  0.37121753  0.37037664  0.61831535  1
  O  O413  1  0.36769974  0.86856636  0.12048079  1
  O  O414  1  0.37155829  0.85717784  0.63306648  1
  O  O415  1  0.87095673  0.37197070  0.12164430  1
  O  O416  1  0.87271534  0.37151451  0.60746088  1
  O  O417  1  0.88425166  0.85999113  0.12462395  1
  O  O418  1  0.86609506  0.86718399  0.62031576  1
  O  O419  1  0.13279673  0.14160353  0.36813166  1
  O  O420  1  0.12594082  0.13300524  0.88402026  1
  O  O421  1  0.13389106  0.63117661  0.37272155  1
  O  O422  1  0.13725836  0.62706712  0.87052532  1
  O  O423  1  0.63053900  0.13461376  0.37451836  1
  O  O424  1  0.61691090  0.13308975  0.88668275  1
  O  O425  1  0.63144309  0.63265512  0.37854959  1
  O  O426  1  0.63027904  0.62941779  0.88229043  1
