# generated using pymatgen
data_V85Zn86O256
_symmetry_space_group_name_H-M   'P 1'
_cell_length_a   16.96486044
_cell_length_b   16.94197537
_cell_length_c   16.95331522
_cell_angle_alpha   89.98654710
_cell_angle_beta   89.91751572
_cell_angle_gamma   89.95456141
_symmetry_Int_Tables_number   1
_chemical_formula_structural   V85Zn86O256
_chemical_formula_sum   'V85 Zn86 O256'
_cell_volume   4872.68543965
_cell_formula_units_Z   1
loop_
 _symmetry_equiv_pos_site_id
 _symmetry_equiv_pos_as_xyz
  1  'x, y, z'
loop_
 _atom_site_type_symbol
 _atom_site_label
 _atom_site_symmetry_multiplicity
 _atom_site_fract_x
 _atom_site_fract_y
 _atom_site_fract_z
 _atom_site_occupancy
  V  V0  1  0.62782749  0.13185917  0.48902629  1
  V  V1  1  0.50167631  0.87222776  0.37627339  1
  V  V2  1  0.75142131  0.36703532  0.12873304  1
  V  V3  1  -0.00445704  0.25325892  0.74671472  1
  V  V4  1  -0.00704904  0.12832295  0.11771029  1
  V  V5  1  0.89196711  0.00278021  0.86944696  1
  V  V6  1  0.25035761  0.00437424  0.74928919  1
  V  V7  1  0.13262930  -0.00117342  0.11547671  1
  V  V8  1  0.25409541  0.74846029  0.00668364  1
  V  V9  1  0.38055644  0.62612088  0.74657851  1
  V  V10  1  0.12132533  0.38247998  0.73997014  1
  V  V11  1  0.80069598  0.93343580  0.18431950  1
  V  V12  1  0.62556805  0.00323731  0.62251643  1
  V  V13  1  0.37630647  0.12746300  0.24367856  1
  V  V14  1  -0.00153796  0.75301784  0.75331766  1
  V  V15  1  0.24896506  0.87496786  0.62666127  1
  V  V16  1  -0.00360085  0.00448174  0.50902995  1
  V  V17  1  0.37745224  0.37032313  0.00063480  1
  V  V18  1  0.50185673  0.00235163  0.49828618  1
  V  V19  1  0.75993402  0.11352297  0.37122234  1
  V  V20  1  0.75134981  0.62504549  0.87563600  1
  V  V21  1  0.86983364  0.88189798  0.48896696  1
  V  V22  1  0.87298515  0.62470936  0.75012434  1
  V  V23  1  0.49986756  0.74903245  0.74710846  1
  V  V24  1  0.50088157  0.13359944  0.12226596  1
  V  V25  1  -0.01375104  0.24997293  0.24813204  1
  V  V26  1  0.38002700  0.00355322  0.36634448  1
  V  V27  1  0.50034843  0.25254706  0.25714921  1
  V  V28  1  0.11992104  0.87751039  0.74837937  1
  V  V29  1  0.86136409  0.61811836  0.25833872  1
  V  V30  1  0.37493867  0.87146687  0.00413084  1
  V  V31  1  0.37906000  0.74806563  0.61940380  1
  V  V32  1  0.63009049  0.49860714  0.12962243  1
  V  V33  1  0.12707591  0.36173523  0.25621953  1
  V  V34  1  0.50013394  0.00074406  -0.00047483  1
  V  V35  1  0.11969514  0.75602442  0.87865790  1
  V  V36  1  0.74989139  0.26183711  0.49347931  1
  V  V37  1  0.00138223  0.36930864  0.38037952  1
  V  V38  1  0.49393194  0.62537345  0.12379208  1
  V  V39  1  0.26467483  0.37320881  0.62615400  1
  V  V40  1  0.25260172  0.49784829  0.24955498  1
  V  V41  1  0.86795437  0.26286953  0.61858660  1
  V  V42  1  0.62027294  0.49457032  0.62658464  1
  V  V43  1  0.37198685  0.00585162  0.87401155  1
  V  V44  1  0.12553998  0.62736087  0.49688087  1
  V  V45  1  0.12510780  0.12620677  -0.01185668  1
  V  V46  1  0.74546422  0.01037096  0.75978741  1
  V  V47  1  0.75073223  0.75715514  0.00285346  1
  V  V48  1  0.24794514  0.87427661  0.13350340  1
  V  V49  1  0.20334224  0.04639609  0.29133294  1
  V  V50  1  0.01237678  0.87839841  0.37501394  1
  V  V51  1  0.49124164  0.74907764  0.24526608  1
  V  V52  1  0.12540938  0.49493587  0.12605577  1
  V  V53  1  0.74760150  0.48728092  0.74395180  1
  V  V54  1  0.51118819  0.37516934  0.87427326  1
  V  V55  1  0.37655688  0.49958060  0.87531270  1
  V  V56  1  0.49892567  0.87512221  0.87406741  1
  V  V57  1  0.62528996  0.73533084  0.37363996  1
  V  V58  1  0.25409838  0.36741074  0.12388657  1
  V  V59  1  0.25064025  0.62595171  0.87628646  1
  V  V60  1  0.12474043  0.62333007  0.00207066  1
  V  V61  1  0.62512207  -0.00279836  0.12496641  1
  V  V62  1  0.87034783  0.74561263  0.12835697  1
  V  V63  1  0.62553704  0.75000186  0.87444663  1
  V  V64  1  0.00432114  0.49319287  0.50196893  1
  V  V65  1  0.25525082  0.24386022  -0.00591337  1
  V  V66  1  0.62622295  0.62360340  0.00150750  1
  V  V67  1  -0.00002615  0.62375224  0.13408024  1
  V  V68  1  0.37080826  0.13340651  0.74889433  1
  V  V69  1  0.00713568  0.62107599  0.62561946  1
  V  V70  1  -0.00480777  0.49860332  0.00266033  1
  V  V71  1  0.49648234  0.13426880  0.62083230  1
  V  V72  1  0.50365600  0.25599873  0.74646205  1
  V  V73  1  0.86627662  0.49552815  0.37972526  1
  V  V74  1  0.62747656  0.37417370  0.25999634  1
  V  V75  1  0.74959819  0.73789995  0.49752499  1
  V  V76  1  0.24393367  0.50489372  0.74580625  1
  V  V77  1  0.62386325  0.87552325  0.74783791  1
  V  V78  1  0.63337730  0.24185201  0.87219560  1
  V  V79  1  0.12731562  0.25438362  0.87127580  1
  V  V80  1  0.87628173  0.36345414  0.00487905  1
  V  V81  1  0.62470510  0.87769447  0.24828063  1
  V  V82  1  0.37234774  0.49147902  0.38452000  1
  V  V83  1  0.87485370  0.75082186  0.62375040  1
  V  V84  1  0.74906129  0.87721359  0.62341851  1
  Zn  Zn85  1  0.87267389  0.49933169  0.87807966  1
  Zn  Zn86  1  0.17175838  0.16753484  0.43478960  1
  Zn  Zn87  1  0.13171305  0.75467092  0.36731324  1
  Zn  Zn88  1  0.00272919  0.75322811  0.25444796  1
  Zn  Zn89  1  0.37090580  0.62479825  0.24733157  1
  Zn  Zn90  1  0.86457315  0.13319916  0.75003657  1
  Zn  Zn91  1  0.75417542  0.24470779  -0.00041569  1
  Zn  Zn92  1  0.63051278  0.12161075  -0.00536794  1
  Zn  Zn93  1  0.00008818  0.37820733  0.87686283  1
  Zn  Zn94  1  0.88248891  0.87084342  -0.01426040  1
  Zn  Zn95  1  0.16147929  0.05488669  0.58580036  1
  Zn  Zn96  1  0.37335510  0.87820417  0.50043768  1
  Zn  Zn97  1  0.24751238  0.75325849  0.49783370  1
  Zn  Zn98  1  0.50220066  0.49866123  0.00022894  1
  Zn  Zn99  1  0.86567705  0.12160406  0.24124640  1
  Zn  Zn100  1  0.00770259  -0.01044250  -0.00974210  1
  Zn  Zn101  1  -0.00281378  0.12960161  0.62212522  1
  Zn  Zn102  1  0.49240388  0.49990594  0.51088061  1
  Zn  Zn103  1  0.24877372  0.62734321  0.37142280  1
  Zn  Zn104  1  0.61064298  0.62713360  0.51510103  1
  Zn  Zn105  1  0.49553360  0.37147457  0.38739916  1
  Zn  Zn106  1  0.25890557  0.26727288  0.49811699  1
  Zn  Zn107  1  0.18060825  0.19141127  0.17705118  1
  Zn  Zn108  1  0.18281802  0.19676293  0.67747354  1
  Zn  Zn109  1  0.18406325  0.68949041  0.19130851  1
  Zn  Zn110  1  0.18841918  0.69136645  0.68675812  1
  Zn  Zn111  1  0.68464889  0.18844404  0.18978797  1
  Zn  Zn112  1  0.68326477  0.19500693  0.68085206  1
  Zn  Zn113  1  0.68442655  0.68802249  0.18836449  1
  Zn  Zn114  1  0.68822853  0.68557390  0.68546322  1
  Zn  Zn115  1  0.30705625  0.30121800  0.31889821  1
  Zn  Zn116  1  0.31283194  0.31490509  0.81147453  1
  Zn  Zn117  1  0.31316604  0.81276217  0.31619548  1
  Zn  Zn118  1  0.31104729  0.81276640  0.81488456  1
  Zn  Zn119  1  0.80938424  0.31420079  0.31748541  1
  Zn  Zn120  1  0.81751746  0.31630467  0.81718822  1
  Zn  Zn121  1  0.81425522  0.80063624  0.31757779  1
  Zn  Zn122  1  0.81128781  0.81725397  0.81165127  1
  Zn  Zn123  1  0.18525297  0.43740824  0.43939840  1
  Zn  Zn124  1  0.18765839  0.43609268  0.93502114  1
  Zn  Zn125  1  0.19500004  0.95894449  0.45130811  1
  Zn  Zn126  1  0.19119034  0.93566722  0.93452675  1
  Zn  Zn127  1  0.68190171  0.44185874  0.44146425  1
  Zn  Zn128  1  0.69164776  0.43742386  0.93967928  1
  Zn  Zn129  1  0.68651488  0.93680991  0.43534650  1
  Zn  Zn130  1  0.68840083  0.93599216  0.93897302  1
  Zn  Zn131  1  0.31389916  0.06388578  0.06241057  1
  Zn  Zn132  1  0.32777584  0.09724266  0.53397325  1
  Zn  Zn133  1  0.31382138  0.55722315  0.06328283  1
  Zn  Zn134  1  0.30949124  0.56306205  0.56565098  1
  Zn  Zn135  1  0.81674151  0.06706938  0.04465070  1
  Zn  Zn136  1  0.81311187  0.06990285  0.56705335  1
  Zn  Zn137  1  0.81021139  0.55976832  0.06607825  1
  Zn  Zn138  1  0.81597277  0.55720489  0.56366058  1
  Zn  Zn139  1  0.43975699  0.43596416  0.18583268  1
  Zn  Zn140  1  0.44021986  0.44007777  0.69175029  1
  Zn  Zn141  1  0.43830315  0.93844636  0.18490878  1
  Zn  Zn142  1  0.43617980  0.94037040  0.68421845  1
  Zn  Zn143  1  0.93409531  0.43549337  0.19194892  1
  Zn  Zn144  1  0.93427009  0.43869523  0.68593543  1
  Zn  Zn145  1  0.96351396  0.93348620  0.17886004  1
  Zn  Zn146  1  0.93157444  0.93610024  0.68923559  1
  Zn  Zn147  1  0.03154433  0.05504704  0.31137513  1
  Zn  Zn148  1  0.07312866  0.07569598  0.78819500  1
  Zn  Zn149  1  0.06442933  0.55634289  0.31564163  1
  Zn  Zn150  1  0.06122005  0.56557687  0.81634778  1
  Zn  Zn151  1  0.56567511  0.06413314  0.30986488  1
  Zn  Zn152  1  0.55850476  0.06508732  0.80862161  1
  Zn  Zn153  1  0.55625388  0.55778900  0.31182602  1
  Zn  Zn154  1  0.56517891  0.56142143  0.80919442  1
  Zn  Zn155  1  0.43185987  0.19272501  0.43408607  1
  Zn  Zn156  1  0.44244495  0.18781385  0.93421921  1
  Zn  Zn157  1  0.43315885  0.67817819  0.43561332  1
  Zn  Zn158  1  0.43827049  0.68734388  0.93741574  1
  Zn  Zn159  1  0.93148482  0.18750222  0.43574124  1
  Zn  Zn160  1  0.93906938  0.18291695  0.92796472  1
  Zn  Zn161  1  0.93961545  0.68844442  0.43815675  1
  Zn  Zn162  1  0.93784959  0.68617020  0.94042362  1
  Zn  Zn163  1  0.06340103  0.31006389  0.06402166  1
  Zn  Zn164  1  0.07116620  0.30316548  0.55835338  1
  Zn  Zn165  1  0.06136946  0.81130328  0.06431836  1
  Zn  Zn166  1  0.06101326  0.81266058  0.56190761  1
  Zn  Zn167  1  0.56649419  0.31193714  0.06116822  1
  Zn  Zn168  1  0.56736845  0.32177787  0.56309316  1
  Zn  Zn169  1  0.56279021  0.81257524  0.06393622  1
  Zn  Zn170  1  0.56183522  0.81052958  0.56018804  1
  O  O171  1  0.12074127  0.11953333  0.10792862  1
  O  O172  1  0.10847639  0.11255875  0.66412749  1
  O  O173  1  0.11642778  0.61701742  0.12014783  1
  O  O174  1  0.11137610  0.63146577  0.62306033  1
  O  O175  1  0.61818637  0.11062360  0.12995168  1
  O  O176  1  0.61593199  0.12060356  0.61604914  1
  O  O177  1  0.61927379  0.61766769  0.12193326  1
  O  O178  1  0.63190950  0.60958003  0.62871833  1
  O  O179  1  0.37121286  0.38754421  0.36823208  1
  O  O180  1  0.38222290  0.37998695  0.88313602  1
  O  O181  1  0.38838171  0.88374894  0.37300153  1
  O  O182  1  0.37995183  0.88165669  0.88331851  1
  O  O183  1  0.88403419  0.38892975  0.36836152  1
  O  O184  1  0.88000504  0.38133024  0.88846008  1
  O  O185  1  0.87467182  0.87100279  0.38778810  1
  O  O186  1  0.87100154  0.89519332  0.86850802  1
  O  O187  1  0.25943674  -0.01551112  0.35408916  1
  O  O188  1  0.26447067  -0.00580666  0.86524067  1
  O  O189  1  0.25530364  0.49844652  0.36577633  1
  O  O190  1  0.25602950  0.50628401  0.86827198  1
  O  O191  1  0.74723834  0.01454865  0.37719707  1
  O  O192  1  0.74467869  -0.00130032  0.86063641  1
  O  O193  1  0.76744680  0.49665599  0.38366342  1
  O  O194  1  0.74920797  0.50940586  0.86593099  1
  O  O195  1  0.24544854  0.48629041  0.12783853  1
  O  O196  1  0.25061283  0.49633175  0.64142195  1
  O  O197  1  0.24075940  0.99287104  0.11715928  1
  O  O198  1  0.24907689  0.98994277  0.64195163  1
  O  O199  1  0.73629408  0.49105533  0.12235097  1
  O  O200  1  0.75075595  0.50221883  0.64012631  1
  O  O201  1  0.74693676  0.99398260  0.12000704  1
  O  O202  1  0.74362453  0.99533569  0.63095467  1
  O  O203  1  0.00713079  0.36738638  0.25452878  1
  O  O204  1  0.00482162  0.37206087  0.75198239  1
  O  O205  1  -0.00394148  0.87677770  0.27088333  1
  O  O206  1  0.00961209  0.86834909  0.74363967  1
  O  O207  1  0.50788319  0.36580667  0.24718534  1
  O  O208  1  0.49244483  0.36367215  0.76043274  1
  O  O209  1  0.50720635  0.86814955  0.25349645  1
  O  O210  1  0.50506398  0.87146406  0.75421245  1
  O  O211  1  0.49624573  0.13307808  0.24316840  1
  O  O212  1  0.49484687  0.13571137  0.74121077  1
  O  O213  1  0.49973194  0.63260633  0.24060149  1
  O  O214  1  0.48722452  0.63171359  0.75774522  1
  O  O215  1  0.99170181  0.13189338  0.23988606  1
  O  O216  1  0.98949554  0.14683910  0.75532641  1
  O  O217  1  0.99491079  0.61842928  0.24026864  1
  O  O218  1  0.99047991  0.62784100  0.74496581  1
  O  O219  1  0.36650507  0.25684742  -0.01069155  1
  O  O220  1  0.35412680  0.20595171  0.51031849  1
  O  O221  1  0.36639385  0.75907067  -0.00587277  1
  O  O222  1  0.37290114  0.75288849  0.50765313  1
  O  O223  1  0.87922125  0.26067513  -0.00520095  1
  O  O224  1  0.86424263  0.24799850  0.50972819  1
  O  O225  1  0.86805072  0.74910394  0.00969722  1
  O  O226  1  0.86726803  0.75795126  0.50357725  1
  O  O227  1  0.14673782  0.22549200  0.53022749  1
  O  O228  1  0.13127013  0.24580444  0.99061728  1
  O  O229  1  0.12510509  0.74190080  0.49678057  1
  O  O230  1  0.13049472  0.74251144  0.99518125  1
  O  O231  1  0.64066800  0.24255104  0.50844170  1
  O  O232  1  0.62289385  0.24931961  0.98224617  1
  O  O233  1  0.63098809  0.74586316  0.49213981  1
  O  O234  1  0.63313970  0.74557093  0.99639085  1
  O  O235  1  0.50713821  0.23766512  0.13061716  1
  O  O236  1  0.50839960  0.24460413  0.63326285  1
  O  O237  1  0.50839928  0.73958270  0.13393869  1
  O  O238  1  0.48737594  0.75659900  0.63173149  1
  O  O239  1  1.00597608  0.23879404  0.13310885  1
  O  O240  1  0.98885702  0.25242977  0.63019427  1
  O  O241  1  0.98681058  0.74030178  0.12749053  1
  O  O242  1  0.99258986  0.74267970  0.63181059  1
  O  O243  1  -0.00597267  0.26015908  0.36825914  1
  O  O244  1  0.01058644  0.25607394  0.86841637  1
  O  O245  1  -0.00034305  0.76762076  0.37927730  1
  O  O246  1  0.01011240  0.74144292  0.86862136  1
  O  O247  1  0.49606177  0.25276629  0.36285500  1
  O  O248  1  0.50906407  0.25702399  0.86674735  1
  O  O249  1  0.50541101  0.75632898  0.36774957  1
  O  O250  1  0.50553249  0.75637901  0.86852384  1
  O  O251  1  0.22436776  0.07292864  0.49282289  1
  O  O252  1  0.24529879  0.13810793  1.00205585  1
  O  O253  1  0.23313836  0.62406222  0.50497692  1
  O  O254  1  0.24659710  0.63003521  0.99851771  1
  O  O255  1  0.74503758  0.12933267  0.48993711  1
  O  O256  1  0.74173082  0.13312346  1.00304045  1
  O  O257  1  0.75308905  0.63708571  0.50577225  1
  O  O258  1  0.74597546  0.63293936  0.99554332  1
  O  O259  1  0.25653367  0.36705107  0.00363031  1
  O  O260  1  0.24325250  0.38197083  0.52224957  1
  O  O261  1  0.25778176  0.86645664  0.00369442  1
  O  O262  1  0.25204667  0.87900737  0.51557885  1
  O  O263  1  0.75911797  0.37043591  0.00800267  1
  O  O264  1  0.74709736  0.36057326  0.49138165  1
  O  O265  1  0.75582243  0.86066670  -0.00386758  1
  O  O266  1  0.75646289  0.86994672  0.50344849  1
  O  O267  1  0.13501162  0.48857099  0.24489738  1
  O  O268  1  0.13250016  0.49571037  0.75903371  1
  O  O269  1  0.12909858  1.00170850  0.23663031  1
  O  O270  1  0.13776541  0.98429884  0.76639015  1
  O  O271  1  0.61825397  0.48579039  0.24220952  1
  O  O272  1  0.64103799  0.50495416  0.74487450  1
  O  O273  1  0.62211065  0.98624194  0.24366822  1
  O  O274  1  0.63005611  0.99655854  0.74433116  1
  O  O275  1  0.38286254  0.01201676  0.25319804  1
  O  O276  1  0.37039358  0.00690578  0.75660905  1
  O  O277  1  0.36074077  0.49566587  0.24769709  1
  O  O278  1  0.36841249  0.51009839  0.75637916  1
  O  O279  1  0.86666769  -0.00778602  0.23298772  1
  O  O280  1  0.86089732  0.00266882  0.75556681  1
  O  O281  1  0.87762649  0.51037163  0.26249086  1
  O  O282  1  0.86652876  0.50848420  0.75298124  1
  O  O283  1  0.11517303  0.38013381  0.36478293  1
  O  O284  1  0.12202780  0.37017103  0.86662421  1
  O  O285  1  0.11259677  0.88175356  0.38579641  1
  O  O286  1  0.13143161  0.86092428  0.86912834  1
  O  O287  1  0.62095525  0.38290616  0.36185851  1
  O  O288  1  0.61424777  0.37060469  0.87980080  1
  O  O289  1  0.61537777  0.86996533  0.36828777  1
  O  O290  1  0.61922756  0.86875516  0.86940855  1
  O  O291  1  0.38849626  0.11828254  0.13060929  1
  O  O292  1  0.39251197  0.11355662  0.63629369  1
  O  O293  1  0.39011959  0.61855350  0.12429046  1
  O  O294  1  0.36899712  0.63442111  0.63633216  1
  O  O295  1  0.88960481  0.11676365  0.12125366  1
  O  O296  1  0.87667833  0.14038746  0.63083935  1
  O  O297  1  0.87931678  0.62727919  0.13613660  1
  O  O298  1  0.88269856  0.63088910  0.63262327  1
  O  O299  1  0.24657873  0.26117274  0.11222199  1
  O  O300  1  0.25886345  0.27202552  0.64109860  1
  O  O301  1  0.24477696  0.75517861  0.11188753  1
  O  O302  1  0.26177749  0.75803283  0.62558238  1
  O  O303  1  0.74232343  0.26354608  0.12276881  1
  O  O304  1  0.76016153  0.24850551  0.61360222  1
  O  O305  1  0.76155219  0.74361194  0.11891498  1
  O  O306  1  0.75376441  0.75860688  0.61833046  1
  O  O307  1  0.23650001  0.24966515  0.38548044  1
  O  O308  1  0.23704054  0.25712684  0.88023316  1
  O  O309  1  0.24955067  0.74687405  0.38032024  1
  O  O310  1  0.24360782  0.74470531  0.88592407  1
  O  O311  1  0.75684074  0.24013148  0.38938503  1
  O  O312  1  0.73505690  0.25675386  0.87176663  1
  O  O313  1  0.73712516  0.75358956  0.38549984  1
  O  O314  1  0.74625344  0.74440949  0.88154469  1
  O  O315  1  0.00945927  0.12341581  0.00175815  1
  O  O316  1  -0.00653905  0.10912550  0.49696944  1
  O  O317  1  0.00205643  0.61828812  0.01403380  1
  O  O318  1  0.00765028  0.62044635  0.50744963  1
  O  O319  1  0.50484629  0.11928996  0.00667928  1
  O  O320  1  0.50951110  0.12415978  0.50394792  1
  O  O321  1  0.50864320  0.62590567  0.00617318  1
  O  O322  1  0.50002648  0.61285426  0.49504127  1
  O  O323  1  0.50450661  0.38660364  0.49906108  1
  O  O324  1  0.49257160  0.37393354  0.99309445  1
  O  O325  1  0.49994126  0.88164209  0.49029917  1
  O  O326  1  0.49304621  0.87858025  0.99533642  1
  O  O327  1  1.01085911  0.37916874  0.49217051  1
  O  O328  1  0.99423841  0.38289016  1.00493684  1
  O  O329  1  0.98458585  0.87885788  0.49677963  1
  O  O330  1  0.99368069  0.87737071  1.00619375  1
  O  O331  1  0.47874881  0.49416250  0.36671530  1
  O  O332  1  0.49603422  0.49172039  0.87425817  1
  O  O333  1  0.49731035  0.99295279  0.37598504  1
  O  O334  1  0.49263908  0.99430172  0.87807133  1
  O  O335  1  0.99459858  0.48818664  0.38195104  1
  O  O336  1  0.99973351  0.50295374  0.89254945  1
  O  O337  1  0.99041710  0.98561048  0.39057569  1
  O  O338  1  0.99264326  1.00588893  0.86306002  1
  O  O339  1  0.01750913  0.00963807  0.11781955  1
  O  O340  1  -0.01645791  0.00408900  0.61308114  1
  O  O341  1  0.00362094  0.50378735  0.11926191  1
  O  O342  1  -0.00794607  0.50944293  0.61531595  1
  O  O343  1  0.50864447  0.00607685  0.11836955  1
  O  O344  1  0.50772358  0.00656357  0.61818724  1
  O  O345  1  0.51079600  0.50691096  0.12220385  1
  O  O346  1  0.51573620  0.50076453  0.63438685  1
  O  O347  1  0.24417675  0.37371416  0.24057150  1
  O  O348  1  0.24344654  0.38704832  0.74731244  1
  O  O349  1  0.26049925  0.86931054  0.23163254  1
  O  O350  1  0.24567184  0.87908403  0.74420481  1
  O  O351  1  0.73573502  0.37033411  0.24576712  1
  O  O352  1  0.75417426  0.39004551  0.75510145  1
  O  O353  1  0.74646637  0.87406454  0.25066477  1
  O  O354  1  0.74114147  0.88357242  0.74235627  1
  O  O355  1  0.25450202  0.11996564  0.23734279  1
  O  O356  1  0.26118755  0.11753091  0.74334654  1
  O  O357  1  0.25086702  0.61113342  0.24359745  1
  O  O358  1  0.25586879  0.62226365  0.75581858  1
  O  O359  1  0.74893374  0.13101617  0.26560906  1
  O  O360  1  0.74327453  0.11242216  0.74265342  1
  O  O361  1  0.76322060  0.62637278  0.24967505  1
  O  O362  1  0.76301725  0.62641869  0.75621558  1
  O  O363  1  0.37850355  0.11073895  0.36152016  1
  O  O364  1  0.38333953  0.11439302  0.86454456  1
  O  O365  1  0.36740324  0.60927706  0.36606603  1
  O  O366  1  0.36894600  0.62104753  0.86900572  1
  O  O367  1  0.86432685  0.12063359  0.36761738  1
  O  O368  1  0.87163648  0.10979987  0.86805165  1
  O  O369  1  0.88253583  0.61557145  0.36429217  1
  O  O370  1  0.87023629  0.62358567  0.86782033  1
  O  O371  1  0.13313211  0.37801622  0.13099291  1
  O  O372  1  0.12978761  0.37575436  0.63879875  1
  O  O373  1  0.13543107  0.88553181  0.11695320  1
  O  O374  1  0.13465740  0.86546965  0.63783970  1
  O  O375  1  0.63023716  0.38180924  0.13046065  1
  O  O376  1  0.63188635  0.39367991  0.63001482  1
  O  O377  1  0.62290770  0.88584328  0.13223539  1
  O  O378  1  0.62904604  0.88153787  0.62760786  1
  O  O379  1  0.11578208  0.25859865  0.24563140  1
  O  O380  1  0.11700905  0.26208577  0.75542699  1
  O  O381  1  0.11560032  0.74847162  0.25375222  1
  O  O382  1  0.12072992  0.75700214  0.75944701  1
  O  O383  1  0.61492451  0.26432197  0.24721426  1
  O  O384  1  0.61668240  0.24913407  0.75998901  1
  O  O385  1  0.62041506  0.75974326  0.25601803  1
  O  O386  1  0.62025567  0.75522827  0.75389111  1
  O  O387  1  0.38079136  0.23584948  0.25129913  1
  O  O388  1  0.38371686  0.23893728  0.75847330  1
  O  O389  1  0.38874835  0.74877188  0.25171108  1
  O  O390  1  0.37910577  0.74392867  0.74593413  1
  O  O391  1  0.88404131  0.25214815  0.24846577  1
  O  O392  1  0.87834564  0.25580717  0.74133295  1
  O  O393  1  0.87985567  0.73574394  0.24706164  1
  O  O394  1  0.87866713  0.74462908  0.74630225  1
  O  O395  1  0.36714731  0.50142596  0.48681792  1
  O  O396  1  0.37781783  0.49122576  0.99145219  1
  O  O397  1  0.38630016  1.00201061  0.48580365  1
  O  O398  1  0.37966096  0.99565388  0.99060544  1
  O  O399  1  0.88810780  0.50737284  0.48683140  1
  O  O400  1  0.88258306  0.49443929  1.00209957  1
  O  O401  1  0.87493404  0.98593006  0.50484485  1
  O  O402  1  0.88107957  0.99735251  0.97974069  1
  O  O403  1  0.12812849  0.00933598  -0.00269141  1
  O  O404  1  0.09745329  -0.01516679  0.51281237  1
  O  O405  1  0.11896513  0.50354971  0.00637543  1
  O  O406  1  0.11086053  0.50887973  0.49677589  1
  O  O407  1  0.61805303  -0.00248576  0.00716154  1
  O  O408  1  0.62052701  0.00826544  0.50338573  1
  O  O409  1  0.62412517  0.50721434  0.00663915  1
  O  O410  1  0.63101953  0.50652188  0.51750335  1
  O  O411  1  0.36887726  0.37841884  0.10968925  1
  O  O412  1  0.36318076  0.38418196  0.63017325  1
  O  O413  1  0.36965149  0.88267906  0.10942430  1
  O  O414  1  0.36724359  0.86809402  0.62526548  1
  O  O415  1  0.86311028  0.38206923  0.11963319  1
  O  O416  1  0.87479984  0.36229128  0.62396475  1
  O  O417  1  0.86888523  0.86935784  0.13409090  1
  O  O418  1  0.86681765  0.86814962  0.61709763  1
  O  O419  1  0.13536764  0.09645056  0.35200709  1
  O  O420  1  0.12271222  0.13482735  0.88126790  1
  O  O421  1  0.12604302  0.62552353  0.38412466  1
  O  O422  1  0.13139943  0.63398430  0.88240017  1
  O  O423  1  0.63086054  0.12425011  0.38502228  1
  O  O424  1  0.61903656  0.13859895  0.87345960  1
  O  O425  1  0.62115570  0.63405604  0.37026077  1
  O  O426  1  0.63035712  0.63193076  0.88007438  1
