# generated using pymatgen
data_V85Zn86O256
_symmetry_space_group_name_H-M   'P 1'
_cell_length_a   16.94651737
_cell_length_b   16.94721276
_cell_length_c   16.95530666
_cell_angle_alpha   90.03331738
_cell_angle_beta   90.02807597
_cell_angle_gamma   89.94517558
_symmetry_Int_Tables_number   1
_chemical_formula_structural   V85Zn86O256
_chemical_formula_sum   'V85 Zn86 O256'
_cell_volume   4869.49660759
_cell_formula_units_Z   1
loop_
 _symmetry_equiv_pos_site_id
 _symmetry_equiv_pos_as_xyz
  1  'x, y, z'
loop_
 _atom_site_type_symbol
 _atom_site_label
 _atom_site_symmetry_multiplicity
 _atom_site_fract_x
 _atom_site_fract_y
 _atom_site_fract_z
 _atom_site_occupancy
  V  V0  1  0.37698887  0.86621926  0.51080937  1
  V  V1  1  0.12836303  -0.00191861  0.12966356  1
  V  V2  1  -0.00244538  0.25663851  0.25177843  1
  V  V3  1  0.37210935  0.00145260  0.87621873  1
  V  V4  1  0.75312434  0.13068573  0.38190809  1
  V  V5  1  -0.00033375  0.25451307  0.75701428  1
  V  V6  1  0.63063602  0.62701440  0.50015715  1
  V  V7  1  0.12188353  0.49602422  0.61322763  1
  V  V8  1  0.75145550  0.87621395  0.12513890  1
  V  V9  1  0.62494724  0.74989265  0.87384828  1
  V  V10  1  0.75576958  0.50222302  0.74370399  1
  V  V11  1  0.25174842  0.35453958  0.12092125  1
  V  V12  1  0.75541540  0.74860335  0.50137398  1
  V  V13  1  0.00342793  0.48778889  -0.00309192  1
  V  V14  1  0.00596417  0.62618449  0.62494158  1
  V  V15  1  0.87363946  0.48689811  0.38184891  1
  V  V16  1  -0.00421526  0.62231918  0.12672408  1
  V  V17  1  0.86300567  0.25080790  0.12210237  1
  V  V18  1  0.24635193  0.00211653  0.75578874  1
  V  V19  1  0.12174621  0.87217788  0.74750017  1
  V  V20  1  0.75028032  0.00063048  0.25267489  1
  V  V21  1  0.25444829  0.62010360  0.87469667  1
  V  V22  1  0.62871002  0.50114531  0.62239262  1
  V  V23  1  0.12643263  0.37749408  0.25796002  1
  V  V24  1  0.50163324  0.87600086  0.37436135  1
  V  V25  1  0.35405606  0.62305690  0.25268635  1
  V  V26  1  0.48668893  0.50628195  -0.01324139  1
  V  V27  1  0.49901802  0.50043695  0.50187401  1
  V  V28  1  0.75337547  0.62387418  0.87257202  1
  V  V29  1  0.50069859  0.12584210  0.62466599  1
  V  V30  1  0.64229831  0.24963456  0.87168091  1
  V  V31  1  0.12797020  0.12748563  -0.00914914  1
  V  V32  1  0.13437401  0.49722363  0.12804980  1
  V  V33  1  0.37462623  0.24824729  0.62293358  1
  V  V34  1  0.25314600  0.49754470  0.74974678  1
  V  V35  1  0.87488906  0.12551779  0.25092889  1
  V  V36  1  0.62695414  0.87944355  0.74805306  1
  V  V37  1  0.75781393  0.00297027  0.76007990  1
  V  V38  1  0.62545385  0.87645593  0.25001401  1
  V  V39  1  0.55930614  0.56686086  0.16952312  1
  V  V40  1  0.62633837  0.13299907  0.50075419  1
  V  V41  1  0.37389157  0.37494172  0.50109130  1
  V  V42  1  0.88309749  0.49584989  0.87197428  1
  V  V43  1  0.86392376  0.37159161  -0.00393363  1
  V  V44  1  0.75605584  0.35997676  0.61149860  1
  V  V45  1  0.49716008  0.75145578  0.74583735  1
  V  V46  1  -0.00449202  0.87240834  0.87072228  1
  V  V47  1  0.62510660  0.61574804  -0.00215678  1
  V  V48  1  0.50119657  0.37671395  0.36914633  1
  V  V49  1  0.87805453  0.87832660  0.50009015  1
  V  V50  1  0.87465244  0.12699186  0.76499152  1
  V  V51  1  0.38082406  0.74817205  0.12450184  1
  V  V52  1  -0.00251089  -0.00107594  -0.00382462  1
  V  V53  1  0.37459838  0.62971350  0.75042074  1
  V  V54  1  0.12239512  0.62257873  -0.00089006  1
  V  V55  1  0.74577312  0.39286848  0.13815468  1
  V  V56  1  0.88214495  0.75030179  0.63335046  1
  V  V57  1  0.35756044  0.50510740  0.37594322  1
  V  V58  1  0.11580338  0.24419269  0.38323788  1
  V  V59  1  0.24976708  0.75224923  -0.00046032  1
  V  V60  1  0.87444778  0.87710512  -0.00276521  1
  V  V61  1  0.12581483  0.00632671  0.61976351  1
  V  V62  1  0.86355485  0.61863215  0.26233862  1
  V  V63  1  0.00382211  0.87176136  0.37370553  1
  V  V64  1  0.50278985  0.74860488  0.24751733  1
  V  V65  1  0.62078812  0.00557278  0.12186383  1
  V  V66  1  0.63743859  0.13015190  -0.00707553  1
  V  V67  1  0.36701339  -0.00176957  0.37044913  1
  V  V68  1  -0.00923987  0.12629014  0.61930864  1
  V  V69  1  0.24441867  0.23674597  0.50317050  1
  V  V70  1  0.11998591  0.74718783  0.86893993  1
  V  V71  1  0.49781825  0.87576585  0.87623210  1
  V  V72  1  0.50152222  0.25100328  0.75200093  1
  V  V73  1  0.37013845  0.12806168  0.75648556  1
  V  V74  1  0.62705444  0.25826662  0.37294425  1
  V  V75  1  0.24481116  0.74161008  0.50271629  1
  V  V76  1  0.24642917  0.12146575  0.36316348  1
  V  V77  1  0.49965758  0.00521289  0.49918874  1
  V  V78  1  0.63362655  0.75093022  0.37509774  1
  V  V79  1  0.49280883  0.62974711  0.62221311  1
  V  V80  1  -0.00175852  0.12453138  0.12417243  1
  V  V81  1  0.25188744  0.87366865  0.13593428  1
  V  V82  1  0.62723914  0.37585044  0.74804405  1
  V  V83  1  0.24688443  0.37130105  0.62397369  1
  V  V84  1  0.74954604  0.74965104  -0.00145719  1
  Zn  Zn85  1  0.12459884  0.87646428  0.25234988  1
  Zn  Zn86  1  0.87728929  0.00035722  0.37658959  1
  Zn  Zn87  1  0.12223432  0.61583123  0.48698694  1
  Zn  Zn88  1  0.89070002  0.36527053  0.50264303  1
  Zn  Zn89  1  0.49189809  0.38234785  0.86839898  1
  Zn  Zn90  1  0.25514906  0.87123280  0.63023648  1
  Zn  Zn91  1  0.49373495  0.16371913  0.11528686  1
  Zn  Zn92  1  0.62948694  0.00242223  0.62513159  1
  Zn  Zn93  1  0.57576554  0.32825662  0.20546993  1
  Zn  Zn94  1  0.88728688  0.62941872  0.75338261  1
  Zn  Zn95  1  0.37830401  0.16826379  0.22842509  1
  Zn  Zn96  1  0.75392478  0.87801916  0.62599582  1
  Zn  Zn97  1  0.00754592  0.00300152  0.49606556  1
  Zn  Zn98  1  0.00013556  0.74933944  0.24939086  1
  Zn  Zn99  1  0.49951725  0.00830016  -0.00160799  1
  Zn  Zn100  1  0.37763939  0.36424606  -0.00177334  1
  Zn  Zn101  1  0.27740358  0.22698061  -0.02520865  1
  Zn  Zn102  1  0.12631693  0.26510545  0.87987515  1
  Zn  Zn103  1  0.37627577  0.87588240  0.00166977  1
  Zn  Zn104  1  0.87623298  0.74706063  0.12743173  1
  Zn  Zn105  1  0.11849417  0.38063913  0.75734433  1
  Zn  Zn106  1  0.13643290  0.74301219  0.36503517  1
  Zn  Zn107  1  0.18032010  0.18441028  0.18945574  1
  Zn  Zn108  1  0.18317462  0.18559427  0.69524559  1
  Zn  Zn109  1  0.18034709  0.69045394  0.18522592  1
  Zn  Zn110  1  0.18863428  0.68878186  0.68162045  1
  Zn  Zn111  1  0.68644051  0.18451382  0.18842099  1
  Zn  Zn112  1  0.69052964  0.18428853  0.68900520  1
  Zn  Zn113  1  0.69559274  0.69072262  0.18826918  1
  Zn  Zn114  1  0.68965078  0.68969619  0.68485089  1
  Zn  Zn115  1  0.30121455  0.32154281  0.31858512  1
  Zn  Zn116  1  0.31004530  0.31485690  0.82107156  1
  Zn  Zn117  1  0.31657908  0.81122095  0.31699548  1
  Zn  Zn118  1  0.31022067  0.81085503  0.81165780  1
  Zn  Zn119  1  0.81019674  0.31286429  0.31503903  1
  Zn  Zn120  1  0.81928421  0.31714432  0.80296894  1
  Zn  Zn121  1  0.81876323  0.80816342  0.31278086  1
  Zn  Zn122  1  0.81177509  0.81482426  0.81265805  1
  Zn  Zn123  1  0.05429487  0.43592174  0.43554061  1
  Zn  Zn124  1  0.19126272  0.43278934  0.93635647  1
  Zn  Zn125  1  0.19055487  0.93051808  0.43956757  1
  Zn  Zn126  1  0.18477729  0.93726848  0.93880901  1
  Zn  Zn127  1  0.69540273  0.44299286  0.42999678  1
  Zn  Zn128  1  0.68954323  0.43640084  0.93311050  1
  Zn  Zn129  1  0.69011242  0.93993499  0.43970218  1
  Zn  Zn130  1  0.68675014  0.94063639  0.93669856  1
  Zn  Zn131  1  0.30950692  0.06092993  0.06314417  1
  Zn  Zn132  1  0.31338981  0.05843963  0.56506028  1
  Zn  Zn133  1  0.31220121  0.56696633  0.06661563  1
  Zn  Zn134  1  0.31067649  0.56118688  0.56344223  1
  Zn  Zn135  1  0.81247110  0.06073127  0.06111570  1
  Zn  Zn136  1  0.81145951  0.06276201  0.56752279  1
  Zn  Zn137  1  0.81507987  0.56087753  0.06026686  1
  Zn  Zn138  1  0.81997220  0.56264418  0.55790692  1
  Zn  Zn139  1  0.42525825  0.43786755  0.18796845  1
  Zn  Zn140  1  0.43532332  0.43957276  0.68870565  1
  Zn  Zn141  1  0.44020057  1.02033199  0.18857737  1
  Zn  Zn142  1  0.44028730  0.94236506  0.68911604  1
  Zn  Zn143  1  0.93532637  0.44008578  0.18739849  1
  Zn  Zn144  1  0.93829202  0.43856000  0.67866348  1
  Zn  Zn145  1  0.93797900  0.93829203  0.18745574  1
  Zn  Zn146  1  0.93804750  0.94061308  0.68704109  1
  Zn  Zn147  1  0.06017037  0.06180764  0.31352011  1
  Zn  Zn148  1  0.05656199  0.05886430  0.81184610  1
  Zn  Zn149  1  0.05975774  0.56440035  0.31103479  1
  Zn  Zn150  1  0.06512751  0.56114746  0.80628238  1
  Zn  Zn151  1  0.56080922  0.07118756  0.31259308  1
  Zn  Zn152  1  0.56364638  0.06399428  0.81458326  1
  Zn  Zn153  1  0.56436374  0.56157598  0.32955110  1
  Zn  Zn154  1  0.56559990  0.56399445  0.80915690  1
  Zn  Zn155  1  0.42075533  0.20416130  0.40511454  1
  Zn  Zn156  1  0.44875740  0.18927767  0.93673033  1
  Zn  Zn157  1  0.43821471  0.68856395  0.43389685  1
  Zn  Zn158  1  0.43843341  0.68550198  0.93672824  1
  Zn  Zn159  1  0.92990591  0.19629907  0.44384185  1
  Zn  Zn160  1  0.93692870  0.18925176  0.93854087  1
  Zn  Zn161  1  0.94388678  0.68477600  0.43889261  1
  Zn  Zn162  1  0.93796943  0.68641238  0.94034330  1
  Zn  Zn163  1  0.05998177  0.31090962  0.06630025  1
  Zn  Zn164  1  0.06200494  0.30410724  0.57119920  1
  Zn  Zn165  1  0.06332583  0.81036455  0.06331436  1
  Zn  Zn166  1  0.06185798  0.81240288  0.56268407  1
  Zn  Zn167  1  0.56833672  0.31959001  0.04475681  1
  Zn  Zn168  1  0.56517767  0.31363810  0.56084452  1
  Zn  Zn169  1  0.56312080  0.81234903  0.06156015  1
  Zn  Zn170  1  0.56273461  0.81325031  0.56320718  1
  O  O171  1  0.11708083  0.11663908  0.11734497  1
  O  O172  1  0.11191212  0.11322693  0.63595234  1
  O  O173  1  0.11744608  0.61624677  0.11860314  1
  O  O174  1  0.11940441  0.61728953  0.62064205  1
  O  O175  1  0.62657118  0.11791403  0.11527850  1
  O  O176  1  0.61980713  0.12495651  0.61731023  1
  O  O177  1  0.62572933  0.62832390  0.11566524  1
  O  O178  1  0.61757113  0.62328740  0.61599170  1
  O  O179  1  0.38144161  0.38767111  0.38412362  1
  O  O180  1  0.37915287  0.37636297  0.88197166  1
  O  O181  1  0.38040524  0.88247914  0.38888420  1
  O  O182  1  0.38205597  0.88134482  0.87389830  1
  O  O183  1  0.87707059  0.38239687  0.37492703  1
  O  O184  1  0.87182905  0.38449587  0.88173148  1
  O  O185  1  0.88083913  0.87656022  0.38411830  1
  O  O186  1  0.88632390  0.86816160  0.88232350  1
  O  O187  1  0.25856883  0.00569101  0.38314089  1
  O  O188  1  0.25653054  -0.00621284  0.86488853  1
  O  O189  1  0.26221349  0.49674878  0.38039206  1
  O  O190  1  0.24548953  0.51351282  0.86646760  1
  O  O191  1  0.74999160  0.01013411  0.36835176  1
  O  O192  1  0.74904826  -0.00326772  0.85923818  1
  O  O193  1  0.77123644  0.50154214  0.37075039  1
  O  O194  1  0.76052405  0.50422004  0.86520291  1
  O  O195  1  0.23594208  0.49992150  0.12134765  1
  O  O196  1  0.24479598  0.49075001  0.62911305  1
  O  O197  1  0.24099504  0.98485639  0.11728205  1
  O  O198  1  0.24337967  0.99721505  0.63793735  1
  O  O199  1  0.75375844  0.49166150  0.12701903  1
  O  O200  1  0.74514474  0.50375023  0.62988363  1
  O  O201  1  0.74128041  0.99344173  0.12997669  1
  O  O202  1  0.74703949  0.99589269  0.63830544  1
  O  O203  1  0.00588745  0.36079967  0.23996286  1
  O  O204  1  -0.00659763  0.35646854  0.74051328  1
  O  O205  1  -0.00200062  0.87363099  0.25911250  1
  O  O206  1  0.00668098  0.88084825  0.76162762  1
  O  O207  1  0.49761919  0.38923049  0.26518812  1
  O  O208  1  0.50740748  0.36874570  0.74682465  1
  O  O209  1  0.51122467  0.86512890  0.25989065  1
  O  O210  1  0.50607702  0.87315435  0.75829601  1
  O  O211  1  0.49292721  0.11377303  0.23576052  1
  O  O212  1  0.49466050  0.13130195  0.74440290  1
  O  O213  1  0.50662176  0.62704005  0.23967548  1
  O  O214  1  0.49338747  0.62868901  0.74267361  1
  O  O215  1  0.99261397  0.13081907  0.24320797  1
  O  O216  1  0.98805664  0.12580957  0.74713273  1
  O  O217  1  0.99241219  0.62450652  0.23456522  1
  O  O218  1  1.00311654  0.62747803  0.73460483  1
  O  O219  1  0.38215472  0.24807783  0.00380750  1
  O  O220  1  0.36688037  0.25342137  0.50434289  1
  O  O221  1  0.36838622  0.74642290  0.00799979  1
  O  O222  1  0.37433329  0.76248739  0.49755075  1
  O  O223  1  0.88182878  0.26073607  0.00898629  1
  O  O224  1  0.86401268  0.25684829  0.50370296  1
  O  O225  1  0.86803950  0.76074500  0.00106965  1
  O  O226  1  0.87020664  0.75738210  0.50697196  1
  O  O227  1  0.13103845  0.25035267  0.49261866  1
  O  O228  1  0.11184110  0.23207964  0.99878698  1
  O  O229  1  0.13919220  0.75236042  0.50066202  1
  O  O230  1  0.13239320  0.74245785  0.99259680  1
  O  O231  1  0.62458769  0.23806388  0.49422571  1
  O  O232  1  0.62852563  0.24068840  0.98519108  1
  O  O233  1  0.63361953  0.74740456  0.49595216  1
  O  O234  1  0.62940274  0.74105855  0.99297942  1
  O  O235  1  0.51166121  0.27288889  0.12993843  1
  O  O236  1  0.49719724  0.24556644  0.63336396  1
  O  O237  1  0.49055985  0.75551029  0.13125457  1
  O  O238  1  0.50609922  0.74068645  0.63267267  1
  O  O239  1  0.99069465  0.24297468  0.13345109  1
  O  O240  1  1.00502511  0.22987789  0.63918702  1
  O  O241  1  0.99689303  0.73712903  0.12042434  1
  O  O242  1  0.99374306  0.74190167  0.62447740  1
  O  O243  1  0.00806289  0.23689610  0.36624311  1
  O  O244  1  0.00150456  0.24447118  0.86027579  1
  O  O245  1  -0.00077715  0.76401529  0.37608603  1
  O  O246  1  0.01245492  0.75580643  0.88147885  1
  O  O247  1  0.51456627  0.26776561  0.38854350  1
  O  O248  1  0.51159323  0.25061620  0.85890809  1
  O  O249  1  0.51329616  0.75438877  0.37046295  1
  O  O250  1  0.50473318  0.75584100  0.86698013  1
  O  O251  1  0.25376719  0.13388856  0.49948059  1
  O  O252  1  0.23180974  0.12233783  1.00394398  1
  O  O253  1  0.25107968  0.63885472  0.50402861  1
  O  O254  1  0.24568279  0.63259891  0.99208182  1
  O  O255  1  0.73839156  0.11364053  0.49247011  1
  O  O256  1  0.73725093  0.12231068  1.00169161  1
  O  O257  1  0.74458314  0.63937286  0.50705556  1
  O  O258  1  0.74441891  0.62845090  0.99354203  1
  O  O259  1  0.24797290  0.37140538  0.01552368  1
  O  O260  1  0.25718534  0.36056013  0.51689607  1
  O  O261  1  0.25003423  0.86102306  0.00066503  1
  O  O262  1  0.26589004  0.87126772  0.50784907  1
  O  O263  1  0.76118541  0.38160258  0.00733333  1
  O  O264  1  0.74224272  0.37703110  0.51272555  1
  O  O265  1  0.75556981  0.87328653  0.00464877  1
  O  O266  1  0.75693533  0.86571116  0.50244190  1
  O  O267  1  0.11450139  0.48652520  0.23988619  1
  O  O268  1  0.14021552  0.50211285  0.73926638  1
  O  O269  1  0.11926893  0.99873871  0.23339757  1
  O  O270  1  0.13139035  0.99288771  0.74829111  1
  O  O271  1  0.61309646  0.51461386  0.23447575  1
  O  O272  1  0.63432532  0.49649275  0.74327756  1
  O  O273  1  0.63124765  0.99565340  0.24222229  1
  O  O274  1  0.63382065  0.99508270  0.75056020  1
  O  O275  1  0.37225767  -0.01613906  0.27213100  1
  O  O276  1  0.36831847  0.00557509  0.75814278  1
  O  O277  1  0.37417531  0.51683107  0.25723529  1
  O  O278  1  0.36240145  0.51354928  0.74244437  1
  O  O279  1  0.86661750  0.00790870  0.24922163  1
  O  O280  1  0.86532464  0.00699146  0.75088212  1
  O  O281  1  0.88016448  0.51269128  0.25663082  1
  O  O282  1  0.87119702  0.50239547  0.75542539  1
  O  O283  1  0.12023503  0.36272784  0.36410623  1
  O  O284  1  0.11957331  0.38029795  0.87037823  1
  O  O285  1  0.11776358  0.87365423  0.37302453  1
  O  O286  1  0.11778156  0.86711405  0.86831058  1
  O  O287  1  0.61869052  0.36999881  0.38135177  1
  O  O288  1  0.62319426  0.36862446  0.86502905  1
  O  O289  1  0.62210690  0.86977484  0.37217621  1
  O  O290  1  0.61845070  0.87205902  0.86565816  1
  O  O291  1  0.38406808  0.10927223  0.13155681  1
  O  O292  1  0.38075944  0.12857175  0.63475834  1
  O  O293  1  0.36953431  0.63592328  0.14026383  1
  O  O294  1  0.38740889  0.62226017  0.62964780  1
  O  O295  1  0.87812381  0.13159311  0.12851064  1
  O  O296  1  0.88798446  0.11663059  0.63682684  1
  O  O297  1  0.88169979  0.62365221  0.12961409  1
  O  O298  1  0.88710401  0.63178565  0.62598576  1
  O  O299  1  0.24602402  0.25395452  0.12271965  1
  O  O300  1  0.25185736  0.25216117  0.62379175  1
  O  O301  1  0.25355451  0.75346639  0.11541845  1
  O  O302  1  0.25183826  0.75535267  0.61111951  1
  O  O303  1  0.76139360  0.25172973  0.12885407  1
  O  O304  1  0.74682006  0.26244219  0.62851491  1
  O  O305  1  0.75207785  0.76014617  0.11596321  1
  O  O306  1  0.75866589  0.75508085  0.61762972  1
  O  O307  1  0.23668164  0.23994307  0.38615065  1
  O  O308  1  0.23917351  0.24520877  0.87141862  1
  O  O309  1  0.25228090  0.76055539  0.39615073  1
  O  O310  1  0.24159623  0.74190422  0.88054554  1
  O  O311  1  0.74420000  0.23759882  0.37449556  1
  O  O312  1  0.74111117  0.25502386  0.86076014  1
  O  O313  1  0.74034385  0.75577316  0.38318463  1
  O  O314  1  0.74485656  0.74513432  0.87920466  1
  O  O315  1  0.00183772  0.11446446  0.00476741  1
  O  O316  1  -0.00584463  0.12118341  0.51565199  1
  O  O317  1  0.00262072  0.61398558  0.00737676  1
  O  O318  1  0.00448601  0.62859482  0.51766377  1
  O  O319  1  0.51737735  0.12369416  0.00441069  1
  O  O320  1  0.50654380  0.11769963  0.50383924  1
  O  O321  1  0.50871143  0.61624485  -0.00139063  1
  O  O322  1  0.50603847  0.62296406  0.50675115  1
  O  O323  1  0.49345079  0.38304073  0.49880034  1
  O  O324  1  0.50241702  0.39842723  0.99281268  1
  O  O325  1  0.49365251  0.88032941  0.49621543  1
  O  O326  1  0.49991284  0.87359278  0.98451053  1
  O  O327  1  1.00366514  0.37853630  0.51561209  1
  O  O328  1  0.99049416  0.38545155  1.00723034  1
  O  O329  1  0.99339148  0.87807790  0.49412745  1
  O  O330  1  0.99280850  0.87833817  0.99494111  1
  O  O331  1  0.49500530  0.49420376  0.38756275  1
  O  O332  1  0.49934448  0.50693995  0.88326878  1
  O  O333  1  0.49132838  0.99659975  0.38333499  1
  O  O334  1  0.49181329  0.99176324  0.87419505  1
  O  O335  1  0.98579578  0.49935600  0.37010700  1
  O  O336  1  0.99030149  0.50767840  0.88091643  1
  O  O337  1  0.99789452  0.98966783  0.37841511  1
  O  O338  1  1.00436009  0.98702802  0.88853340  1
  O  O339  1  0.00509305  0.00198634  0.11365207  1
  O  O340  1  0.00827943  0.00972005  0.62554291  1
  O  O341  1  0.00664398  0.50416475  0.11490688  1
  O  O342  1  0.01101499  0.51192005  0.63116550  1
  O  O343  1  0.51870757  -0.01920218  0.11598303  1
  O  O344  1  0.50336964  0.00866423  0.61825238  1
  O  O345  1  0.49850029  0.50235699  0.11663644  1
  O  O346  1  0.50801081  0.50828270  0.62083521  1
  O  O347  1  0.23596998  0.36925169  0.23770326  1
  O  O348  1  0.25517781  0.38393207  0.73915346  1
  O  O349  1  0.25013379  0.86678744  0.23829602  1
  O  O350  1  0.24144348  0.88163769  0.74925175  1
  O  O351  1  0.75286688  0.37516830  0.23678116  1
  O  O352  1  0.74754096  0.38779840  0.73958264  1
  O  O353  1  0.74754261  0.87875296  0.24282096  1
  O  O354  1  0.74372319  0.88482150  0.75001574  1
  O  O355  1  0.25580285  0.13078241  0.26122861  1
  O  O356  1  0.26008142  0.11559182  0.74723427  1
  O  O357  1  0.25626197  0.63073621  0.25170811  1
  O  O358  1  0.25697751  0.62240134  0.75427633  1
  O  O359  1  0.75570176  0.12001075  0.25830881  1
  O  O360  1  0.76376453  0.11511998  0.74646459  1
  O  O361  1  0.76497184  0.62613440  0.24941265  1
  O  O362  1  0.75105858  0.61479705  0.75302902  1
  O  O363  1  0.36423063  0.10508940  0.38526478  1
  O  O364  1  0.38392862  0.11649296  0.86334831  1
  O  O365  1  0.38074559  0.62066529  0.36076413  1
  O  O366  1  0.36503468  0.63031904  0.86501560  1
  O  O367  1  0.86764822  0.12214315  0.37034197  1
  O  O368  1  0.87725744  0.12227653  0.86397687  1
  O  O369  1  0.87998509  0.62215542  0.36523681  1
  O  O370  1  0.87007778  0.61874157  0.87298491  1
  O  O371  1  0.13293879  0.37816034  0.13050193  1
  O  O372  1  0.13326796  0.37983425  0.63496757  1
  O  O373  1  0.13344703  0.88110243  0.12234770  1
  O  O374  1  0.12140432  0.88168249  0.63856425  1
  O  O375  1  0.64391963  0.37344413  0.12035513  1
  O  O376  1  0.63425456  0.38170855  0.62960675  1
  O  O377  1  0.63768989  0.87860952  0.12686456  1
  O  O378  1  0.62387116  0.87649558  0.63954141  1
  O  O379  1  0.11543225  0.25352287  0.25816872  1
  O  O380  1  0.10884798  0.24958983  0.75372712  1
  O  O381  1  0.11802833  0.75761771  0.24910810  1
  O  O382  1  0.13220008  0.75860098  0.75866303  1
  O  O383  1  0.62904780  0.24704671  0.26763731  1
  O  O384  1  0.61928449  0.25373701  0.75156575  1
  O  O385  1  0.62568307  0.75434712  0.25795995  1
  O  O386  1  0.62154892  0.75819429  0.75552462  1
  O  O387  1  0.38252053  0.24791699  0.30234992  1
  O  O388  1  0.38245666  0.24265525  0.74439625  1
  O  O389  1  0.38203095  0.73959312  0.24763336  1
  O  O390  1  0.37972588  0.73898211  0.75086710  1
  O  O391  1  0.88026572  0.24495685  0.24450743  1
  O  O392  1  0.88328180  0.23513942  0.75122740  1
  O  O393  1  0.87911434  0.73562234  0.24754782  1
  O  O394  1  0.86806993  0.74887547  0.73670748  1
  O  O395  1  0.37989448  0.49771497  0.49562491  1
  O  O396  1  0.38658505  0.50768222  1.00172958  1
  O  O397  1  0.38450869  0.98961652  0.49790996  1
  O  O398  1  0.37549146  0.99790453  0.98650619  1
  O  O399  1  0.87521940  0.49336974  0.48691656  1
  O  O400  1  0.88260071  0.49287862  0.99057144  1
  O  O401  1  0.87353805  0.98635319  0.50176794  1
  O  O402  1  0.88134156  0.98627204  1.00400220  1
  O  O403  1  0.11685995  0.00590947  0.00749520  1
  O  O404  1  0.12806283  -0.00775879  0.51698824  1
  O  O405  1  0.11839187  0.50446495  0.00496478  1
  O  O406  1  0.13012040  0.49742015  0.51094746  1
  O  O407  1  0.62614286  0.01078812  0.00397183  1
  O  O408  1  0.61244968  0.00501135  0.50000096  1
  O  O409  1  0.62092594  0.51242573  -0.00716758  1
  O  O410  1  0.62237760  0.51078497  0.50203845  1
  O  O411  1  0.35330180  0.37877842  0.12459667  1
  O  O412  1  0.37007480  0.36733346  0.62169495  1
  O  O413  1  0.36418072  0.85959753  0.11964700  1
  O  O414  1  0.38011352  0.87894056  0.61393664  1
  O  O415  1  0.86554439  0.36975492  0.11838885  1
  O  O416  1  0.85751710  0.38330259  0.62188928  1
  O  O417  1  0.86431665  0.87448939  0.11874914  1
  O  O418  1  0.87901789  0.86716826  0.61835794  1
  O  O419  1  0.13348682  0.13025731  0.37184188  1
  O  O420  1  0.11791347  0.11741459  0.89121473  1
  O  O421  1  0.11829124  0.63122478  0.37635454  1
  O  O422  1  0.13038063  0.63137475  0.87813089  1
  O  O423  1  0.63063691  0.13213591  0.38287951  1
  O  O424  1  0.62608873  0.13220586  0.88422205  1
  O  O425  1  0.62370903  0.63554998  0.39170208  1
  O  O426  1  0.63259924  0.63055283  0.87954024  1
