# generated using pymatgen
data_V85Zn86O256
_symmetry_space_group_name_H-M   'P 1'
_cell_length_a   16.94017852
_cell_length_b   16.93654622
_cell_length_c   16.94902196
_cell_angle_alpha   90.07881201
_cell_angle_beta   89.94557162
_cell_angle_gamma   89.98781475
_symmetry_Int_Tables_number   1
_chemical_formula_structural   V85Zn86O256
_chemical_formula_sum   'V85 Zn86 O256'
_cell_volume   4862.80505890
_cell_formula_units_Z   1
loop_
 _symmetry_equiv_pos_site_id
 _symmetry_equiv_pos_as_xyz
  1  'x, y, z'
loop_
 _atom_site_type_symbol
 _atom_site_label
 _atom_site_symmetry_multiplicity
 _atom_site_fract_x
 _atom_site_fract_y
 _atom_site_fract_z
 _atom_site_occupancy
  V  V0  1  0.62460514  0.88485359  0.75706772  1
  V  V1  1  0.24908580  0.63115392  0.37737928  1
  V  V2  1  0.74746212  0.87806203  0.11761967  1
  V  V3  1  0.49830000  0.12076106  0.61858971  1
  V  V4  1  0.37586878  0.37414161  0.00001739  1
  V  V5  1  0.00052764  0.24767547  0.75338861  1
  V  V6  1  0.75152129  0.50075524  0.75048039  1
  V  V7  1  0.62244310  0.63078320  0.49889389  1
  V  V8  1  0.87491002  0.24353558  0.12129693  1
  V  V9  1  0.39481032  -0.00376744  0.37231269  1
  V  V10  1  0.00212378  0.37701462  0.37051841  1
  V  V11  1  0.62446616  0.86957817  0.25897097  1
  V  V12  1  0.87700056  0.74960010  0.62085372  1
  V  V13  1  0.62237052  0.37437191  0.24843557  1
  V  V14  1  0.12439729  0.87987938  0.75673803  1
  V  V15  1  0.37212775  0.75037692  0.63168102  1
  V  V16  1  0.63030542  0.62851498  -0.00201437  1
  V  V17  1  0.88413861  0.86989462  -0.00343261  1
  V  V18  1  0.37500543  0.22802811  0.12343146  1
  V  V19  1  0.24925419  0.75479784  0.50122233  1
  V  V20  1  0.62018046  0.50161720  0.12451220  1
  V  V21  1  0.49549906  0.23604421  0.24318440  1
  V  V22  1  0.25718323  0.86557286  0.13842204  1
  V  V23  1  -0.00046557  0.62659673  0.12107910  1
  V  V24  1  0.88196616  0.12110431  0.24553829  1
  V  V25  1  0.87688652  0.62666600  0.75050792  1
  V  V26  1  0.74826392  0.49930413  0.24812080  1
  V  V27  1  0.87829980  -0.01161537  0.37256317  1
  V  V28  1  0.12338621  0.11269637  0.00135186  1
  V  V29  1  0.24736422  0.24647864  0.49719836  1
  V  V30  1  0.75085109  0.75573735  0.49613008  1
  V  V31  1  0.86346329  0.74857294  0.11928965  1
  V  V32  1  0.61240245  -0.00008174  0.12772461  1
  V  V33  1  0.12064803  0.37609782  0.76039222  1
  V  V34  1  0.62478065  0.37527854  0.74957138  1
  V  V35  1  0.49829566  0.37327054  0.37265891  1
  V  V36  1  0.49914935  0.50606543  0.00222462  1
  V  V37  1  0.12014923  0.75293511  0.87641084  1
  V  V38  1  0.49802932  0.24955712  0.74961911  1
  V  V39  1  0.49417736  -0.00885269  -0.01508994  1
  V  V40  1  0.86865545  0.12414154  0.75070538  1
  V  V41  1  0.01794358  0.87381240  0.36814883  1
  V  V42  1  0.25542754  0.11321056  0.36119208  1
  V  V43  1  0.62275049  0.00063130  0.61941570  1
  V  V44  1  0.62471674  0.24968746  0.37178757  1
  V  V45  1  0.36855233  0.11688227  0.76153587  1
  V  V46  1  0.12384141  0.49800084  0.12080530  1
  V  V47  1  0.12718872  0.24147758  0.87722205  1
  V  V48  1  0.00281464  0.50422841  0.49530215  1
  V  V49  1  0.87702473  0.50149422  0.37190926  1
  V  V50  1  0.12448670  0.49980842  0.62630170  1
  V  V51  1  0.12992508  0.63020609  -0.00139095  1
  V  V52  1  0.93469098  0.93469870  0.54934653  1
  V  V53  1  0.49483908  0.62502504  0.63347280  1
  V  V54  1  0.37507248  0.50154886  0.37450065  1
  V  V55  1  0.50022756  0.37673879  0.87547522  1
  V  V56  1  0.88397335  0.24536733  0.62273939  1
  V  V57  1  0.88007636  0.37032126  -0.00455681  1
  V  V58  1  0.37194893  0.85937774  -0.00326769  1
  V  V59  1  0.37338025  0.37341792  0.49760184  1
  V  V60  1  0.00263033  0.24702571  0.24340137  1
  V  V61  1  0.25733850  0.50337603  0.75000283  1
  V  V62  1  0.74886471  0.88196502  0.62849046  1
  V  V63  1  0.88294392  0.49367792  0.87302823  1
  V  V64  1  0.25228500  0.89083036  0.63036335  1
  V  V65  1  0.25808792  0.63192131  0.87373010  1
  V  V66  1  0.63209471  0.75350937  0.87668914  1
  V  V67  1  0.37320520  0.24839630  0.62537490  1
  V  V68  1  0.74554628  0.62952905  0.37336277  1
  V  V69  1  0.11381091  0.11826844  0.50518323  1
  V  V70  1  0.74975158  0.25199442  0.49775349  1
  V  V71  1  0.12620829  0.24701355  0.37212757  1
  V  V72  1  0.87554561  0.37644651  0.49841475  1
  V  V73  1  0.61902520  0.12274881  0.00559179  1
  V  V74  1  0.87237618  -0.00437592  0.87544217  1
  V  V75  1  0.24990890  0.49882852  0.24883329  1
  V  V76  1  0.37833240  0.63024712  0.23213540  1
  V  V77  1  0.49788056  0.75490466  0.75783818  1
  V  V78  1  0.87047875  0.62730598  0.24638659  1
  V  V79  1  0.75318073  0.12327623  0.37443401  1
  V  V80  1  0.62473287  0.50192013  0.62488206  1
  V  V81  1  0.24975728  0.36950237  0.12194480  1
  V  V82  1  0.12863980  -0.00786574  0.14125871  1
  V  V83  1  0.75018777  0.37482849  0.62310270  1
  V  V84  1  0.62645392  0.24823266  0.87667013  1
  Zn  Zn85  1  0.25259966  0.24574066  -0.01022404  1
  Zn  Zn86  1  0.75478824  0.62729821  0.87904551  1
  Zn  Zn87  1  -0.00263707  0.00290273  0.00488739  1
  Zn  Zn88  1  0.74443853  0.11791494  0.87279491  1
  Zn  Zn89  1  -0.00046666  0.75395303  0.75208747  1
  Zn  Zn90  1  0.49670175  0.74768712  0.24839249  1
  Zn  Zn91  1  0.00189160  0.62768853  0.62352720  1
  Zn  Zn92  1  0.38667225  0.88564585  0.50687051  1
  Zn  Zn93  1  0.12655319  0.62959177  0.50171240  1
  Zn  Zn94  1  0.00363982  0.49345990  -0.00624822  1
  Zn  Zn95  1  0.37745664  0.50557757  0.87110951  1
  Zn  Zn96  1  0.75136057  0.00105979  0.24569481  1
  Zn  Zn97  1  0.23845642  0.01515188  0.79879562  1
  Zn  Zn98  1  0.61870620  0.12268692  0.49428451  1
  Zn  Zn99  1  0.24769637  0.37420733  0.62556526  1
  Zn  Zn100  1  0.12496592  0.37342659  0.24699039  1
  Zn  Zn101  1  0.00757878  0.75654101  0.25016747  1
  Zn  Zn102  1  0.49835787  0.50159266  0.50111250  1
  Zn  Zn103  1  0.11889706  0.00646977  0.63119349  1
  Zn  Zn104  1  0.74916579  0.24747220  -0.00008178  1
  Zn  Zn105  1  0.51179493  0.85598991  0.39145467  1
  Zn  Zn106  1  0.75033117  0.37144425  0.12230538  1
  Zn  Zn107  1  0.18635422  0.17908378  0.17880258  1
  Zn  Zn108  1  0.18811436  0.18496931  0.68711063  1
  Zn  Zn109  1  0.18692952  0.69558929  0.19265299  1
  Zn  Zn110  1  0.18850171  0.68859500  0.69031704  1
  Zn  Zn111  1  0.68907461  0.18396714  0.18695685  1
  Zn  Zn112  1  0.68800363  0.18800612  0.68607033  1
  Zn  Zn113  1  0.65587529  0.70751433  0.16651780  1
  Zn  Zn114  1  0.68829280  0.69175212  0.68886799  1
  Zn  Zn115  1  0.31271077  0.30737847  0.30744122  1
  Zn  Zn116  1  0.30969964  0.31465523  0.81073130  1
  Zn  Zn117  1  0.32065097  0.81491944  0.31442667  1
  Zn  Zn118  1  0.30836973  0.81639546  0.81414306  1
  Zn  Zn119  1  0.81391326  0.31236718  0.30870918  1
  Zn  Zn120  1  0.81166322  0.31152414  0.81217654  1
  Zn  Zn121  1  0.80698377  0.81136191  0.30515029  1
  Zn  Zn122  1  0.80986173  0.81446386  0.81181357  1
  Zn  Zn123  1  0.18698382  0.43639335  0.43556009  1
  Zn  Zn124  1  0.18963190  0.43938424  0.93507085  1
  Zn  Zn125  1  0.19325595  0.94038244  0.44217105  1
  Zn  Zn126  1  0.19393845  0.92566319  0.94471247  1
  Zn  Zn127  1  0.68499039  0.44126250  0.43575682  1
  Zn  Zn128  1  0.69333355  0.43604043  0.93781448  1
  Zn  Zn129  1  0.69088154  0.93983672  0.44105465  1
  Zn  Zn130  1  0.68977784  0.93722460  0.94082997  1
  Zn  Zn131  1  0.29181664  0.03972932  0.01896899  1
  Zn  Zn132  1  0.31442527  0.06604300  0.55512006  1
  Zn  Zn133  1  0.30892235  0.56069749  0.05719286  1
  Zn  Zn134  1  0.31354283  0.56460380  0.56383368  1
  Zn  Zn135  1  0.80716199  0.06130779  0.05790927  1
  Zn  Zn136  1  0.80539644  0.06808781  0.56562478  1
  Zn  Zn137  1  0.81005682  0.55755598  0.06041984  1
  Zn  Zn138  1  0.81224813  0.56538494  0.56176779  1
  Zn  Zn139  1  0.43630240  0.43507271  0.18579608  1
  Zn  Zn140  1  0.43712623  0.43547893  0.68480469  1
  Zn  Zn141  1  0.43200749  0.93893949  0.19073868  1
  Zn  Zn142  1  0.43914895  0.93844212  0.69170653  1
  Zn  Zn143  1  0.93766548  0.43476717  0.18226663  1
  Zn  Zn144  1  0.94056222  0.43514553  0.68586401  1
  Zn  Zn145  1  0.94335869  0.93590655  0.18502711  1
  Zn  Zn146  1  0.93844438  0.93779189  0.71181820  1
  Zn  Zn147  1  0.06239967  0.05958189  0.31861585  1
  Zn  Zn148  1  0.05382765  0.06398172  0.81565217  1
  Zn  Zn149  1  0.07544316  0.59036540  0.29813184  1
  Zn  Zn150  1  0.06314712  0.56622464  0.81182644  1
  Zn  Zn151  1  0.56523280  0.05958252  0.30974631  1
  Zn  Zn152  1  0.55812180  0.06402938  0.80971485  1
  Zn  Zn153  1  0.55872299  0.56769464  0.31531270  1
  Zn  Zn154  1  0.56277065  0.56512345  0.81446894  1
  Zn  Zn155  1  0.43502385  0.18423844  0.43307027  1
  Zn  Zn156  1  0.44256903  0.18529969  0.94237087  1
  Zn  Zn157  1  0.43718091  0.69364226  0.43927517  1
  Zn  Zn158  1  0.44012608  0.69081109  0.93966215  1
  Zn  Zn159  1  0.93722865  0.18750473  0.43172412  1
  Zn  Zn160  1  0.94366438  0.18292193  0.93426910  1
  Zn  Zn161  1  0.93690697  0.69153424  0.43586780  1
  Zn  Zn162  1  0.93870354  0.68676115  0.93828750  1
  Zn  Zn163  1  0.06053997  0.30804931  0.05925372  1
  Zn  Zn164  1  0.06389276  0.31544643  0.56213112  1
  Zn  Zn165  1  0.06607708  0.81301304  0.06823865  1
  Zn  Zn166  1  0.07141078  0.81223609  0.56935571  1
  Zn  Zn167  1  0.55883158  0.31243683  0.06458100  1
  Zn  Zn168  1  0.56083157  0.31072770  0.55961716  1
  Zn  Zn169  1  0.55087718  0.81015082  0.06650704  1
  Zn  Zn170  1  0.56270664  0.81080463  0.56839597  1
  O  O171  1  0.12696035  0.10737401  0.11364114  1
  O  O172  1  0.12488195  0.12527807  0.61129254  1
  O  O173  1  0.11712381  0.61870914  0.11543057  1
  O  O174  1  0.12325299  0.61219531  0.62463491  1
  O  O175  1  0.62889129  0.11411857  0.11750941  1
  O  O176  1  0.61679981  0.11851332  0.62680862  1
  O  O177  1  0.63416775  0.60614107  0.11459004  1
  O  O178  1  0.62033935  0.61972362  0.62105607  1
  O  O179  1  0.37740555  0.38280108  0.37589909  1
  O  O180  1  0.37965994  0.37412665  0.88565877  1
  O  O181  1  0.38634161  0.88621814  0.37812987  1
  O  O182  1  0.37415412  0.86025648  0.89537481  1
  O  O183  1  0.88070187  0.38123783  0.37882426  1
  O  O184  1  0.87197365  0.38134476  0.88092142  1
  O  O185  1  0.86999429  0.88735063  0.37083215  1
  O  O186  1  0.86986945  0.88356502  0.88155828  1
  O  O187  1  0.24788914  0.01207334  0.37149701  1
  O  O188  1  0.26258420  0.00433894  0.90581601  1
  O  O189  1  0.25778954  0.49982710  0.36571761  1
  O  O190  1  0.25254990  0.50791260  0.86551558  1
  O  O191  1  0.75872687  0.00969783  0.37478122  1
  O  O192  1  0.76442104  0.00233874  0.88169760  1
  O  O193  1  0.75418546  0.50613914  0.36437476  1
  O  O194  1  0.76035584  0.50046938  0.86449573  1
  O  O195  1  0.24517581  0.48900780  0.12904616  1
  O  O196  1  0.24260863  0.49932562  0.63188010  1
  O  O197  1  0.23509063  0.98643699  0.11487752  1
  O  O198  1  0.25131660  0.99280697  0.62142436  1
  O  O199  1  0.74557107  0.49446300  0.13663661  1
  O  O200  1  0.74653267  0.49424744  0.63024470  1
  O  O201  1  0.74078040  0.99289842  0.12408341  1
  O  O202  1  0.74208894  0.99223547  0.62423665  1
  O  O203  1  0.00153884  0.36683518  0.25370045  1
  O  O204  1  0.00861774  0.36203398  0.74371406  1
  O  O205  1  0.00326455  0.87345062  0.26325786  1
  O  O206  1  0.01792198  0.87229761  0.75192488  1
  O  O207  1  0.50561611  0.36948650  0.25488268  1
  O  O208  1  0.50489776  0.36966431  0.75482278  1
  O  O209  1  0.51830917  0.87324104  0.24840193  1
  O  O210  1  0.51139572  0.86586135  0.74637842  1
  O  O211  1  0.50523531  0.13780743  0.25099720  1
  O  O212  1  0.49085116  0.13293871  0.73974729  1
  O  O213  1  0.47931702  0.61425633  0.24978770  1
  O  O214  1  0.50617928  0.63243627  0.73919088  1
  O  O215  1  0.98895920  0.13217398  0.25835830  1
  O  O216  1  0.98688965  0.13829761  0.75005839  1
  O  O217  1  0.97851383  0.60885864  0.23387917  1
  O  O218  1  0.98700565  0.62514716  0.74534201  1
  O  O219  1  0.37470774  0.25656049  0.00596611  1
  O  O220  1  0.36674231  0.25235241  0.50463177  1
  O  O221  1  0.39697233  0.76244667  0.01513431  1
  O  O222  1  0.36724080  0.75234192  0.51638740  1
  O  O223  1  0.87601746  0.25085625  0.00573849  1
  O  O224  1  0.87148671  0.25459942  0.50489837  1
  O  O225  1  0.87496252  0.75491309  0.00699134  1
  O  O226  1  0.86591357  0.74396657  0.51298675  1
  O  O227  1  0.13083255  0.24580996  0.49426104  1
  O  O228  1  0.12432282  0.24312440  0.99096975  1
  O  O229  1  0.14335645  0.74679954  0.50911777  1
  O  O230  1  0.11805280  0.73729970  0.99406163  1
  O  O231  1  0.63246326  0.24944228  0.49035851  1
  O  O232  1  0.62063097  0.24222595  0.99392097  1
  O  O233  1  0.63634186  0.73727513  0.51122321  1
  O  O234  1  0.61663127  0.73906171  0.98923689  1
  O  O235  1  0.48705801  0.25091927  0.13053993  1
  O  O236  1  0.49216298  0.24637917  0.63071569  1
  O  O237  1  0.54498371  0.73470561  0.14580911  1
  O  O238  1  0.49413218  0.74255273  0.63702316  1
  O  O239  1  0.99085815  0.25180233  0.13635229  1
  O  O240  1  0.98807020  0.25553170  0.62774266  1
  O  O241  1  0.99001525  0.74001748  0.12810874  1
  O  O242  1  0.99127054  0.74927210  0.62603562  1
  O  O243  1  0.00464380  0.25613334  0.36330026  1
  O  O244  1  0.01195532  0.24989520  0.86446009  1
  O  O245  1  -0.00920296  0.77165872  0.37634369  1
  O  O246  1  0.01498277  0.74055056  0.87079296  1
  O  O247  1  0.50309986  0.25466077  0.36677598  1
  O  O248  1  0.50947076  0.25616047  0.87083034  1
  O  O249  1  0.49940110  0.74494766  0.36377776  1
  O  O250  1  0.51111104  0.74025593  0.86143211  1
  O  O251  1  0.24197500  0.13671304  0.49285244  1
  O  O252  1  0.22879376  0.13410361  1.00309766  1
  O  O253  1  0.25355074  0.63392589  0.49446883  1
  O  O254  1  0.23957284  0.62012689  0.98896880  1
  O  O255  1  0.74993447  0.13371905  0.48785579  1
  O  O256  1  0.73383873  0.12793181  0.99524553  1
  O  O257  1  0.74309126  0.63205173  0.49531488  1
  O  O258  1  0.73537891  0.61651287  0.99642341  1
  O  O259  1  0.25794024  0.37269515  0.00515389  1
  O  O260  1  0.25405386  0.36308785  0.49995188  1
  O  O261  1  0.26698050  0.86543411  0.01143013  1
  O  O262  1  0.25366356  0.86966263  0.51183344  1
  O  O263  1  0.76239198  0.36903677  0.00205477  1
  O  O264  1  0.75596966  0.37239722  0.50183091  1
  O  O265  1  0.75984971  0.87623328  0.01249005  1
  O  O266  1  0.74424469  0.86556966  0.51269231  1
  O  O267  1  0.13767454  0.50170418  0.24147613  1
  O  O268  1  0.12771827  0.49304352  0.74467326  1
  O  O269  1  0.12564843  1.00576912  0.23950579  1
  O  O270  1  0.12765272  0.99851571  0.75331307  1
  O  O271  1  0.62885135  0.49715694  0.24386322  1
  O  O272  1  0.63093591  0.49496349  0.74481865  1
  O  O273  1  0.62977964  0.99452670  0.24110171  1
  O  O274  1  0.62037743  0.99053151  0.74285724  1
  O  O275  1  0.38245164  0.00251508  0.27103457  1
  O  O276  1  0.37661730  0.01549179  0.75195037  1
  O  O277  1  0.36500033  0.50166911  0.25420928  1
  O  O278  1  0.36126873  0.49291401  0.74989609  1
  O  O279  1  0.87641202  0.00637726  0.25495565  1
  O  O280  1  0.87163826  0.00937094  0.76283137  1
  O  O281  1  0.86473938  0.50050807  0.25245127  1
  O  O282  1  0.87173870  0.50464314  0.75294586  1
  O  O283  1  0.11974379  0.36633036  0.37017469  1
  O  O284  1  0.12375920  0.37242543  0.86397052  1
  O  O285  1  0.11589039  0.87740418  0.38105553  1
  O  O286  1  0.13200341  0.86362475  0.87113052  1
  O  O287  1  0.61901547  0.37003359  0.36882704  1
  O  O288  1  0.62007061  0.36958077  0.87040897  1
  O  O289  1  0.62568884  0.88953657  0.36188138  1
  O  O290  1  0.63149362  0.86879431  0.86716521  1
  O  O291  1  0.36325492  0.13293732  0.11090983  1
  O  O292  1  0.37966922  0.13413811  0.62875033  1
  O  O293  1  0.36973636  0.61813113  0.13416899  1
  O  O294  1  0.38436434  0.63365725  0.62513390  1
  O  O295  1  0.87078493  0.13024541  0.13332382  1
  O  O296  1  0.86969988  0.13582805  0.63259855  1
  O  O297  1  0.87634336  0.62996510  0.12538507  1
  O  O298  1  0.87592857  0.63394467  0.63153794  1
  O  O299  1  0.25647636  0.25980079  0.12541091  1
  O  O300  1  0.25699899  0.25077446  0.61658446  1
  O  O301  1  0.24259902  0.76447415  0.12701080  1
  O  O302  1  0.25780563  0.75807741  0.62533390  1
  O  O303  1  0.76237890  0.25010526  0.12485323  1
  O  O304  1  0.75704647  0.25710200  0.61761337  1
  O  O305  1  0.75802588  0.75638021  0.12807592  1
  O  O306  1  0.75908379  0.75883883  0.61971530  1
  O  O307  1  0.24575250  0.24433444  0.38037784  1
  O  O308  1  0.23259081  0.25652534  0.87202759  1
  O  O309  1  0.26237129  0.74166258  0.38678966  1
  O  O310  1  0.23745610  0.73832092  0.86761238  1
  O  O311  1  0.74740511  0.24379044  0.37715735  1
  O  O312  1  0.73461482  0.25120922  0.87553781  1
  O  O313  1  0.75942826  0.74551466  0.38885695  1
  O  O314  1  0.73664217  0.74587696  0.86934747  1
  O  O315  1  0.01627817  0.12571931  0.00187580  1
  O  O316  1  0.01578190  0.13126558  0.49294934  1
  O  O317  1  0.00374286  0.61938703  0.01013617  1
  O  O318  1  0.00265925  0.61529964  0.49814411  1
  O  O319  1  0.51055195  0.11069508  -0.00252764  1
  O  O320  1  0.50132475  0.13568649  0.51445693  1
  O  O321  1  0.51039056  0.61035478  -0.00710220  1
  O  O322  1  0.50767232  0.62583668  0.51238271  1
  O  O323  1  0.49171225  0.37500467  0.49082699  1
  O  O324  1  0.49387734  0.38286689  0.99482976  1
  O  O325  1  0.50043925  0.87226611  0.50313511  1
  O  O326  1  0.49678631  0.88564821  1.00357965  1
  O  O327  1  0.99509134  0.38521970  0.49300401  1
  O  O328  1  0.98549548  0.37540975  1.00333793  1
  O  O329  1  0.99818900  0.87454053  0.49660185  1
  O  O330  1  0.98630919  0.87218437  1.00411661  1
  O  O331  1  0.49100818  0.49293942  0.37767643  1
  O  O332  1  0.49784814  0.49331752  0.88007388  1
  O  O333  1  0.49520601  1.00779304  0.38258428  1
  O  O334  1  0.50326661  0.99735222  0.88618147  1
  O  O335  1  0.99704232  0.49737002  0.37954728  1
  O  O336  1  0.98701163  0.50300822  0.87335279  1
  O  O337  1  0.99311767  0.98557831  0.37710472  1
  O  O338  1  0.97907759  1.00444442  0.88072232  1
  O  O339  1  0.01990840  -0.01040077  0.12118137  1
  O  O340  1  -0.00941262  -0.01225507  0.61544870  1
  O  O341  1  0.00823424  0.50419469  0.12088019  1
  O  O342  1  0.00642478  0.50102185  0.61422917  1
  O  O343  1  0.51084535  -0.00408294  0.12178387  1
  O  O344  1  0.50757911  0.01086414  0.62971350  1
  O  O345  1  0.50846535  0.49270993  0.11495448  1
  O  O346  1  0.50438660  0.50741427  0.62416309  1
  O  O347  1  0.24901290  0.38160930  0.24043889  1
  O  O348  1  0.23900411  0.38421646  0.74715308  1
  O  O349  1  0.25661501  0.87165978  0.23944607  1
  O  O350  1  0.24191384  0.88490219  0.74703619  1
  O  O351  1  0.74099879  0.38264859  0.25077113  1
  O  O352  1  0.74398061  0.37965860  0.74258299  1
  O  O353  1  0.74498479  0.88190178  0.23771116  1
  O  O354  1  0.74102973  0.87054399  0.73686728  1
  O  O355  1  0.24781822  0.13200580  0.26436450  1
  O  O356  1  0.26329044  0.12212776  0.74789644  1
  O  O357  1  0.26213553  0.61641834  0.25777830  1
  O  O358  1  0.24355173  0.61372825  0.75977314  1
  O  O359  1  0.76214511  0.12502885  0.26002660  1
  O  O360  1  0.76362855  0.13533626  0.75359306  1
  O  O361  1  0.75845431  0.61716764  0.25196806  1
  O  O362  1  0.76163871  0.61889151  0.74782916  1
  O  O363  1  0.36174980  0.11689067  0.37837924  1
  O  O364  1  0.38073295  0.13666575  0.85841812  1
  O  O365  1  0.36758230  0.61040339  0.37593826  1
  O  O366  1  0.36288342  0.62572945  0.88147482  1
  O  O367  1  0.87070648  0.11625705  0.36819308  1
  O  O368  1  0.86985518  0.11922434  0.86904595  1
  O  O369  1  0.86988419  0.62030129  0.36489563  1
  O  O370  1  0.87328173  0.61853459  0.86681079  1
  O  O371  1  0.13311957  0.37843027  0.12301676  1
  O  O372  1  0.12585264  0.38592463  0.63252461  1
  O  O373  1  0.13628397  0.88253709  0.12441334  1
  O  O374  1  0.13477980  0.88295332  0.63632231  1
  O  O375  1  0.62757392  0.38339059  0.12984892  1
  O  O376  1  0.62897202  0.38078222  0.62830733  1
  O  O377  1  0.63284334  0.88267326  0.13174877  1
  O  O378  1  0.63249538  0.88305219  0.63355608  1
  O  O379  1  0.11679968  0.24710402  0.25096718  1
  O  O380  1  0.11861576  0.25447765  0.75279608  1
  O  O381  1  0.10355150  0.69889694  0.26289694  1
  O  O382  1  0.12397492  0.75905694  0.75702345  1
  O  O383  1  0.61946536  0.25560559  0.25220616  1
  O  O384  1  0.61879388  0.25553069  0.75597380  1
  O  O385  1  0.64594866  0.77072894  0.26436862  1
  O  O386  1  0.61928373  0.75981273  0.75564321  1
  O  O387  1  0.38310741  0.25132267  0.23587021  1
  O  O388  1  0.37725255  0.24722425  0.74046013  1
  O  O389  1  0.37467377  0.73316645  0.24740098  1
  O  O390  1  0.38295548  0.75739712  0.74120862  1
  O  O391  1  0.88200671  0.24277355  0.24281809  1
  O  O392  1  0.88161715  0.24805118  0.74276290  1
  O  O393  1  0.87694063  0.74002856  0.24058125  1
  O  O394  1  0.87537530  0.74421903  0.74126442  1
  O  O395  1  0.37342925  0.49168742  0.49190621  1
  O  O396  1  0.38306221  0.49204753  0.99747721  1
  O  O397  1  0.36561486  0.99943028  0.48061899  1
  O  O398  1  0.39278516  0.98686543  1.00472943  1
  O  O399  1  0.88204173  0.49780901  0.49297918  1
  O  O400  1  0.87492741  0.49025713  0.98995483  1
  O  O401  1  0.87557797  0.99995829  0.49521618  1
  O  O402  1  0.87687329  0.99184687  0.99432940  1
  O  O403  1  0.11902840  0.00646367  -0.00431826  1
  O  O404  1  0.12678382  0.01501063  0.50456952  1
  O  O405  1  0.12359856  0.50782017  0.00337292  1
  O  O406  1  0.11773676  0.49698415  0.50830032  1
  O  O407  1  0.61657738  0.00309967  0.00679222  1
  O  O408  1  0.63007876  0.00558022  0.51494541  1
  O  O409  1  0.61885325  0.50052982  0.00520092  1
  O  O410  1  0.62462921  0.51079472  0.50812482  1
  O  O411  1  0.36759925  0.37288613  0.11269549  1
  O  O412  1  0.37359288  0.36282923  0.61822385  1
  O  O413  1  0.36401206  0.87947860  0.12140062  1
  O  O414  1  0.36742045  0.87056909  0.62869646  1
  O  O415  1  0.87281745  0.36248684  0.11779200  1
  O  O416  1  0.86958915  0.36889916  0.61721249  1
  O  O417  1  0.86927620  0.86675258  0.11992715  1
  O  O418  1  0.87459796  0.87646629  0.62022804  1
  O  O419  1  0.13369022  0.12933115  0.38366025  1
  O  O420  1  0.12119073  0.13123316  0.88340108  1
  O  O421  1  0.14766909  0.60801291  0.38670967  1
  O  O422  1  0.13155703  0.62881230  0.88175996  1
  O  O423  1  0.63584385  0.13081909  0.37358268  1
  O  O424  1  0.62317447  0.13293390  0.87887229  1
  O  O425  1  0.63254817  0.61858065  0.38696893  1
  O  O426  1  0.62990391  0.63134411  0.88104131  1
