# generated using pymatgen
data_V85Zn86O256
_symmetry_space_group_name_H-M   'P 1'
_cell_length_a   16.92418747
_cell_length_b   16.94108143
_cell_length_c   16.92144597
_cell_angle_alpha   90.05813979
_cell_angle_beta   89.96998861
_cell_angle_gamma   90.05606495
_symmetry_Int_Tables_number   1
_chemical_formula_structural   V85Zn86O256
_chemical_formula_sum   'V85 Zn86 O256'
_cell_volume   4851.61061938
_cell_formula_units_Z   1
loop_
 _symmetry_equiv_pos_site_id
 _symmetry_equiv_pos_as_xyz
  1  'x, y, z'
loop_
 _atom_site_type_symbol
 _atom_site_label
 _atom_site_symmetry_multiplicity
 _atom_site_fract_x
 _atom_site_fract_y
 _atom_site_fract_z
 _atom_site_occupancy
  V  V0  1  0.12237537  0.87509459  0.74973626  1
  V  V1  1  0.37896591  0.62723231  0.25218855  1
  V  V2  1  0.39179366  0.74669792  0.62904654  1
  V  V3  1  0.37408730  0.49802102  0.37597063  1
  V  V4  1  0.87517471  0.50168454  0.36367867  1
  V  V5  1  0.24772159  0.49443498  0.75064362  1
  V  V6  1  0.25102609  0.24864625  -0.00032705  1
  V  V7  1  0.86673593  0.12963985  0.75211776  1
  V  V8  1  0.37643181  0.25138048  0.12577452  1
  V  V9  1  0.24533146  0.24669028  0.48916301  1
  V  V10  1  0.11688720  0.12416168  0.00082379  1
  V  V11  1  0.86945433  0.75749758  0.62345603  1
  V  V12  1  0.86987718  0.75027287  0.12357409  1
  V  V13  1  0.12364802  0.00232057  0.62427922  1
  V  V14  1  0.73617482  0.00136202  0.24527740  1
  V  V15  1  0.62624630  0.86908189  0.74204623  1
  V  V16  1  0.37780690  0.75140244  0.12879518  1
  V  V17  1  0.75424014  0.37791713  0.13622925  1
  V  V18  1  0.74565090  0.62231989  0.37092646  1
  V  V19  1  0.23642643  0.37683093  0.12670295  1
  V  V20  1  0.12727048  0.12565562  0.48519761  1
  V  V21  1  0.74456204  0.75488042  0.49830034  1
  V  V22  1  0.63822128  0.62707604  -0.00187151  1
  V  V23  1  0.01688301  0.24644632  0.25127366  1
  V  V24  1  0.00361900  0.49509211  0.00741133  1
  V  V25  1  0.38176973  0.87872126  0.50260392  1
  V  V26  1  0.24769325  0.00188501  0.25836441  1
  V  V27  1  0.62604082  0.51092332  0.62472318  1
  V  V28  1  0.12249239  0.62564372  0.50279803  1
  V  V29  1  0.01042662  0.37096891  0.36793452  1
  V  V30  1  0.50351569  0.62881583  0.12735602  1
  V  V31  1  0.86983318  0.24477628  0.14268304  1
  V  V32  1  -0.00307985  0.87673982  0.87574506  1
  V  V33  1  0.50799323  0.25132006  0.25463871  1
  V  V34  1  0.25047403  0.75091250  0.00070196  1
  V  V35  1  0.86828227  0.87135334  -0.00119505  1
  V  V36  1  0.38841154  0.62691613  0.74870125  1
  V  V37  1  0.51105644  0.00029032  0.00172794  1
  V  V38  1  0.50609566  0.37367538  0.37762196  1
  V  V39  1  0.50836898  0.12422052  0.12482084  1
  V  V40  1  0.24883361  0.00127785  0.75143037  1
  V  V41  1  0.00144575  0.62501366  0.12811627  1
  V  V42  1  -0.01085838  0.62292292  0.62867830  1
  V  V43  1  0.12744422  0.62009053  0.00569622  1
  V  V44  1  0.50253930  0.86845223  0.87019150  1
  V  V45  1  0.25143915  0.62461684  0.87449431  1
  V  V46  1  0.12199912  0.49325208  0.63052277  1
  V  V47  1  -0.00467518  0.49692585  0.49808214  1
  V  V48  1  0.37833580  0.37508945  0.00209313  1
  V  V49  1  0.87515993  0.50315592  0.87159491  1
  V  V50  1  0.37112775  0.12741895  0.25585336  1
  V  V51  1  0.24678666  0.87569753  0.13314942  1
  V  V52  1  0.12606678  0.24940150  0.86961270  1
  V  V53  1  0.86216988  0.25325946  0.61464952  1
  V  V54  1  0.24753529  0.75083257  0.50891543  1
  V  V55  1  0.63528984  0.75095754  0.87651440  1
  V  V56  1  0.00340951  0.25291712  0.74875199  1
  V  V57  1  0.12472640  0.75834648  0.36934815  1
  V  V58  1  0.37717808  -0.00091601  0.87548079  1
  V  V59  1  -0.00018584  0.12799033  0.62069242  1
  V  V60  1  0.63573905  0.13318897  -0.00744032  1
  V  V61  1  0.23754389  0.49559893  0.24649605  1
  V  V62  1  0.50141760  0.12044666  0.62003196  1
  V  V63  1  0.37205499  0.37330079  0.50532015  1
  V  V64  1  0.37797212  0.50086545  0.87525396  1
  V  V65  1  0.62778959  -0.00238935  0.61168718  1
  V  V66  1  0.37806889  0.12466942  0.75048163  1
  V  V67  1  0.00659076  0.37268636  0.87389442  1
  V  V68  1  0.74112137  0.87396703  0.12435934  1
  V  V69  1  0.86939552  0.00625933  0.87616845  1
  V  V70  1  0.12211061  -0.00220213  0.12884032  1
  V  V71  1  0.50583502  0.49980257  -0.00056780  1
  V  V72  1  0.38118819  0.00298166  0.38028175  1
  V  V73  1  0.37553684  0.87639599  -0.00008933  1
  V  V74  1  0.62409428  0.14346213  0.49264609  1
  V  V75  1  0.87182690  -0.00356142  0.36494111  1
  V  V76  1  0.12368609  0.74975915  0.87512314  1
  V  V77  1  0.63226381  0.50031577  0.13352845  1
  V  V78  1  0.87061007  0.36254136  0.00081017  1
  V  V79  1  -0.00793571  0.74485906  0.75058779  1
  V  V80  1  0.50367198  0.25145514  0.75344131  1
  V  V81  1  0.24878575  0.62401554  0.37602568  1
  V  V82  1  0.75081726  0.13180541  0.37368362  1
  V  V83  1  0.74885187  -0.00248150  0.74339305  1
  V  V84  1  0.64015725  0.37535937  0.74279757  1
  Zn  Zn85  1  0.24276010  0.36894227  0.62996654  1
  Zn  Zn86  1  0.87281903  0.62666899  0.24781084  1
  Zn  Zn87  1  -0.00595991  0.00005191  0.49711265  1
  Zn  Zn88  1  0.37184570  0.24868200  0.62647108  1
  Zn  Zn89  1  0.61425936  0.62832651  0.50216141  1
  Zn  Zn90  1  0.49536961  0.86846298  0.36382726  1
  Zn  Zn91  1  0.00176406  0.87913964  0.37177240  1
  Zn  Zn92  1  0.76350163  0.50663394  0.73553392  1
  Zn  Zn93  1  -0.00692019  0.12100154  0.13175881  1
  Zn  Zn94  1  0.25120600  0.12517080  0.87729940  1
  Zn  Zn95  1  0.87284640  0.87942747  0.50000298  1
  Zn  Zn96  1  0.50787507  0.37345987  0.87519856  1
  Zn  Zn97  1  0.61043423  0.86871042  0.24627382  1
  Zn  Zn98  1  0.64491574  0.25286335  0.87374770  1
  Zn  Zn99  1  0.63065043  0.37686374  0.25635190  1
  Zn  Zn100  1  0.49440753  0.50287105  0.51149224  1
  Zn  Zn101  1  0.25030393  0.87346810  0.62820585  1
  Zn  Zn102  1  0.86512658  0.37399132  0.50044847  1
  Zn  Zn103  1  0.60649439  0.74681793  0.36174426  1
  Zn  Zn104  1  0.76180795  0.63252280  0.87079770  1
  Zn  Zn105  1  0.00100904  0.75931470  0.24695584  1
  Zn  Zn106  1  -0.00357345  0.00029134  0.00325676  1
  Zn  Zn107  1  0.18957381  0.18475297  0.18533821  1
  Zn  Zn108  1  0.18976047  0.18665639  0.68391662  1
  Zn  Zn109  1  0.19101054  0.68429814  0.18845788  1
  Zn  Zn110  1  0.18395447  0.68047171  0.68999610  1
  Zn  Zn111  1  0.68944136  0.18761204  0.18799377  1
  Zn  Zn112  1  0.68659466  0.18624918  0.68556867  1
  Zn  Zn113  1  0.69073032  0.68798071  0.18774881  1
  Zn  Zn114  1  0.69426632  0.68530014  0.69205134  1
  Zn  Zn115  1  0.31240355  0.31454135  0.31211235  1
  Zn  Zn116  1  0.31694071  0.31368941  0.81422024  1
  Zn  Zn117  1  0.31632522  0.81205831  0.31609015  1
  Zn  Zn118  1  0.31296245  0.81227278  0.81012726  1
  Zn  Zn119  1  0.79380236  0.33320507  0.34360991  1
  Zn  Zn120  1  0.81924083  0.31741811  0.80817037  1
  Zn  Zn121  1  0.80638683  0.81078280  0.30843424  1
  Zn  Zn122  1  0.81083481  0.81598928  0.80845361  1
  Zn  Zn123  1  0.18777145  0.43716161  0.44139351  1
  Zn  Zn124  1  0.18850225  0.43599275  0.93938717  1
  Zn  Zn125  1  0.19222545  0.93795969  0.44248403  1
  Zn  Zn126  1  0.18685662  0.93774018  0.93950484  1
  Zn  Zn127  1  0.69013178  0.43926794  0.44971894  1
  Zn  Zn128  1  0.69193615  0.42985220  0.93923539  1
  Zn  Zn129  1  0.68413062  0.93269452  0.42998015  1
  Zn  Zn130  1  0.68972229  0.94046529  0.93499841  1
  Zn  Zn131  1  0.31368968  0.06383727  0.06471445  1
  Zn  Zn132  1  0.31014562  0.06526110  0.56353882  1
  Zn  Zn133  1  0.31403940  0.55974445  0.06552590  1
  Zn  Zn134  1  0.31330335  0.56400294  0.56590919  1
  Zn  Zn135  1  0.81355710  0.05900433  0.06929620  1
  Zn  Zn136  1  0.80941896  0.06591589  0.55629723  1
  Zn  Zn137  1  0.81670407  0.55681748  0.06031118  1
  Zn  Zn138  1  0.80731643  0.56522448  0.55793542  1
  Zn  Zn139  1  0.43668787  0.43946219  0.18871673  1
  Zn  Zn140  1  0.44108455  0.43686254  0.69006726  1
  Zn  Zn141  1  0.43585905  0.94362085  0.18530860  1
  Zn  Zn142  1  0.44132590  0.93682703  0.68591872  1
  Zn  Zn143  1  0.94268937  0.43349009  0.18957118  1
  Zn  Zn144  1  0.93799809  0.43068230  0.68647748  1
  Zn  Zn145  1  0.93612588  0.93314278  0.19292642  1
  Zn  Zn146  1  0.93714554  0.93925069  0.68744368  1
  Zn  Zn147  1  0.05887113  0.06003172  0.30791555  1
  Zn  Zn148  1  0.05702752  0.06681810  0.81346316  1
  Zn  Zn149  1  0.06230228  0.56669028  0.31428012  1
  Zn  Zn150  1  0.06146610  0.56226502  0.81451756  1
  Zn  Zn151  1  0.56110116  0.05998586  0.31412639  1
  Zn  Zn152  1  0.56564215  0.06007212  0.81236231  1
  Zn  Zn153  1  0.55940747  0.56347930  0.31644538  1
  Zn  Zn154  1  0.57129123  0.56086563  0.81139206  1
  Zn  Zn155  1  0.43700238  0.18899592  0.43837110  1
  Zn  Zn156  1  0.44202923  0.18673911  0.93623348  1
  Zn  Zn157  1  0.43962549  0.68583970  0.44422787  1
  Zn  Zn158  1  0.44230472  0.68738291  0.93850556  1
  Zn  Zn159  1  0.93663137  0.18408245  0.43023378  1
  Zn  Zn160  1  0.81820683  0.18777028  0.94165155  1
  Zn  Zn161  1  0.93596257  0.68806475  0.43892015  1
  Zn  Zn162  1  0.93943478  0.68742196  0.94279884  1
  Zn  Zn163  1  0.05811283  0.30555389  0.06100153  1
  Zn  Zn164  1  0.06091756  0.31183783  0.55577888  1
  Zn  Zn165  1  0.06006397  0.81352671  0.06247474  1
  Zn  Zn166  1  0.05706883  0.81644224  0.55920385  1
  Zn  Zn167  1  0.56694812  0.31215756  0.06594924  1
  Zn  Zn168  1  0.55941208  0.31564927  0.56838237  1
  Zn  Zn169  1  0.56263943  0.80857684  0.05981761  1
  Zn  Zn170  1  0.56453943  0.81466510  0.55699749  1
  O  O171  1  0.12472434  0.11598024  0.11740062  1
  O  O172  1  0.11684737  0.11850218  0.62096604  1
  O  O173  1  0.11995852  0.63175636  0.11275391  1
  O  O174  1  0.11385032  0.61490724  0.62060855  1
  O  O175  1  0.61442481  0.13081550  0.11413263  1
  O  O176  1  0.62153967  0.12084546  0.61157945  1
  O  O177  1  0.62172737  0.61934644  0.11765361  1
  O  O178  1  0.62470860  0.61328647  0.62926936  1
  O  O179  1  0.37836883  0.38169197  0.38538812  1
  O  O180  1  0.38122370  0.38324993  0.88375647  1
  O  O181  1  0.37070041  0.88453690  0.38634793  1
  O  O182  1  0.38343490  0.87812631  0.87848942  1
  O  O183  1  0.89356790  0.38929976  0.37077689  1
  O  O184  1  0.88946553  0.37943229  0.88385976  1
  O  O185  1  0.86964945  0.88851324  0.37370308  1
  O  O186  1  0.87742880  0.88122071  0.88090005  1
  O  O187  1  0.25472882  -0.00496593  0.36204251  1
  O  O188  1  0.25457509  -0.00059756  0.86498563  1
  O  O189  1  0.25775820  0.50128544  0.36981094  1
  O  O190  1  0.25585912  0.50491764  0.87033733  1
  O  O191  1  0.75291053  0.00473838  0.36337303  1
  O  O192  1  0.76186968  -0.00294349  0.86236390  1
  O  O193  1  0.76050532  0.51519740  0.38149034  1
  O  O194  1  0.77170094  0.49416689  0.88019699  1
  O  O195  1  0.25385986  0.48986312  0.13377046  1
  O  O196  1  0.23966089  0.49970933  0.63317710  1
  O  O197  1  0.24579511  0.99304389  0.13285127  1
  O  O198  1  0.24399059  0.99975601  0.63798117  1
  O  O199  1  0.74334083  0.49421854  0.12431037  1
  O  O200  1  0.73691534  0.49888280  0.62134008  1
  O  O201  1  0.75363826  0.99158402  0.13863448  1
  O  O202  1  0.74291926  1.00752768  0.63438611  1
  O  O203  1  0.00485458  0.36575066  0.25939294  1
  O  O204  1  -0.00049674  0.36094153  0.75691927  1
  O  O205  1  0.00271160  0.87207986  0.25755457  1
  O  O206  1  0.00379737  0.86777339  0.75613830  1
  O  O207  1  0.49667554  0.36716994  0.25817268  1
  O  O208  1  0.50902714  0.36530729  0.75219332  1
  O  O209  1  0.49525510  0.87760071  0.24722405  1
  O  O210  1  0.51165657  0.88258127  0.76045623  1
  O  O211  1  0.49554613  0.13069250  0.24334438  1
  O  O212  1  0.49851696  0.12974985  0.74452272  1
  O  O213  1  0.49038442  0.61787477  0.23970045  1
  O  O214  1  0.48732915  0.62150772  0.75847591  1
  O  O215  1  1.00127162  0.14180556  0.25048987  1
  O  O216  1  0.98983523  0.13506527  0.74366808  1
  O  O217  1  1.00336720  0.62910095  0.23556998  1
  O  O218  1  1.00392558  0.63376383  0.74239284  1
  O  O219  1  0.37236354  0.25435368  0.00401607  1
  O  O220  1  0.36442287  0.25565484  0.50252638  1
  O  O221  1  0.36972897  0.75448626  0.00652095  1
  O  O222  1  0.36584920  0.75512989  0.51509136  1
  O  O223  1  0.88131592  0.26004689  0.01225183  1
  O  O224  1  0.88271591  0.24514907  0.51350883  1
  O  O225  1  0.87843407  0.76141160  0.00571786  1
  O  O226  1  0.86631730  0.75193306  0.50726346  1
  O  O227  1  0.13640817  0.24215184  0.50188512  1
  O  O228  1  0.12906900  0.24193283  0.99063352  1
  O  O229  1  0.13051488  0.74495152  0.49638279  1
  O  O230  1  0.13046762  0.74401531  0.99383429  1
  O  O231  1  0.62154702  0.24156245  0.50069678  1
  O  O232  1  0.62148078  0.23640992  0.99650519  1
  O  O233  1  0.63623061  0.74716564  0.49967019  1
  O  O234  1  0.62298872  0.73858534  0.99019180  1
  O  O235  1  0.49389678  0.24465705  0.13102254  1
  O  O236  1  0.49922869  0.23883228  0.63630810  1
  O  O237  1  0.49340574  0.73573786  0.11768237  1
  O  O238  1  0.48963594  0.75172042  0.62471532  1
  O  O239  1  0.99224410  0.25121837  0.13873685  1
  O  O240  1  1.00181933  0.24087076  0.63059083  1
  O  O241  1  0.99152869  0.74194663  0.12273249  1
  O  O242  1  0.99484329  0.74189890  0.63166847  1
  O  O243  1  -0.00319600  0.26055366  0.36330443  1
  O  O244  1  0.00968178  0.25724724  0.86582884  1
  O  O245  1  0.01674583  0.74559837  0.37599741  1
  O  O246  1  0.00244331  0.75374773  0.86799727  1
  O  O247  1  0.49301766  0.26056023  0.36625283  1
  O  O248  1  0.50523799  0.24931066  0.86217633  1
  O  O249  1  0.49127666  0.75338194  0.37553790  1
  O  O250  1  0.50888001  0.76375428  0.88087895  1
  O  O251  1  0.24268080  0.13790503  0.50333527  1
  O  O252  1  0.24284969  0.13215024  0.99957566  1
  O  O253  1  0.24500720  0.63115348  0.49614103  1
  O  O254  1  0.24466181  0.62808678  0.99706832  1
  O  O255  1  0.73714317  0.12685915  0.48472851  1
  O  O256  1  0.73924447  0.12131646  1.00388555  1
  O  O257  1  0.74555121  0.63491304  0.48903401  1
  O  O258  1  0.74092845  0.61876249  0.99401389  1
  O  O259  1  0.25883064  0.36963748  0.00570174  1
  O  O260  1  0.25395676  0.36500891  0.50358458  1
  O  O261  1  0.25683365  0.87014589  0.00575265  1
  O  O262  1  0.25761523  0.86561297  0.50710829  1
  O  O263  1  0.76315534  0.37967523  0.01573095  1
  O  O264  1  0.76365801  0.35959470  0.45309026  1
  O  O265  1  0.76111733  0.88410400  0.00683236  1
  O  O266  1  0.75164421  0.85860301  0.49462915  1
  O  O267  1  0.13849795  0.50560025  0.25379537  1
  O  O268  1  0.13365454  0.50608356  0.74302133  1
  O  O269  1  0.13362133  1.00579049  0.23798629  1
  O  O270  1  0.13030686  0.99853748  0.74674405  1
  O  O271  1  0.61680202  0.49933810  0.23570377  1
  O  O272  1  0.62829742  0.48868808  0.74225387  1
  O  O273  1  0.63345405  0.99436266  0.25021576  1
  O  O274  1  0.63376393  0.99470734  0.74315973  1
  O  O275  1  0.36643001  0.01013813  0.25623763  1
  O  O276  1  0.36792813  0.00241962  0.75494470  1
  O  O277  1  0.36823606  0.50868697  0.25700131  1
  O  O278  1  0.37031833  0.50737976  0.75505259  1
  O  O279  1  0.86225247  0.00082365  0.25982661  1
  O  O280  1  0.86876751  0.00824465  0.75319565  1
  O  O281  1  0.88383371  0.50584342  0.25995944  1
  O  O282  1  0.88042165  0.49092652  0.76694783  1
  O  O283  1  0.10914593  0.38156712  0.37920393  1
  O  O284  1  0.11493613  0.36622837  0.88126399  1
  O  O285  1  0.12948395  0.86026464  0.38157966  1
  O  O286  1  0.11782891  0.86996740  0.87095681  1
  O  O287  1  0.60807985  0.38861166  0.37363507  1
  O  O288  1  0.62630454  0.37454352  0.86172783  1
  O  O289  1  0.61526169  0.86877327  0.37106487  1
  O  O290  1  0.62081806  0.86973138  0.86975506  1
  O  O291  1  0.38429004  0.13200020  0.13274135  1
  O  O292  1  0.38515430  0.12362204  0.63145403  1
  O  O293  1  0.38355735  0.62789669  0.13203173  1
  O  O294  1  0.37162323  0.63838956  0.63368399  1
  O  O295  1  0.87566205  0.14094648  0.12220714  1
  O  O296  1  0.88162160  0.13298041  0.62959246  1
  O  O297  1  0.88317539  0.63188328  0.12139805  1
  O  O298  1  0.88529211  0.63264854  0.62044521  1
  O  O299  1  0.25736129  0.25658767  0.11955353  1
  O  O300  1  0.25280409  0.25323788  0.61709540  1
  O  O301  1  0.25487258  0.75740776  0.12068864  1
  O  O302  1  0.24623687  0.74811000  0.61673871  1
  O  O303  1  0.76267346  0.25780282  0.13123162  1
  O  O304  1  0.76377516  0.24545222  0.62325022  1
  O  O305  1  0.76278278  0.75648903  0.12314739  1
  O  O306  1  0.75830401  0.74295662  0.61186284  1
  O  O307  1  0.25247380  0.25368138  0.38968818  1
  O  O308  1  0.24288025  0.25080245  0.87999983  1
  O  O309  1  0.24290593  0.74564813  0.38744361  1
  O  O310  1  0.24540111  0.74440786  0.88004889  1
  O  O311  1  0.74816239  0.22719998  0.35136826  1
  O  O312  1  0.75834086  0.25562955  0.87742584  1
  O  O313  1  0.75432120  0.73829417  0.38569810  1
  O  O314  1  0.74002769  0.75266417  0.87487973  1
  O  O315  1  0.01455320  0.12199351  0.00521879  1
  O  O316  1  0.00813548  0.12439382  0.50566394  1
  O  O317  1  0.00808980  0.61719441  0.00905708  1
  O  O318  1  0.00364733  0.61754732  0.50823122  1
  O  O319  1  0.50839944  0.11912842  0.00554260  1
  O  O320  1  0.51165904  0.12866909  0.50644435  1
  O  O321  1  0.50834958  0.61685768  0.00724416  1
  O  O322  1  0.50001588  0.61518846  0.50240294  1
  O  O323  1  0.48984442  0.37603340  0.49474243  1
  O  O324  1  0.49803912  0.38300067  1.00081586  1
  O  O325  1  0.48372278  0.87574181  0.50227993  1
  O  O326  1  0.49632136  0.88370178  0.99546543  1
  O  O327  1  0.99563636  0.38108199  0.48860564  1
  O  O328  1  0.99597370  0.37972298  0.99493573  1
  O  O329  1  0.99408593  0.88133758  0.49102074  1
  O  O330  1  0.99012267  0.87847045  0.99245714  1
  O  O331  1  0.48417038  0.49310852  0.37404507  1
  O  O332  1  0.49932605  0.50049398  0.88708633  1
  O  O333  1  0.48353514  0.99890291  0.37414495  1
  O  O334  1  0.49733551  0.99084275  0.88237092  1
  O  O335  1  0.99620604  0.49718320  0.38130118  1
  O  O336  1  0.99626786  0.49189217  0.88229340  1
  O  O337  1  0.98204538  1.00494929  0.37306684  1
  O  O338  1  0.98703827  0.99430970  0.87329225  1
  O  O339  1  0.00766707  0.00142162  0.12551902  1
  O  O340  1  0.00310214  0.01349185  0.62521209  1
  O  O341  1  -0.00310522  0.50635151  0.11549994  1
  O  O342  1  0.00175218  0.50459585  0.62089524  1
  O  O343  1  0.49245326  0.01282093  0.11201366  1
  O  O344  1  0.51116069  0.01361317  0.63094839  1
  O  O345  1  0.50529724  0.50838474  0.11556102  1
  O  O346  1  0.51932759  0.49099959  0.62768287  1
  O  O347  1  0.25572744  0.38322848  0.23951839  1
  O  O348  1  0.25663874  0.38978230  0.74984863  1
  O  O349  1  0.25694292  0.88242042  0.23910629  1
  O  O350  1  0.24130297  0.88263694  0.75003868  1
  O  O351  1  0.74958082  0.37524838  0.24226723  1
  O  O352  1  0.74248863  0.38172293  0.74879626  1
  O  O353  1  0.74825883  0.88530320  0.24025056  1
  O  O354  1  0.74075016  0.88590737  0.74853989  1
  O  O355  1  0.26124005  0.11643078  0.24379306  1
  O  O356  1  0.25802834  0.11717209  0.75255170  1
  O  O357  1  0.25733169  0.61558081  0.25523605  1
  O  O358  1  0.25651119  0.61531578  0.75734809  1
  O  O359  1  0.73957583  0.10886208  0.25642933  1
  O  O360  1  0.76107243  0.11951705  0.74630959  1
  O  O361  1  0.75369087  0.62710985  0.26612674  1
  O  O362  1  0.74877814  0.61664154  0.76024484  1
  O  O363  1  0.37759530  0.11998259  0.36455111  1
  O  O364  1  0.37557190  0.11655980  0.86877604  1
  O  O365  1  0.36743503  0.61700990  0.36928626  1
  O  O366  1  0.37050559  0.62141252  0.87079322  1
  O  O367  1  0.85816309  0.11438420  0.37804002  1
  O  O368  1  0.87681823  0.11786877  0.86600963  1
  O  O369  1  0.86951899  0.61853783  0.37413207  1
  O  O370  1  0.88075960  0.60697359  0.88459564  1
  O  O371  1  0.13774926  0.37009242  0.11491113  1
  O  O372  1  0.12106846  0.38956567  0.62067471  1
  O  O373  1  0.13632118  0.88347172  0.11655499  1
  O  O374  1  0.12266094  0.88466004  0.63218809  1
  O  O375  1  0.63586657  0.38344009  0.12572949  1
  O  O376  1  0.62683927  0.37789816  0.63848066  1
  O  O377  1  0.63860985  0.87130681  0.11747213  1
  O  O378  1  0.61797202  0.88475798  0.63178984  1
  O  O379  1  0.11604330  0.24973973  0.24602545  1
  O  O380  1  0.12006107  0.24166943  0.76143022  1
  O  O381  1  0.13098887  0.74446586  0.26726459  1
  O  O382  1  0.11510744  0.75328235  0.75563816  1
  O  O383  1  0.61102438  0.25421100  0.24391704  1
  O  O384  1  0.62317182  0.25928157  0.74977569  1
  O  O385  1  0.63152583  0.75563017  0.24991553  1
  O  O386  1  0.62972998  0.76315779  0.75572341  1
  O  O387  1  0.38078569  0.24339915  0.24563762  1
  O  O388  1  0.38430723  0.24350836  0.74967032  1
  O  O389  1  0.36387480  0.73444481  0.24375705  1
  O  O390  1  0.37029712  0.74340299  0.73694908  1
  O  O391  1  0.88179646  0.25506853  0.24065447  1
  O  O392  1  0.88344520  0.24504445  0.73853343  1
  O  O393  1  0.87796433  0.74709574  0.23878751  1
  O  O394  1  0.88495509  0.75309801  0.74387447  1
  O  O395  1  0.36966792  0.49127244  0.49357484  1
  O  O396  1  0.38483505  0.49655980  0.99567599  1
  O  O397  1  0.36266459  0.99229089  0.49214264  1
  O  O398  1  0.38198499  0.99645982  0.99280304  1
  O  O399  1  0.88624636  0.50028632  0.49525745  1
  O  O400  1  0.88759435  0.48869017  0.99331491  1
  O  O401  1  0.87015076  0.99927623  0.48577767  1
  O  O402  1  0.87553143  0.99597033  0.99162919  1
  O  O403  1  0.12605202  0.00689396  0.00972717  1
  O  O404  1  0.12722823  0.00783276  0.50911399  1
  O  O405  1  0.11661488  0.50850682  -0.00512290  1
  O  O406  1  0.11365979  0.50559672  0.50651026  1
  O  O407  1  0.61614825  0.01031787  -0.00500162  1
  O  O408  1  0.63304620  0.00277011  0.51010535  1
  O  O409  1  0.62073765  0.50510222  0.00597068  1
  O  O410  1  0.62201722  0.50125854  0.51395499  1
  O  O411  1  0.37248888  0.36951765  0.11786970  1
  O  O412  1  0.37422712  0.37578289  0.61389031  1
  O  O413  1  0.36593702  0.87169145  0.11742801  1
  O  O414  1  0.37273510  0.86398303  0.62443079  1
  O  O415  1  0.87195392  0.36786484  0.12153096  1
  O  O416  1  0.87863569  0.35862427  0.61977505  1
  O  O417  1  0.86852262  0.86891934  0.11695611  1
  O  O418  1  0.88048610  0.86113440  0.62429105  1
  O  O419  1  0.12254838  0.11679764  0.38640703  1
  O  O420  1  0.12665422  0.13153441  0.88227703  1
  O  O421  1  0.13157057  0.63205654  0.38403951  1
  O  O422  1  0.12924015  0.63023868  0.88589143  1
  O  O423  1  0.62899327  0.12000250  0.38723360  1
  O  O424  1  0.62373356  0.12722401  0.88919231  1
  O  O425  1  0.63478651  0.62493088  0.37714726  1
  O  O426  1  0.62431006  0.63475984  0.88270436  1
