# generated using pymatgen
data_V85Zn86O256
_symmetry_space_group_name_H-M   'P 1'
_cell_length_a   16.93696761
_cell_length_b   16.93373247
_cell_length_c   16.93177760
_cell_angle_alpha   89.96154172
_cell_angle_beta   89.98962221
_cell_angle_gamma   90.05142958
_symmetry_Int_Tables_number   1
_chemical_formula_structural   V85Zn86O256
_chemical_formula_sum   'V85 Zn86 O256'
_cell_volume   4856.13360464
_cell_formula_units_Z   1
loop_
 _symmetry_equiv_pos_site_id
 _symmetry_equiv_pos_as_xyz
  1  'x, y, z'
loop_
 _atom_site_type_symbol
 _atom_site_label
 _atom_site_symmetry_multiplicity
 _atom_site_fract_x
 _atom_site_fract_y
 _atom_site_fract_z
 _atom_site_occupancy
  V  V0  1  0.74724351  0.87341683  0.62639739  1
  V  V1  1  0.75418932  0.35739328  0.11917526  1
  V  V2  1  0.12121918  0.87261066  0.24969928  1
  V  V3  1  0.88478558  0.75091849  0.63255894  1
  V  V4  1  0.24989072  0.37726310  0.12373762  1
  V  V5  1  -0.00226619  0.00483280  0.50472050  1
  V  V6  1  0.11764782  0.25180127  0.87787820  1
  V  V7  1  0.87198467  0.50334521  0.36012931  1
  V  V8  1  0.87617710  0.00131296  0.37496280  1
  V  V9  1  0.89140592  0.12851332  0.74764259  1
  V  V10  1  -0.00036662  0.50334722  0.50464454  1
  V  V11  1  0.50497908  0.49826606  0.50427299  1
  V  V12  1  0.75257054  0.62290783  0.36442936  1
  V  V13  1  -0.00465565  0.25145579  0.24420079  1
  V  V14  1  0.00851894  -0.00192690  -0.00060635  1
  V  V15  1  0.62069341  0.87448094  0.25535684  1
  V  V16  1  0.24960070  0.62389324  0.38071419  1
  V  V17  1  0.51009318  0.62286046  0.62569835  1
  V  V18  1  0.37562934  0.12393964  0.75185808  1
  V  V19  1  0.62525896  0.87842070  0.75987825  1
  V  V20  1  0.37127104  0.75179915  0.61233745  1
  V  V21  1  0.24864730  0.74269376  -0.00279253  1
  V  V22  1  0.75044891  0.01021720  0.74865444  1
  V  V23  1  0.30512366  -0.05065814  0.30710167  1
  V  V24  1  0.74424481  0.38899283  0.62896457  1
  V  V25  1  0.87634582  0.36036067  -0.00102941  1
  V  V26  1  0.12335489  0.25033997  0.36986180  1
  V  V27  1  0.88011104  0.74513988  0.14187197  1
  V  V28  1  0.12960190  0.00276297  0.12934301  1
  V  V29  1  0.49504880  0.62239700  0.12834988  1
  V  V30  1  0.63148297  0.38037100  0.24928252  1
  V  V31  1  0.75056227  0.12691517  0.37563108  1
  V  V32  1  0.25056560  -0.00655808  0.74824190  1
  V  V33  1  0.87629926  0.00041757  0.87470399  1
  V  V34  1  0.50026519  0.49988016  0.00111437  1
  V  V35  1  0.87881490  0.87150303  0.00113691  1
  V  V36  1  0.62686202  0.00484139  0.12338827  1
  V  V37  1  0.62941185  0.24273425  0.88010050  1
  V  V38  1  0.12414773  0.37904648  0.24703098  1
  V  V39  1  0.37540493  0.25094682  0.12448064  1
  V  V40  1  0.00325839  0.12691696  0.12017793  1
  V  V41  1  0.37342227  0.62488690  0.74884914  1
  V  V42  1  0.48213718  -0.00961288  0.48981444  1
  V  V43  1  0.11984217  0.86743751  0.74952160  1
  V  V44  1  0.49718699  0.74622569  0.25356178  1
  V  V45  1  0.23619913  0.49595963  0.74331094  1
  V  V46  1  0.12668147  0.62322611  0.50886799  1
  V  V47  1  0.25135252  0.25220608  0.50009368  1
  V  V48  1  -0.00269258  0.86810188  0.37181211  1
  V  V49  1  0.50277892  0.12801879  0.11666193  1
  V  V50  1  0.49934432  0.75323308  0.75153366  1
  V  V51  1  0.74870619  0.62085125  0.87112497  1
  V  V52  1  0.87042379  0.37865934  0.49817849  1
  V  V53  1  0.75175161  0.87469487  0.12767169  1
  V  V54  1  0.25402104  0.87691725  0.11577205  1
  V  V55  1  0.24447210  0.24526660  -0.00002126  1
  V  V56  1  0.12076971  0.50617776  0.10625270  1
  V  V57  1  0.12063960  0.12650851  0.50735535  1
  V  V58  1  0.49949461  0.24995643  0.24914403  1
  V  V59  1  0.25046895  0.87085245  0.61255297  1
  V  V60  1  0.00343924  0.62893166  0.12626722  1
  V  V61  1  0.12245746  0.74529709  0.37758723  1
  V  V62  1  0.11579188  0.74140552  0.87729459  1
  V  V63  1  0.37592899  0.75025644  0.11993857  1
  V  V64  1  0.87095743  0.24944648  0.63109208  1
  V  V65  1  0.05688737  0.31118896  0.70289921  1
  V  V66  1  0.24458702  0.12181427  0.87937748  1
  V  V67  1  0.49214540  -0.00983732  0.00120816  1
  V  V68  1  0.62256437  0.12101757  0.50267671  1
  V  V69  1  0.37690369  0.50446569  0.37083970  1
  V  V70  1  0.87557127  0.12701756  0.24614584  1
  V  V71  1  0.37605599  0.37375201  -0.00181336  1
  V  V72  1  0.63998682  0.50236568  0.12624559  1
  V  V73  1  0.37572747  0.49921258  0.87208260  1
  V  V74  1  0.37555118  0.25271664  0.62690297  1
  V  V75  1  0.62243568  0.75021221  0.38102685  1
  V  V76  1  0.87943123  0.50159932  0.88394997  1
  V  V77  1  0.62758263  0.62730097  0.00032579  1
  V  V78  1  0.49991135  0.37636411  0.37547276  1
  V  V79  1  0.87395738  0.87385382  0.50136459  1
  V  V80  1  0.62466537  0.38637076  0.75081052  1
  V  V81  1  0.25022998  0.50815400  0.24819198  1
  V  V82  1  0.62538182  0.25012034  0.37543295  1
  V  V83  1  0.87588601  0.62281207  0.75088589  1
  V  V84  1  0.25574029  0.12757022  0.36812907  1
  Zn  Zn85  1  0.75145820  0.75139092  -0.00036545  1
  Zn  Zn86  1  0.61758853  -0.00072171  0.62479075  1
  Zn  Zn87  1  0.12157052  -0.00036957  0.62695004  1
  Zn  Zn88  1  0.24543799  0.62169417  0.87748570  1
  Zn  Zn89  1  0.74799130  0.25077261  0.50306412  1
  Zn  Zn90  1  0.50169626  0.37000646  0.87388395  1
  Zn  Zn91  1  0.49823911  0.12254154  0.62334429  1
  Zn  Zn92  1  -0.00162287  0.87061225  0.87004323  1
  Zn  Zn93  1  0.37247779  0.37765512  0.50221405  1
  Zn  Zn94  1  0.37486349  0.12080074  0.25052611  1
  Zn  Zn95  1  0.74781360  0.00089239  0.25311424  1
  Zn  Zn96  1  0.63085139  0.61844315  0.50381079  1
  Zn  Zn97  1  0.36893135  -0.00709544  0.88201786  1
  Zn  Zn98  1  0.50343872  0.24890289  0.74977155  1
  Zn  Zn99  1  0.49140948  0.87047403  0.87983527  1
  Zn  Zn100  1  0.75908139  0.14213587  0.89753884  1
  Zn  Zn101  1  0.00482956  0.62498586  0.63165752  1
  Zn  Zn102  1  -0.00471996  0.37984665  0.36887231  1
  Zn  Zn103  1  0.23887786  0.37627108  0.62802651  1
  Zn  Zn104  1  0.75093222  0.74685190  0.50158940  1
  Zn  Zn105  1  0.62658538  0.75129837  0.87672755  1
  Zn  Zn106  1  0.00698553  0.38192582  0.87927928  1
  Zn  Zn107  1  0.18658823  0.18662070  0.18658009  1
  Zn  Zn108  1  0.19360770  0.18349939  0.68742288  1
  Zn  Zn109  1  0.18476155  0.68723668  0.18833536  1
  Zn  Zn110  1  0.19037987  0.68843991  0.69112106  1
  Zn  Zn111  1  0.68587141  0.18760420  0.18872764  1
  Zn  Zn112  1  0.68644718  0.19339866  0.68995866  1
  Zn  Zn113  1  0.68753071  0.69055903  0.18733049  1
  Zn  Zn114  1  0.69103080  0.69087954  0.69151156  1
  Zn  Zn115  1  0.31352017  0.31729947  0.31120527  1
  Zn  Zn116  1  0.30878865  0.31322698  0.81227732  1
  Zn  Zn117  1  0.31101660  0.78706701  0.30589632  1
  Zn  Zn118  1  0.31088638  0.81291965  0.81362257  1
  Zn  Zn119  1  0.81093677  0.31416806  0.30941272  1
  Zn  Zn120  1  0.81090399  0.31582378  0.81092017  1
  Zn  Zn121  1  0.80747184  0.81208870  0.31532996  1
  Zn  Zn122  1  0.81067325  0.81063807  0.81412499  1
  Zn  Zn123  1  0.18435992  0.43884625  0.43751282  1
  Zn  Zn124  1  0.19160846  0.43315052  0.93087078  1
  Zn  Zn125  1  0.18109033  0.93671521  0.44086319  1
  Zn  Zn126  1  0.18636085  0.93111603  0.93708211  1
  Zn  Zn127  1  0.68991239  0.44042984  0.43720403  1
  Zn  Zn128  1  0.69070322  0.43689035  0.93643774  1
  Zn  Zn129  1  0.68591259  0.93896747  0.43804254  1
  Zn  Zn130  1  0.70513902  0.97455433  0.95613382  1
  Zn  Zn131  1  0.31355857  0.06478436  0.06615933  1
  Zn  Zn132  1  0.30995357  0.06357663  0.56255963  1
  Zn  Zn133  1  0.31253591  0.56298973  0.06178658  1
  Zn  Zn134  1  0.31582399  0.56078719  0.56336260  1
  Zn  Zn135  1  0.81925425  0.06253347  0.06655270  1
  Zn  Zn136  1  0.81092116  0.06500940  0.56492368  1
  Zn  Zn137  1  0.81837299  0.56556971  0.06064600  1
  Zn  Zn138  1  0.81343970  0.56687342  0.55815927  1
  Zn  Zn139  1  0.43882552  0.43916866  0.18868225  1
  Zn  Zn140  1  0.43841533  0.43640879  0.68717574  1
  Zn  Zn141  1  0.44266562  0.93107568  0.18267466  1
  Zn  Zn142  1  0.43675756  0.93783929  0.68211343  1
  Zn  Zn143  1  0.93801066  0.43840081  0.17850127  1
  Zn  Zn144  1  0.92522296  0.44694559  0.68878668  1
  Zn  Zn145  1  0.93912884  0.93856387  0.18866469  1
  Zn  Zn146  1  0.93715136  0.93893458  0.68701556  1
  Zn  Zn147  1  0.06450681  0.06069571  0.31312062  1
  Zn  Zn148  1  0.06697995  0.06056618  0.81381185  1
  Zn  Zn149  1  0.05724741  0.56380738  0.30990950  1
  Zn  Zn150  1  0.05652450  0.56424032  0.81456385  1
  Zn  Zn151  1  0.55763803  0.06201521  0.31297974  1
  Zn  Zn152  1  0.56301812  0.06315682  0.81600158  1
  Zn  Zn153  1  0.56702134  0.56400173  0.31258247  1
  Zn  Zn154  1  0.56103318  0.56296124  0.81357683  1
  Zn  Zn155  1  0.43853051  0.18487804  0.43900992  1
  Zn  Zn156  1  0.43871254  0.18578972  0.93494040  1
  Zn  Zn157  1  0.43991336  0.68341584  0.43755908  1
  Zn  Zn158  1  0.43640516  0.68732713  0.93749773  1
  Zn  Zn159  1  0.93650197  0.19183377  0.43692225  1
  Zn  Zn160  1  0.93901573  0.18391216  0.93739032  1
  Zn  Zn161  1  0.93509163  0.68701107  0.43839283  1
  Zn  Zn162  1  0.93906967  0.68381089  0.94509627  1
  Zn  Zn163  1  0.06204668  0.31482968  0.06032755  1
  Zn  Zn164  1  0.05710199  0.31372699  0.54323778  1
  Zn  Zn165  1  0.06345654  0.80935729  0.06209994  1
  Zn  Zn166  1  0.06388671  0.81167927  0.55878420  1
  Zn  Zn167  1  0.56603401  0.31409518  0.05977369  1
  Zn  Zn168  1  0.56229332  0.31043317  0.56453302  1
  Zn  Zn169  1  0.56470758  0.81298876  0.06497622  1
  Zn  Zn170  1  0.55854657  0.81750173  0.56481759  1
  O  O171  1  0.11822985  0.11162914  0.13071325  1
  O  O172  1  0.12875515  0.12524167  0.61059527  1
  O  O173  1  0.12060222  0.61479932  0.12439036  1
  O  O174  1  0.12427495  0.63441326  0.61257186  1
  O  O175  1  0.61607683  0.11608617  0.13275593  1
  O  O176  1  0.62494615  0.12477140  0.61599676  1
  O  O177  1  0.62023267  0.61944227  0.11954584  1
  O  O178  1  0.61347263  0.63305069  0.62558686  1
  O  O179  1  0.38002109  0.38676596  0.37753724  1
  O  O180  1  0.37743513  0.38195309  0.87874324  1
  O  O181  1  0.35421192  0.88243373  0.36049525  1
  O  O182  1  0.37921956  0.88115364  0.86761509  1
  O  O183  1  0.86990104  0.38240415  0.38283302  1
  O  O184  1  0.87183139  0.38404023  0.88481843  1
  O  O185  1  0.88047163  0.87895766  0.37926960  1
  O  O186  1  0.87872367  0.87860272  0.88388251  1
  O  O187  1  0.24572102  0.00735658  0.37136519  1
  O  O188  1  0.24730758  0.00517565  0.86955742  1
  O  O189  1  0.25531312  0.50450291  0.36802157  1
  O  O190  1  0.26079810  0.50146672  0.86551532  1
  O  O191  1  0.75732515  0.00858534  0.37295626  1
  O  O192  1  0.76232769  -0.01008330  0.85779640  1
  O  O193  1  0.75554346  0.51355279  0.37603563  1
  O  O194  1  0.75837621  0.51349664  0.88066290  1
  O  O195  1  0.24159659  0.50008621  0.13096213  1
  O  O196  1  0.25287264  0.49676892  0.63836114  1
  O  O197  1  0.24106269  0.99124844  0.11851973  1
  O  O198  1  0.24674514  0.99100299  0.63137571  1
  O  O199  1  0.74149079  0.49926143  0.12277722  1
  O  O200  1  0.75350869  0.48734709  0.62048360  1
  O  O201  1  0.74246862  0.99258245  0.13300341  1
  O  O202  1  0.75155745  0.98881250  0.63261304  1
  O  O203  1  0.00430859  0.36715917  0.24674265  1
  O  O204  1  -0.00193790  0.37728795  0.75440294  1
  O  O205  1  0.00801218  0.87865279  0.26067776  1
  O  O206  1  0.01567156  0.88220208  0.74950186  1
  O  O207  1  0.50897071  0.36979729  0.25447483  1
  O  O208  1  0.51309131  0.37344335  0.74908364  1
  O  O209  1  0.50950193  0.85968502  0.24361654  1
  O  O210  1  0.50748956  0.86812243  0.74693884  1
  O  O211  1  0.49717826  0.13404782  0.24174694  1
  O  O212  1  0.48482726  0.12084415  0.74970668  1
  O  O213  1  0.50969254  0.63424169  0.23938894  1
  O  O214  1  0.49418404  0.63105755  0.74397294  1
  O  O215  1  0.99585165  0.13068889  0.24350064  1
  O  O216  1  0.99075113  0.11837283  0.74915935  1
  O  O217  1  0.99761873  0.61610225  0.22996178  1
  O  O218  1  0.98369044  0.62129618  0.74729811  1
  O  O219  1  0.36711603  0.25392710  0.00413245  1
  O  O220  1  0.36609170  0.25081234  0.50695765  1
  O  O221  1  0.36934922  0.74616552  0.01173657  1
  O  O222  1  0.38027809  0.74656278  0.51397337  1
  O  O223  1  0.86990869  0.26107095  -0.00929728  1
  O  O224  1  0.87664205  0.26369981  0.50755123  1
  O  O225  1  0.87504015  0.76276056  0.00827964  1
  O  O226  1  0.87318638  0.75870489  0.50821772  1
  O  O227  1  0.12928071  0.24437388  0.48911419  1
  O  O228  1  0.13715405  0.25271278  0.99487092  1
  O  O229  1  0.12130521  0.74102321  0.48568683  1
  O  O230  1  0.13261476  0.75387218  0.98671376  1
  O  O231  1  0.62373321  0.23931222  0.49302936  1
  O  O232  1  0.62239656  0.25778605  0.97964245  1
  O  O233  1  0.62132582  0.75354918  0.48787071  1
  O  O234  1  0.62593229  0.73939611  1.00027109  1
  O  O235  1  0.49894825  0.24496099  0.12778106  1
  O  O236  1  0.48973749  0.24426169  0.62774223  1
  O  O237  1  0.49459422  0.74237586  0.12854439  1
  O  O238  1  0.49077907  0.74527843  0.63427503  1
  O  O239  1  1.00931065  0.23885665  0.13191209  1
  O  O240  1  0.99562402  0.26243134  0.63434966  1
  O  O241  1  0.98987387  0.74560616  0.12635183  1
  O  O242  1  0.98786999  0.74944556  0.62136733  1
  O  O243  1  0.00826017  0.25258449  0.36507441  1
  O  O244  1  0.01458640  0.24839746  0.88005076  1
  O  O245  1  0.00509653  0.75961205  0.37741158  1
  O  O246  1  0.01200639  0.74983019  0.88120393  1
  O  O247  1  0.50454909  0.25648996  0.36976798  1
  O  O248  1  0.50941562  0.25028610  0.87044343  1
  O  O249  1  0.50693354  0.74145194  0.36454955  1
  O  O250  1  0.50196948  0.74878185  0.86294085  1
  O  O251  1  0.24198995  0.13617593  0.49198531  1
  O  O252  1  0.25492152  0.13356736  0.99268932  1
  O  O253  1  0.23999533  0.61241857  0.49168916  1
  O  O254  1  0.25272675  0.63786592  0.99944063  1
  O  O255  1  0.74363268  0.12790790  0.49295235  1
  O  O256  1  0.74447260  0.08124758  0.98936953  1
  O  O257  1  0.74582378  0.62892093  0.49063925  1
  O  O258  1  0.74137360  0.62744237  0.99631687  1
  O  O259  1  0.25723910  0.36683074  0.00465632  1
  O  O260  1  0.24685917  0.36394772  0.50265276  1
  O  O261  1  0.24690696  0.86322717  0.01083369  1
  O  O262  1  0.24431260  0.87652394  0.51293691  1
  O  O263  1  0.75729276  0.37797162  0.01258082  1
  O  O264  1  0.75352434  0.37391911  0.50957739  1
  O  O265  1  0.75832119  0.87949613  0.01376482  1
  O  O266  1  0.75574324  0.87514169  0.50873805  1
  O  O267  1  0.13297104  0.49377729  0.24732215  1
  O  O268  1  0.13809880  0.50656984  0.75420894  1
  O  O269  1  0.12249335  0.98697935  0.24206174  1
  O  O270  1  0.13608890  0.99355410  0.74730052  1
  O  O271  1  0.62057041  0.48771299  0.24126304  1
  O  O272  1  0.62213341  0.48638423  0.75287187  1
  O  O273  1  0.62105527  0.99108254  0.24198690  1
  O  O274  1  0.63212740  0.99602226  0.74784611  1
  O  O275  1  0.37374792  -0.00051722  0.24865767  1
  O  O276  1  0.36265426  0.00612178  0.74711531  1
  O  O277  1  0.36479819  0.49615348  0.25790701  1
  O  O278  1  0.37472393  0.50909067  0.75549115  1
  O  O279  1  0.87591098  0.00929618  0.25760073  1
  O  O280  1  0.87053998  0.00837193  0.75175757  1
  O  O281  1  0.87798503  0.49024251  0.26140765  1
  O  O282  1  0.86960315  0.50824136  0.76741546  1
  O  O283  1  0.12366878  0.36384585  0.36826202  1
  O  O284  1  0.12318801  0.36273681  0.87543772  1
  O  O285  1  0.11837097  0.86756106  0.37031317  1
  O  O286  1  0.12316421  0.86321475  0.86691339  1
  O  O287  1  0.62366702  0.37204164  0.36585695  1
  O  O288  1  0.62616612  0.37222179  0.86300424  1
  O  O289  1  0.63302908  0.86741851  0.36281938  1
  O  O290  1  0.61974443  0.87520857  0.86384886  1
  O  O291  1  0.38287365  0.13425538  0.12930554  1
  O  O292  1  0.36893949  0.13663111  0.63368528  1
  O  O293  1  0.38949158  0.62718951  0.12129082  1
  O  O294  1  0.38175735  0.63417158  0.63080286  1
  O  O295  1  0.88599105  0.11987366  0.13831826  1
  O  O296  1  0.87320689  0.14093012  0.62927421  1
  O  O297  1  0.87563137  0.64091497  0.12767073  1
  O  O298  1  0.87206999  0.63387719  0.63385367  1
  O  O299  1  0.25257027  0.25446740  0.11727811  1
  O  O300  1  0.25438228  0.25328055  0.61659248  1
  O  O301  1  0.25611992  0.75409856  0.12113992  1
  O  O302  1  0.26379746  0.75356262  0.62718383  1
  O  O303  1  0.74638347  0.25883956  0.12082243  1
  O  O304  1  0.75809884  0.26032181  0.62283982  1
  O  O305  1  0.76109668  0.75743974  0.12407459  1
  O  O306  1  0.75626914  0.76200960  0.62420403  1
  O  O307  1  0.24371688  0.24700937  0.37910084  1
  O  O308  1  0.24313412  0.24293425  0.88140839  1
  O  O309  1  0.24173288  0.73163023  0.37426863  1
  O  O310  1  0.24202278  0.74669797  0.88259628  1
  O  O311  1  0.74387675  0.24435215  0.37688219  1
  O  O312  1  0.73689079  0.25162641  0.87087371  1
  O  O313  1  0.74188665  0.74109474  0.37767994  1
  O  O314  1  0.74740467  0.73872729  0.88046747  1
  O  O315  1  -0.00496044  0.11563290  0.01285655  1
  O  O316  1  0.00855265  0.11824617  0.49067976  1
  O  O317  1  -0.01213933  0.61924124  0.02309220  1
  O  O318  1  0.00714457  0.61926164  0.50124972  1
  O  O319  1  0.49677754  0.11720926  0.01243726  1
  O  O320  1  0.50777534  0.11791297  0.50102071  1
  O  O321  1  0.50861460  0.62010273  0.00609423  1
  O  O322  1  0.50370517  0.61722252  0.50914224  1
  O  O323  1  0.49877478  0.38016742  0.49361771  1
  O  O324  1  0.49345193  0.38312600  0.99931777  1
  O  O325  1  0.49994343  0.89091212  0.50182389  1
  O  O326  1  0.49920804  0.88610233  1.00333922  1
  O  O327  1  0.98848263  0.38479972  0.49108816  1
  O  O328  1  0.98176371  0.37143405  1.00014343  1
  O  O329  1  0.99519496  0.88259905  0.49055145  1
  O  O330  1  0.99485031  0.88097627  1.00035589  1
  O  O331  1  0.49304020  0.49735882  0.37763529  1
  O  O332  1  0.48889806  0.49904006  0.88107672  1
  O  O333  1  0.49975206  1.00350770  0.38987513  1
  O  O334  1  0.50193922  1.00259413  0.89453116  1
  O  O335  1  0.98831395  0.50163498  0.38278900  1
  O  O336  1  0.98483650  0.49953694  0.87752017  1
  O  O337  1  0.99573162  0.99204636  0.38299384  1
  O  O338  1  0.99692395  0.99844656  0.88432212  1
  O  O339  1  0.00951217  0.00487627  0.12046439  1
  O  O340  1  0.00170343  -0.00446423  0.60879569  1
  O  O341  1  0.01718438  0.50200335  0.12307621  1
  O  O342  1  -0.01105478  0.50313094  0.60955869  1
  O  O343  1  0.50389292  0.00691913  0.11890255  1
  O  O344  1  0.49926915  0.00438813  0.61294901  1
  O  O345  1  0.50864735  0.50608655  0.12098209  1
  O  O346  1  0.49273711  0.51073271  0.61670414  1
  O  O347  1  0.24471153  0.38442426  0.24228332  1
  O  O348  1  0.25146498  0.39112229  0.74885759  1
  O  O349  1  0.24673686  0.88120356  0.24669836  1
  O  O350  1  0.24031837  0.87967098  0.74260140  1
  O  O351  1  0.74356449  0.37058840  0.23320094  1
  O  O352  1  0.74058476  0.37643674  0.73742136  1
  O  O353  1  0.74308275  0.87631313  0.24157039  1
  O  O354  1  0.74286143  0.88019212  0.74382287  1
  O  O355  1  0.25245338  0.12880471  0.25988116  1
  O  O356  1  0.25703005  0.11581361  0.75694074  1
  O  O357  1  0.24458998  0.61367811  0.25792417  1
  O  O358  1  0.25901600  0.61436640  0.75073940  1
  O  O359  1  0.75992336  0.12638942  0.25512848  1
  O  O360  1  0.75617224  0.11439832  0.74479681  1
  O  O361  1  0.74508783  0.62855708  0.26490759  1
  O  O362  1  0.75929355  0.62914000  0.75993133  1
  O  O363  1  0.36041179  0.13190505  0.37258631  1
  O  O364  1  0.36354233  0.12026708  0.86850038  1
  O  O365  1  0.36610664  0.61319719  0.37938732  1
  O  O366  1  0.37335859  0.61721711  0.86672542  1
  O  O367  1  0.87125701  0.12342286  0.36629142  1
  O  O368  1  0.87344018  0.11941802  0.86592179  1
  O  O369  1  0.86184026  0.61961213  0.37714248  1
  O  O370  1  0.86983898  0.61855844  0.87420171  1
  O  O371  1  0.13082574  0.38736419  0.12588884  1
  O  O372  1  0.11603574  0.36178785  0.63551393  1
  O  O373  1  0.13311778  0.87725620  0.13340726  1
  O  O374  1  0.13276072  0.87089886  0.63124511  1
  O  O375  1  0.63617271  0.38123022  0.12796192  1
  O  O376  1  0.63620180  0.37135042  0.63358069  1
  O  O377  1  0.63414291  0.87780009  0.13493503  1
  O  O378  1  0.63285586  0.87664057  0.63503029  1
  O  O379  1  0.11738856  0.25600217  0.25323347  1
  O  O380  1  0.12126361  0.24739274  0.75568692  1
  O  O381  1  0.13194255  0.76297894  0.26041261  1
  O  O382  1  0.12975274  0.75508552  0.76423274  1
  O  O383  1  0.61878838  0.26051875  0.25401699  1
  O  O384  1  0.62287154  0.26138562  0.75804523  1
  O  O385  1  0.61921758  0.75587583  0.25853407  1
  O  O386  1  0.61576514  0.75857992  0.75112648  1
  O  O387  1  0.38391335  0.25488656  0.24185258  1
  O  O388  1  0.37331657  0.24212207  0.74462281  1
  O  O389  1  0.38527420  0.74347690  0.23479049  1
  O  O390  1  0.37992555  0.73803875  0.74599873  1
  O  O391  1  0.88787125  0.24385699  0.25389049  1
  O  O392  1  0.87221744  0.24254807  0.74372868  1
  O  O393  1  0.87547515  0.75727608  0.23959694  1
  O  O394  1  0.87145523  0.74299709  0.74231368  1
  O  O395  1  0.38533090  0.49778949  0.49182711  1
  O  O396  1  0.37739939  0.49521449  0.99161891  1
  O  O397  1  0.38215149  1.00399814  0.49908226  1
  O  O398  1  0.38870830  1.00159593  1.00411959  1
  O  O399  1  0.87722952  0.49137828  0.49176024  1
  O  O400  1  0.86995581  0.49146695  0.98840221  1
  O  O401  1  0.88006508  0.99662591  0.49543744  1
  O  O402  1  0.88985237  0.98759195  0.99993377  1
  O  O403  1  0.11494624  -0.00853939  0.00953288  1
  O  O404  1  0.11589533  0.01051439  0.49956389  1
  O  O405  1  0.13417737  0.49920623  0.00846976  1
  O  O406  1  0.11269426  0.50919170  0.49406319  1
  O  O407  1  0.60977613  -0.00842452  0.01908573  1
  O  O408  1  0.62395656  0.01225602  0.50105459  1
  O  O409  1  0.62130056  0.50792525  0.00714157  1
  O  O410  1  0.60960427  0.49970645  0.49413690  1
  O  O411  1  0.36932169  0.37142600  0.11947796  1
  O  O412  1  0.37217201  0.36279294  0.62425789  1
  O  O413  1  0.36425865  0.86447254  0.12980498  1
  O  O414  1  0.36663265  0.85853742  0.63221139  1
  O  O415  1  0.86369167  0.37600005  0.11284445  1
  O  O416  1  0.86360617  0.37048073  0.62095599  1
  O  O417  1  0.87123879  0.86868532  0.12255370  1
  O  O418  1  0.86856190  0.86892683  0.62322740  1
  O  O419  1  0.13233888  0.13526755  0.37773420  1
  O  O420  1  0.13806738  0.13195604  0.87145215  1
  O  O421  1  0.12855810  0.62938470  0.37993812  1
  O  O422  1  0.12592144  0.63737420  0.87235098  1
  O  O423  1  0.63141024  0.13019095  0.37843119  1
  O  O424  1  0.63103316  0.13909798  0.86799562  1
  O  O425  1  0.63417832  0.63230592  0.37781521  1
  O  O426  1  0.63085511  0.62456839  0.88300303  1
