# generated using pymatgen
data_V85Zn86O256
_symmetry_space_group_name_H-M   'P 1'
_cell_length_a   16.93783278
_cell_length_b   16.92480176
_cell_length_c   16.93520650
_cell_angle_alpha   90.02142977
_cell_angle_beta   89.95692959
_cell_angle_gamma   89.95993446
_symmetry_Int_Tables_number   1
_chemical_formula_structural   V85Zn86O256
_chemical_formula_sum   'V85 Zn86 O256'
_cell_volume   4854.80363817
_cell_formula_units_Z   1
loop_
 _symmetry_equiv_pos_site_id
 _symmetry_equiv_pos_as_xyz
  1  'x, y, z'
loop_
 _atom_site_type_symbol
 _atom_site_label
 _atom_site_symmetry_multiplicity
 _atom_site_fract_x
 _atom_site_fract_y
 _atom_site_fract_z
 _atom_site_occupancy
  V  V0  1  0.17906719  0.06407346  0.06183663  1
  V  V1  1  0.00201572  0.37381928  0.87653376  1
  V  V2  1  0.12373371  0.12158108  0.49895318  1
  V  V3  1  0.12088146  0.25686270  0.38003344  1
  V  V4  1  0.74814933  0.87738279  0.12124957  1
  V  V5  1  0.50017140  0.36385025  0.37157996  1
  V  V6  1  0.87415355  0.12723560  0.25230208  1
  V  V7  1  0.13825142  0.87233226  0.74109062  1
  V  V8  1  0.25267320  0.12410159  0.37114641  1
  V  V9  1  0.37186969  0.37337804  0.50256631  1
  V  V10  1  0.87903631  0.75313048  0.62447161  1
  V  V11  1  0.24814165  0.38232950  0.62894160  1
  V  V12  1  0.74985789  0.75168946  -0.00355040  1
  V  V13  1  0.49221098  0.12666929  0.62848869  1
  V  V14  1  0.26885809  0.74691433  -0.00003354  1
  V  V15  1  0.50293891  0.12833414  0.13791529  1
  V  V16  1  -0.00077758  0.12049583  0.12106677  1
  V  V17  1  0.25151685  0.75140253  0.51306941  1
  V  V18  1  0.37446877  0.50559424  0.37197461  1
  V  V19  1  0.48543158  0.62794440  0.12429424  1
  V  V20  1  0.87456455  -0.00350811  0.37485902  1
  V  V21  1  -0.00079004  -0.01184954  0.49585005  1
  V  V22  1  0.87644215  0.00340335  0.87736666  1
  V  V23  1  0.12422385  0.50162543  0.12750561  1
  V  V24  1  0.00128427  0.75826505  0.25277052  1
  V  V25  1  0.00165842  0.24738272  0.75193650  1
  V  V26  1  0.86720656  0.62742568  0.25623739  1
  V  V27  1  0.87476127  0.25281352  0.12705210  1
  V  V28  1  0.62320267  0.50393131  0.12894850  1
  V  V29  1  0.62418644  0.00328947  0.11378338  1
  V  V30  1  0.62427648  0.75398864  0.86609075  1
  V  V31  1  0.37469408  0.86905749  0.51119388  1
  V  V32  1  0.25052112  0.51077219  0.25067510  1
  V  V33  1  0.87478153  0.12490455  0.75141346  1
  V  V34  1  0.74983875  -0.00458439  0.74635027  1
  V  V35  1  0.75131532  0.49345971  0.74270620  1
  V  V36  1  0.25765427  0.86383346  0.12142895  1
  V  V37  1  0.12484167  0.88309464  0.24553272  1
  V  V38  1  0.50112153  0.49510827  -0.00342483  1
  V  V39  1  0.00350989  0.87602717  0.87393302  1
  V  V40  1  -0.00025491  0.50027589  0.00056778  1
  V  V41  1  0.73382801  0.13003923  0.87952321  1
  V  V42  1  -0.00044244  0.63010771  0.12351060  1
  V  V43  1  0.56098688  0.31223475  0.92052296  1
  V  V44  1  0.49156428  0.25040097  0.75241119  1
  V  V45  1  0.49964969  0.00173302  0.49876881  1
  V  V46  1  0.12956209  0.23490850  0.88197464  1
  V  V47  1  0.12691459  0.74828146  0.87716133  1
  V  V48  1  0.25003026  0.37536321  0.12867435  1
  V  V49  1  0.37846509  0.49064509  0.86612243  1
  V  V50  1  0.62235114  0.36470124  0.25651929  1
  V  V51  1  0.48825183  0.87317013  0.87634538  1
  V  V52  1  0.12654198  0.62587112  -0.00000002  1
  V  V53  1  0.12436005  0.75606773  0.38051346  1
  V  V54  1  0.49995719  0.50072577  0.49991262  1
  V  V55  1  0.89686889  0.37282415  0.50148286  1
  V  V56  1  0.37451543  0.36731364  -0.00208714  1
  V  V57  1  0.62438709  0.62458076  -0.00194774  1
  V  V58  1  0.48823636  0.74585309  0.24476975  1
  V  V59  1  0.36889410  0.01240992  0.87632357  1
  V  V60  1  0.74022804  0.13372544  0.37670221  1
  V  V61  1  -0.00336051  0.25634683  0.25642007  1
  V  V62  1  0.88133274  0.62410707  0.74268114  1
  V  V63  1  0.74077288  0.26234691  0.50580598  1
  V  V64  1  0.25208013  0.61402264  0.87206825  1
  V  V65  1  0.37252053  0.24583275  0.14620264  1
  V  V66  1  0.62682470  -0.00240656  0.62357493  1
  V  V67  1  -0.00065788  0.12139222  0.62329999  1
  V  V68  1  0.87450841  0.75239851  0.12203124  1
  V  V69  1  0.86010491  0.88137871  0.50727607  1
  V  V70  1  0.74843422  0.73917902  0.49817440  1
  V  V71  1  0.11839763  0.38163186  0.25624023  1
  V  V72  1  0.37639285  0.62557034  0.74191662  1
  V  V73  1  0.24724409  0.63059940  0.37967547  1
  V  V74  1  0.62631684  0.36583393  0.74739052  1
  V  V75  1  0.25666722  0.01375494  0.74275110  1
  V  V76  1  0.50292517  0.86984502  0.37315459  1
  V  V77  1  0.62701668  0.49689810  0.62376962  1
  V  V78  1  0.75089768  0.37949399  0.13117782  1
  V  V79  1  0.75086428  0.62478989  0.86906631  1
  V  V80  1  0.87309830  0.37479882  -0.00029183  1
  V  V81  1  0.74740384  0.00149105  0.24879130  1
  V  V82  1  0.12932928  0.38099220  0.75289338  1
  V  V83  1  0.37537582  0.00099194  0.36551171  1
  V  V84  1  0.11579667  0.51382481  0.62360822  1
  Zn  Zn85  1  0.87952298  0.49263286  0.37737242  1
  Zn  Zn86  1  0.00376803  0.74803390  0.74701111  1
  Zn  Zn87  1  0.00667746  0.00193643  0.00216383  1
  Zn  Zn88  1  0.24712416  0.24307235  0.00145298  1
  Zn  Zn89  1  0.73706736  0.51617836  0.26793475  1
  Zn  Zn90  1  0.62504225  0.87436067  0.74438460  1
  Zn  Zn91  1  0.50231695  0.63010278  0.62076021  1
  Zn  Zn92  1  0.62026881  0.13338204  0.49653030  1
  Zn  Zn93  1  0.87583411  0.49885533  0.87129851  1
  Zn  Zn94  1  0.49215540  0.75702515  0.73784389  1
  Zn  Zn95  1  0.36698741  0.24579571  0.63122271  1
  Zn  Zn96  1  0.49865529  -0.00146615  -0.00127207  1
  Zn  Zn97  1  0.24862883  0.24840749  0.50417449  1
  Zn  Zn98  1  0.73636587  0.24926541  -0.00119961  1
  Zn  Zn99  1  0.62367767  0.87248178  0.24693919  1
  Zn  Zn100  1  0.86718086  0.25317693  0.62817071  1
  Zn  Zn101  1  0.87846985  0.87620454  -0.00229641  1
  Zn  Zn102  1  0.63253257  0.61635634  0.49199272  1
  Zn  Zn103  1  0.24893094  0.00358218  0.24246238  1
  Zn  Zn104  1  0.13297218  -0.00868699  0.61818178  1
  Zn  Zn105  1  0.00436904  0.52227935  0.49179100  1
  Zn  Zn106  1  0.63294695  0.73510933  0.36560048  1
  Zn  Zn107  1  0.18720813  0.19395578  0.19558963  1
  Zn  Zn108  1  0.18435672  0.19024522  0.68650495  1
  Zn  Zn109  1  0.18815552  0.69140548  0.18879317  1
  Zn  Zn110  1  0.19572573  0.68583584  0.69501919  1
  Zn  Zn111  1  0.68764775  0.18802864  0.18518568  1
  Zn  Zn112  1  0.68293594  0.18162613  0.68553682  1
  Zn  Zn113  1  0.68131036  0.69258542  0.18514731  1
  Zn  Zn114  1  0.69125650  0.68641523  0.67836305  1
  Zn  Zn115  1  0.30311449  0.32075510  0.32084446  1
  Zn  Zn116  1  0.30761853  0.30878331  0.81456535  1
  Zn  Zn117  1  0.31243283  0.81716534  0.31359322  1
  Zn  Zn118  1  0.31085512  0.80676793  0.81095164  1
  Zn  Zn119  1  0.80885440  0.31896237  0.32085619  1
  Zn  Zn120  1  0.81108573  0.30980913  0.81343819  1
  Zn  Zn121  1  0.81108927  0.81519428  0.31310464  1
  Zn  Zn122  1  0.81443496  0.81460005  0.80973703  1
  Zn  Zn123  1  0.18403305  0.44138402  0.44267696  1
  Zn  Zn124  1  0.18937568  0.43335256  0.94030832  1
  Zn  Zn125  1  0.19071952  0.93368750  0.43604180  1
  Zn  Zn126  1  0.19803744  0.92975159  0.93133571  1
  Zn  Zn127  1  0.69138130  0.43964340  0.43369796  1
  Zn  Zn128  1  0.69433938  0.44218760  0.93846432  1
  Zn  Zn129  1  0.68457604  0.93955927  0.43500080  1
  Zn  Zn130  1  0.68635390  0.93818644  0.93333329  1
  Zn  Zn131  1  0.34478106  0.06522573  0.06046941  1
  Zn  Zn132  1  0.31362226  0.05865858  0.55896328  1
  Zn  Zn133  1  0.31219104  0.55564220  0.05662791  1
  Zn  Zn134  1  0.30554463  0.55900669  0.56051472  1
  Zn  Zn135  1  0.81322611  0.06548135  0.05885703  1
  Zn  Zn136  1  0.80962571  0.06961281  0.56178136  1
  Zn  Zn137  1  0.81189576  0.56354096  0.06421886  1
  Zn  Zn138  1  0.82028115  0.55816013  0.56259147  1
  Zn  Zn139  1  0.43662561  0.43737651  0.18954054  1
  Zn  Zn140  1  0.44287204  0.43343323  0.68788108  1
  Zn  Zn141  1  0.43910406  0.93617617  0.18802468  1
  Zn  Zn142  1  0.43887114  0.93874079  0.69065454  1
  Zn  Zn143  1  0.93743419  0.44258865  0.19106371  1
  Zn  Zn144  1  0.93840817  0.43359065  0.68373669  1
  Zn  Zn145  1  0.93546860  0.93864970  0.18606653  1
  Zn  Zn146  1  0.94218689  0.93495048  0.68619810  1
  Zn  Zn147  1  0.06025604  0.06522412  0.31314413  1
  Zn  Zn148  1  0.06606078  0.05619449  0.80948255  1
  Zn  Zn149  1  0.05719708  0.57189847  0.31812279  1
  Zn  Zn150  1  0.06275956  0.55910409  0.81141530  1
  Zn  Zn151  1  0.56423473  0.05933581  0.30961058  1
  Zn  Zn152  1  0.55727573  0.06115299  0.80937531  1
  Zn  Zn153  1  0.55736445  0.56463054  0.31327308  1
  Zn  Zn154  1  0.56138949  0.55860307  0.80982978  1
  Zn  Zn155  1  0.43359887  0.18710311  0.43868302  1
  Zn  Zn156  1  0.43366972  0.18079385  0.94734389  1
  Zn  Zn157  1  0.43773975  0.68690682  0.43537844  1
  Zn  Zn158  1  0.44228259  0.68109087  0.92842298  1
  Zn  Zn159  1  0.93143128  0.18775910  0.43960868  1
  Zn  Zn160  1  0.93719649  0.18887661  0.93921425  1
  Zn  Zn161  1  0.93547074  0.69704172  0.43404783  1
  Zn  Zn162  1  0.93708571  0.68897486  0.93328631  1
  Zn  Zn163  1  0.06227941  0.31087483  0.06547057  1
  Zn  Zn164  1  0.06603003  0.30878513  0.56999683  1
  Zn  Zn165  1  0.06860108  0.81671465  0.06169983  1
  Zn  Zn166  1  0.06425097  0.69820872  0.56313332  1
  Zn  Zn167  1  0.55897964  0.31053483  0.08689747  1
  Zn  Zn168  1  0.56071796  0.31472587  0.56510542  1
  Zn  Zn169  1  0.55990097  0.81212914  0.05920270  1
  Zn  Zn170  1  0.56462155  0.81129610  0.56230657  1
  O  O171  1  0.12120200  0.12514723  0.12436498  1
  O  O172  1  0.12032500  0.12082752  0.61258204  1
  O  O173  1  0.11953358  0.62247967  0.12051531  1
  O  O174  1  0.12475910  0.61802514  0.63312216  1
  O  O175  1  0.61156191  0.12152709  0.12736048  1
  O  O176  1  0.61137020  0.11597712  0.61975900  1
  O  O177  1  0.61860426  0.61812898  0.11774088  1
  O  O178  1  0.62587070  0.60927535  0.61893129  1
  O  O179  1  0.37678464  0.38505104  0.38368243  1
  O  O180  1  0.36841580  0.37854718  0.88552279  1
  O  O181  1  0.38607509  0.88227814  0.38050634  1
  O  O182  1  0.38620902  0.87405320  0.86908549  1
  O  O183  1  0.87686843  0.37040287  0.39600664  1
  O  O184  1  0.88122176  0.37425083  0.88422631  1
  O  O185  1  0.86876290  0.89164079  0.38138321  1
  O  O186  1  0.88521237  0.88353274  0.87316903  1
  O  O187  1  0.25904636  0.00613087  0.37508306  1
  O  O188  1  0.26285367  -0.00490096  0.86300953  1
  O  O189  1  0.25150481  0.50945804  0.37106904  1
  O  O190  1  0.26082645  0.50755641  0.88570870  1
  O  O191  1  0.75355616  0.00872787  0.36776414  1
  O  O192  1  0.75718253  0.01053263  0.86955208  1
  O  O193  1  0.76537190  0.49612791  0.37381779  1
  O  O194  1  0.75253892  0.50889115  0.86388746  1
  O  O195  1  0.24519239  0.49683562  0.13322190  1
  O  O196  1  0.23652964  0.48905745  0.62324940  1
  O  O197  1  0.24471713  1.00543008  0.11830320  1
  O  O198  1  0.25104628  1.00034321  0.63717645  1
  O  O199  1  0.74195537  0.49193661  0.12638723  1
  O  O200  1  0.74460862  0.50127658  0.63552453  1
  O  O201  1  0.74493787  0.99864408  0.12736496  1
  O  O202  1  0.74013914  1.01274019  0.63469246  1
  O  O203  1  0.00439445  0.36741745  0.24710289  1
  O  O204  1  0.00836403  0.36866942  0.75624328  1
  O  O205  1  0.00716093  0.86578413  0.24021825  1
  O  O206  1  0.01271387  0.87749844  0.76157648  1
  O  O207  1  0.50907482  0.38056271  0.25897906  1
  O  O208  1  0.51089089  0.36439118  0.75351883  1
  O  O209  1  0.50045669  0.86464257  0.25446563  1
  O  O210  1  0.50436488  0.87412526  0.76097112  1
  O  O211  1  0.49630826  0.11745159  0.23790068  1
  O  O212  1  0.50472017  0.13651653  0.74055945  1
  O  O213  1  0.49904800  0.63650237  0.23925055  1
  O  O214  1  0.48539478  0.62231697  0.75020540  1
  O  O215  1  0.99456154  0.13328980  0.24146857  1
  O  O216  1  0.99647966  0.12431863  0.74266202  1
  O  O217  1  0.99160082  0.64090570  0.24168883  1
  O  O218  1  0.98465211  0.62705193  0.76063939  1
  O  O219  1  0.37061211  0.25748766  0.01031780  1
  O  O220  1  0.37190796  0.26404806  0.50324911  1
  O  O221  1  0.36785478  0.74214281  -0.00767218  1
  O  O222  1  0.37000500  0.76259358  0.49371335  1
  O  O223  1  0.87677517  0.26335870  0.00860941  1
  O  O224  1  0.86759566  0.25830624  0.50473255  1
  O  O225  1  0.86821410  0.75160548  0.00414119  1
  O  O226  1  0.86590755  0.76340954  0.50409158  1
  O  O227  1  0.12413202  0.24049087  0.49445057  1
  O  O228  1  0.12527825  0.25437146  0.98697370  1
  O  O229  1  0.13745170  0.75650042  0.49217382  1
  O  O230  1  0.13133665  0.74082933  0.99421969  1
  O  O231  1  0.63531785  0.25230210  0.50260392  1
  O  O232  1  0.61741972  0.26377033  0.99636197  1
  O  O233  1  0.64128427  0.74818897  0.49958942  1
  O  O234  1  0.62883207  0.74396146  0.98574377  1
  O  O235  1  0.48558543  0.23916044  0.13238029  1
  O  O236  1  0.49640888  0.24443135  0.63370130  1
  O  O237  1  0.50129769  0.74303932  0.13346803  1
  O  O238  1  0.50691136  0.74286311  0.62720586  1
  O  O239  1  0.99526251  0.24539371  0.13697510  1
  O  O240  1  1.00391994  0.23434063  0.63422939  1
  O  O241  1  0.99454741  0.74842550  0.12704028  1
  O  O242  1  0.98496448  0.75414736  0.63019624  1
  O  O243  1  0.00597450  0.24074276  0.36400010  1
  O  O244  1  0.00842767  0.25541362  0.87235009  1
  O  O245  1  0.01035848  0.75293668  0.36348473  1
  O  O246  1  0.00747081  0.75808440  0.87170072  1
  O  O247  1  0.49297752  0.26461771  0.37900808  1
  O  O248  1  0.49919392  0.24142895  0.87172635  1
  O  O249  1  0.50105558  0.75434553  0.36396696  1
  O  O250  1  0.50689349  0.75803139  0.86807302  1
  O  O251  1  0.23987324  0.12355468  0.49237176  1
  O  O252  1  0.24672927  0.12114951  1.01102845  1
  O  O253  1  0.25629213  0.63514535  0.48884429  1
  O  O254  1  0.24602629  0.62879514  0.99447186  1
  O  O255  1  0.74637131  0.13461895  0.49027336  1
  O  O256  1  0.75299655  0.12971103  0.98480285  1
  O  O257  1  0.75648387  0.63658386  0.50120375  1
  O  O258  1  0.74451668  0.62852675  0.99039304  1
  O  O259  1  0.25846727  0.37263017  0.01171251  1
  O  O260  1  0.25606757  0.37516767  0.50810488  1
  O  O261  1  0.24447984  0.86013992  0.01099842  1
  O  O262  1  0.26660180  0.86863842  0.49661876  1
  O  O263  1  0.75772341  0.37389968  0.00798666  1
  O  O264  1  0.75089205  0.36283325  0.50173083  1
  O  O265  1  0.75192116  0.86979566  0.00282038  1
  O  O266  1  0.75727926  0.87698443  0.49980532  1
  O  O267  1  0.12861052  0.50057999  0.24631141  1
  O  O268  1  0.12246516  0.49141326  0.73992756  1
  O  O269  1  0.12426007  0.98661131  0.25756596  1
  O  O270  1  0.14067409  0.98899073  0.75115124  1
  O  O271  1  0.62348333  0.49735507  0.23835894  1
  O  O272  1  0.63152969  0.49127747  0.74435830  1
  O  O273  1  0.63329784  0.99690073  0.23770074  1
  O  O274  1  0.63272938  1.00220017  0.74165369  1
  O  O275  1  0.37142002  -0.00397425  0.26253078  1
  O  O276  1  0.36309419  -0.00323901  0.75708167  1
  O  O277  1  0.36243099  0.49290618  0.25991175  1
  O  O278  1  0.37996609  0.49986679  0.76239518  1
  O  O279  1  0.86812849  0.00598934  0.25649866  1
  O  O280  1  0.87018184  0.00500667  0.75752454  1
  O  O281  1  0.87530688  0.52124159  0.24583647  1
  O  O282  1  0.86856790  0.50486579  0.74809776  1
  O  O283  1  0.12915822  0.36348097  0.37471037  1
  O  O284  1  0.11979169  0.37349580  0.86923582  1
  O  O285  1  0.13424399  0.86300330  0.36342739  1
  O  O286  1  0.12156300  0.86792551  0.86868258  1
  O  O287  1  0.61424278  0.38111216  0.36565323  1
  O  O288  1  0.62530808  0.37746174  0.86930822  1
  O  O289  1  0.61048959  0.87575265  0.37291069  1
  O  O290  1  0.61794857  0.86775130  0.86976619  1
  O  O291  1  0.37584253  0.13969252  0.14027651  1
  O  O292  1  0.38690729  0.12757138  0.61658326  1
  O  O293  1  0.38694162  0.61613836  0.11846966  1
  O  O294  1  0.37226604  0.60942951  0.64103603  1
  O  O295  1  0.87984495  0.13266283  0.13195005  1
  O  O296  1  0.88400472  0.12599835  0.63299818  1
  O  O297  1  0.88051551  0.63496609  0.12791040  1
  O  O298  1  0.86966497  0.63418137  0.63505340  1
  O  O299  1  0.25831561  0.25511820  0.12686970  1
  O  O300  1  0.24846123  0.26302334  0.62389067  1
  O  O301  1  0.25477219  0.75655412  0.11866359  1
  O  O302  1  0.24923366  0.74354415  0.61242320  1
  O  O303  1  0.75472669  0.26232478  0.12131103  1
  O  O304  1  0.75026818  0.23971582  0.61010867  1
  O  O305  1  0.75274355  0.75736131  0.11591113  1
  O  O306  1  0.76082796  0.75158930  0.61029614  1
  O  O307  1  0.23934787  0.24278628  0.37953153  1
  O  O308  1  0.23419461  0.24887927  0.87967293  1
  O  O309  1  0.24682542  0.74516082  0.37908107  1
  O  O310  1  0.24668900  0.73742781  0.88262776  1
  O  O311  1  0.75220205  0.24366747  0.38942361  1
  O  O312  1  0.75028777  0.23478502  0.87689114  1
  O  O313  1  0.74997874  0.75914192  0.39214305  1
  O  O314  1  0.74491136  0.74456219  0.87682918  1
  O  O315  1  -0.00349403  0.12726804  0.01620114  1
  O  O316  1  0.00418124  0.11881832  0.50655785  1
  O  O317  1  0.00500575  0.61995372  0.00222242  1
  O  O318  1  -0.00530667  0.63520833  0.50335479  1
  O  O319  1  0.47870106  0.11318370  0.02681573  1
  O  O320  1  0.50074133  0.11696922  0.50325203  1
  O  O321  1  0.50732732  0.61903545  0.00434001  1
  O  O322  1  0.49656339  0.60934267  0.49921391  1
  O  O323  1  0.49199206  0.38362365  0.49504792  1
  O  O324  1  0.49766278  0.37032856  0.99531685  1
  O  O325  1  0.49311221  0.87939505  0.49210455  1
  O  O326  1  0.50566819  0.87767891  0.98115719  1
  O  O327  1  0.99715575  0.36816001  0.50024364  1
  O  O328  1  0.99307416  0.38065276  0.99869451  1
  O  O329  1  0.98398032  0.88966237  0.49850399  1
  O  O330  1  1.00239752  0.87849907  0.98747150  1
  O  O331  1  0.48884598  0.49325135  0.38038813  1
  O  O332  1  0.49098757  0.50188827  0.88409440  1
  O  O333  1  0.49488677  0.99453083  0.38064653  1
  O  O334  1  0.48739882  0.99115095  0.87172689  1
  O  O335  1  0.99311983  0.50603389  0.37812596  1
  O  O336  1  0.99752331  0.49228830  0.88310642  1
  O  O337  1  0.98631977  1.01122246  0.38400309  1
  O  O338  1  0.99387850  0.99487976  0.87744561  1
  O  O339  1  -0.00368962  0.01136567  0.12191255  1
  O  O340  1  0.00488085  0.00831795  0.61737398  1
  O  O341  1  0.00483015  0.50884547  0.11990206  1
  O  O342  1  0.01451752  0.49999299  0.62583396  1
  O  O343  1  0.50847610  0.00432690  0.12572081  1
  O  O344  1  0.50272446  0.00721698  0.61826533  1
  O  O345  1  0.50667519  0.50444664  0.11902554  1
  O  O346  1  0.50759778  0.50084439  0.61648294  1
  O  O347  1  0.23862552  0.38837394  0.24836604  1
  O  O348  1  0.23734441  0.37182244  0.74541261  1
  O  O349  1  0.24412895  0.87793797  0.23812485  1
  O  O350  1  0.24162684  0.87756642  0.75205331  1
  O  O351  1  0.74246520  0.37900921  0.24423232  1
  O  O352  1  0.74210520  0.38281670  0.75649031  1
  O  O353  1  0.74912930  0.88272272  0.23947440  1
  O  O354  1  0.74769325  0.89183264  0.75575137  1
  O  O355  1  0.23900982  0.12058217  0.26640279  1
  O  O356  1  0.24510278  0.11229707  0.74749013  1
  O  O357  1  0.24787644  0.61627015  0.25573689  1
  O  O358  1  0.26219083  0.62030348  0.76163630  1
  O  O359  1  0.75533376  0.12323257  0.25513074  1
  O  O360  1  0.75491936  0.11927741  0.76059988  1
  O  O361  1  0.76324699  0.62979790  0.23858172  1
  O  O362  1  0.75663033  0.61713988  0.75455874  1
  O  O363  1  0.36398200  0.11544543  0.38266512  1
  O  O364  1  0.37520400  0.11136170  0.87517854  1
  O  O365  1  0.36681582  0.61245265  0.37650992  1
  O  O366  1  0.36977198  0.61177310  0.86807834  1
  O  O367  1  0.86359491  0.11876192  0.37011455  1
  O  O368  1  0.87505981  0.11859360  0.86843180  1
  O  O369  1  0.87333212  0.63690064  0.35595394  1
  O  O370  1  0.86239431  0.62476727  0.86860214  1
  O  O371  1  0.12953833  0.38161539  0.13327454  1
  O  O372  1  0.12970365  0.38044351  0.63502014  1
  O  O373  1  0.14014060  0.87310726  0.13334686  1
  O  O374  1  0.12210051  0.87442941  0.64347499  1
  O  O375  1  0.63145707  0.38533115  0.13329715  1
  O  O376  1  0.62160927  0.38585202  0.63508468  1
  O  O377  1  0.63223315  0.88327708  0.12181435  1
  O  O378  1  0.62038549  0.89278988  0.62510962  1
  O  O379  1  0.11597123  0.25910167  0.25980667  1
  O  O380  1  0.11976108  0.25607565  0.76201936  1
  O  O381  1  0.11813378  0.75961028  0.25392193  1
  O  O382  1  0.12752355  0.75817530  0.75720566  1
  O  O383  1  0.62504593  0.26561412  0.24211835  1
  O  O384  1  0.62011351  0.26042766  0.74619376  1
  O  O385  1  0.61330801  0.75454077  0.25072436  1
  O  O386  1  0.63069174  0.74881883  0.75888090  1
  O  O387  1  0.36739361  0.26301561  0.24321970  1
  O  O388  1  0.38683827  0.25673356  0.74991014  1
  O  O389  1  0.38893083  0.75402229  0.25181174  1
  O  O390  1  0.37427895  0.73014513  0.75310720  1
  O  O391  1  0.87969087  0.24966313  0.24768849  1
  O  O392  1  0.88255203  0.24280010  0.74940841  1
  O  O393  1  0.88050214  0.74858409  0.24206831  1
  O  O394  1  0.87259334  0.74273037  0.74161720  1
  O  O395  1  0.37852896  0.49073898  0.49445712  1
  O  O396  1  0.38267728  0.48363030  0.99570757  1
  O  O397  1  0.38439895  0.98966879  0.49256821  1
  O  O398  1  0.37380543  0.99155422  0.97994003  1
  O  O399  1  0.88489829  0.48377977  0.50636227  1
  O  O400  1  0.87844580  0.48993430  0.99963262  1
  O  O401  1  0.87615885  0.99916781  0.49468957  1
  O  O402  1  0.87668732  0.99924640  0.98649873  1
  O  O403  1  0.12941078  0.00382904  -0.00426634  1
  O  O404  1  0.11707872  0.00294942  0.49732384  1
  O  O405  1  0.12124879  0.50517660  0.00798723  1
  O  O406  1  0.12205384  0.50041739  0.51835120  1
  O  O407  1  0.62431941  0.00117030  0.01016335  1
  O  O408  1  0.61253352  0.00221419  0.50347431  1
  O  O409  1  0.62097815  0.50275272  0.00902413  1
  O  O410  1  0.61699876  0.49401449  0.50743925  1
  O  O411  1  0.37235515  0.36595695  0.12029376  1
  O  O412  1  0.36589231  0.37767131  0.61957650  1
  O  O413  1  0.35480279  0.88862272  0.12516944  1
  O  O414  1  0.38234187  0.87807505  0.60938105  1
  O  O415  1  0.86747817  0.37519614  0.12193329  1
  O  O416  1  0.88077349  0.36777317  0.61099407  1
  O  O417  1  0.86629460  0.86983607  0.12034176  1
  O  O418  1  0.87466581  0.87090927  0.61816160  1
  O  O419  1  0.12728831  0.13260796  0.38486479  1
  O  O420  1  0.11782583  0.13681882  0.87508118  1
  O  O421  1  0.13731107  0.64148751  0.36759960  1
  O  O422  1  0.13431090  0.62558477  0.87809815  1
  O  O423  1  0.63650358  0.12178847  0.37387025  1
  O  O424  1  0.63547374  0.11985775  0.87433373  1
  O  O425  1  0.62569645  0.62168863  0.37864980  1
  O  O426  1  0.63436136  0.62929905  0.87534719  1
