# generated using pymatgen
data_V85Zn86O256
_symmetry_space_group_name_H-M   'P 1'
_cell_length_a   16.91378897
_cell_length_b   16.90812458
_cell_length_c   16.90692580
_cell_angle_alpha   89.99330126
_cell_angle_beta   89.96855162
_cell_angle_gamma   89.98600031
_symmetry_Int_Tables_number   1
_chemical_formula_structural   V85Zn86O256
_chemical_formula_sum   'V85 Zn86 O256'
_cell_volume   4835.04936074
_cell_formula_units_Z   1
loop_
 _symmetry_equiv_pos_site_id
 _symmetry_equiv_pos_as_xyz
  1  'x, y, z'
loop_
 _atom_site_type_symbol
 _atom_site_label
 _atom_site_symmetry_multiplicity
 _atom_site_fract_x
 _atom_site_fract_y
 _atom_site_fract_z
 _atom_site_occupancy
  V  V0  1  0.75176336  0.37910357  0.63045329  1
  V  V1  1  0.87539442  0.12510002  0.75174357  1
  V  V2  1  0.87541013  0.00437793  0.36729591  1
  V  V3  1  0.87932658  0.37807029  0.49674215  1
  V  V4  1  0.87168458  0.74331638  0.13725944  1
  V  V5  1  0.25014842  0.12410198  0.87381109  1
  V  V6  1  0.50066674  0.87603433  0.87383755  1
  V  V7  1  0.00312720  0.01188381  0.50026389  1
  V  V8  1  0.63431605  0.74443280  0.87305569  1
  V  V9  1  -0.00775056  0.25249338  0.25252863  1
  V  V10  1  0.50224548  0.24764305  0.24585719  1
  V  V11  1  0.62790530  0.50037748  0.63013303  1
  V  V12  1  0.37688491  0.86683931  0.50345201  1
  V  V13  1  0.62507661  0.25077924  0.37425730  1
  V  V14  1  0.49286538  0.75079287  0.74703700  1
  V  V15  1  0.00125075  0.50042026  0.49583186  1
  V  V16  1  0.24324906  0.37116653  0.62781445  1
  V  V17  1  0.86033877  0.62379090  0.75329466  1
  V  V18  1  0.01496338  0.87638281  0.36714595  1
  V  V19  1  0.62506340  0.62056409  -0.00293369  1
  V  V20  1  0.50701226  0.00120728  0.01757960  1
  V  V21  1  0.75220163  0.87572316  0.62292923  1
  V  V22  1  0.25117852  0.25085850  0.00252271  1
  V  V23  1  0.37468982  0.00194472  0.37573557  1
  V  V24  1  0.62659471  0.12572476  0.49924674  1
  V  V25  1  0.11911397  0.87454153  0.74743386  1
  V  V26  1  0.24530913  0.49514733  0.75159898  1
  V  V27  1  0.12347107  0.74821124  0.87018851  1
  V  V28  1  0.87934523  0.87534909  0.49631717  1
  V  V29  1  -0.00119161  0.87181636  0.87296134  1
  V  V30  1  0.74568940  0.00993775  0.24263673  1
  V  V31  1  0.25378084  0.61908806  0.87708674  1
  V  V32  1  0.37997650  0.74486187  0.12758879  1
  V  V33  1  0.25091530  0.62676870  0.37334857  1
  V  V34  1  0.00515115  0.24759639  0.74697165  1
  V  V35  1  0.37976977  0.24712451  0.12255422  1
  V  V36  1  0.49157312  0.38543375  0.87648988  1
  V  V37  1  0.37289303  0.12515295  0.24810258  1
  V  V38  1  0.24959297  0.49487329  0.25130741  1
  V  V39  1  0.75488401  0.62055682  0.35956776  1
  V  V40  1  0.24728516  0.75058841  0.49688934  1
  V  V41  1  0.50097254  0.87407831  0.37245369  1
  V  V42  1  0.25275805  0.00330594  0.75051613  1
  V  V43  1  0.49874246  0.49712072  0.50092138  1
  V  V44  1  0.49663162  0.12561645  0.63107608  1
  V  V45  1  0.25271366  0.86951826  0.62669638  1
  V  V46  1  0.75476850  0.74531050  0.49838610  1
  V  V47  1  0.87216604  0.87228064  0.00173670  1
  V  V48  1  0.62681253  0.00040732  0.62459158  1
  V  V49  1  0.37269263  0.24722807  0.62795242  1
  V  V50  1  0.74179447  0.87593983  0.12549548  1
  V  V51  1  0.37373542  0.87737233  0.00019738  1
  V  V52  1  0.12220669  0.01199623  0.62146867  1
  V  V53  1  0.24963905  0.75120487  -0.00146393  1
  V  V54  1  0.36958395  0.37070347  0.50171693  1
  V  V55  1  0.12330478  0.62932913  0.49730007  1
  V  V56  1  0.01547098  0.74634929  0.25234844  1
  V  V57  1  0.24488214  0.12948796  0.39123244  1
  V  V58  1  0.87364339  0.37283864  0.00018205  1
  V  V59  1  0.61821553  0.50477526  0.13452662  1
  V  V60  1  0.61911264  0.13226915  0.00594797  1
  V  V61  1  0.12456660  0.25421232  0.38491847  1
  V  V62  1  -0.00116960  0.00043231  0.00114749  1
  V  V63  1  0.50206161  0.24555302  0.75952073  1
  V  V64  1  0.75127126  0.25056174  0.49988171  1
  V  V65  1  0.87953291  0.24412764  0.62323406  1
  V  V66  1  0.24204450  0.87676244  0.13384759  1
  V  V67  1  0.62593017  0.87428907  0.74853156  1
  V  V68  1  -0.01627691  0.13013107  0.13106783  1
  V  V69  1  0.12225889  0.12667859  0.00528365  1
  V  V70  1  0.12078594  0.49970846  0.12482531  1
  V  V71  1  0.37940030  0.00665867  0.87260194  1
  V  V72  1  0.50121915  0.00033276  0.49990920  1
  V  V73  1  0.62797586  0.37261921  0.75889319  1
  V  V74  1  0.87536678  0.50204613  0.36495917  1
  V  V75  1  0.75092173  0.37699366  0.13147422  1
  V  V76  1  0.37548203  0.61937837  0.75245529  1
  V  V77  1  0.85918995  0.50190586  0.87090522  1
  V  V78  1  0.00353503  0.62686522  0.63515118  1
  V  V79  1  0.12533580  0.25681651  0.87271903  1
  V  V80  1  0.00032525  0.37996290  0.86937689  1
  V  V81  1  0.49368887  0.62839280  0.62244807  1
  V  V82  1  0.88356885  0.75040919  0.62930140  1
  V  V83  1  0.62671317  0.74971698  0.37259495  1
  V  V84  1  0.74739728  0.25206575  -0.00711357  1
  Zn  Zn85  1  0.12348022  0.49551799  0.62697752  1
  Zn  Zn86  1  0.11746381  -0.00425063  0.13480793  1
  Zn  Zn87  1  0.24194306  0.00027315  0.25608329  1
  Zn  Zn88  1  0.12195337  0.37192218  0.25321223  1
  Zn  Zn89  1  0.62168176  0.88026613  0.24466043  1
  Zn  Zn90  1  0.75058270  0.00214979  0.75133442  1
  Zn  Zn91  1  0.37291774  0.38228004  -0.00140345  1
  Zn  Zn92  1  0.62664567  0.62172200  0.49965207  1
  Zn  Zn93  1  0.24843751  0.37217696  0.12777862  1
  Zn  Zn94  1  0.38189663  0.61617555  0.24444306  1
  Zn  Zn95  1  0.62655775  0.37778937  0.25311481  1
  Zn  Zn96  1  0.37633631  0.49685326  0.37384828  1
  Zn  Zn97  1  -0.00288425  0.50449402  -0.00152541  1
  Zn  Zn98  1  0.74354912  0.12489138  0.87396395  1
  Zn  Zn99  1  0.48974882  0.51333897  0.00480006  1
  Zn  Zn100  1  0.87251661  0.00199534  0.87485334  1
  Zn  Zn101  1  0.75308886  0.74321543  -0.00298955  1
  Zn  Zn102  1  0.49874100  0.37321855  0.37596041  1
  Zn  Zn103  1  0.50495484  0.74344078  0.24437996  1
  Zn  Zn104  1  -0.00678014  0.62109662  0.12720764  1
  Zn  Zn105  1  0.75638730  0.12934241  0.36790900  1
  Zn  Zn106  1  0.12024255  0.62460065  0.00097084  1
  Zn  Zn107  1  0.18523161  0.18589786  0.19221695  1
  Zn  Zn108  1  0.18885868  0.18802228  0.68836614  1
  Zn  Zn109  1  0.19038879  0.68354852  0.18581389  1
  Zn  Zn110  1  0.18871173  0.68809233  0.68665722  1
  Zn  Zn111  1  0.68802930  0.18999460  0.17882436  1
  Zn  Zn112  1  0.68812304  0.19004652  0.68759871  1
  Zn  Zn113  1  0.68576775  0.68675072  0.18507187  1
  Zn  Zn114  1  0.68481092  0.68947549  0.68360567  1
  Zn  Zn115  1  0.31088770  0.31032987  0.31502783  1
  Zn  Zn116  1  0.31528738  0.30952429  0.80894423  1
  Zn  Zn117  1  0.31154474  0.81078227  0.31322692  1
  Zn  Zn118  1  0.31304771  0.81239515  0.81222084  1
  Zn  Zn119  1  0.81443333  0.31436502  0.31373754  1
  Zn  Zn120  1  0.81354729  0.31182045  0.81307523  1
  Zn  Zn121  1  0.81293760  0.81901412  0.31079951  1
  Zn  Zn122  1  0.81519684  0.81269220  0.80869068  1
  Zn  Zn123  1  0.18780516  0.43685660  0.43938284  1
  Zn  Zn124  1  0.18717220  0.43798011  0.93965644  1
  Zn  Zn125  1  0.18802755  0.94181363  0.43842094  1
  Zn  Zn126  1  0.18543976  0.93745471  0.93993149  1
  Zn  Zn127  1  0.68928213  0.43784446  0.43980878  1
  Zn  Zn128  1  0.68328171  0.43949462  0.94062428  1
  Zn  Zn129  1  0.69080232  0.93791253  0.43348344  1
  Zn  Zn130  1  0.68736777  0.94020619  0.93552255  1
  Zn  Zn131  1  0.31391920  0.06265209  0.06317837  1
  Zn  Zn132  1  0.31522842  0.05843993  0.56534629  1
  Zn  Zn133  1  0.30933746  0.55997690  0.06186837  1
  Zn  Zn134  1  0.31305371  0.56032561  0.56492360  1
  Zn  Zn135  1  0.80817751  0.06314752  0.06019898  1
  Zn  Zn136  1  0.81536122  0.06305833  0.55949647  1
  Zn  Zn137  1  0.80650292  0.55942795  0.06033811  1
  Zn  Zn138  1  0.81455287  0.56278433  0.56365933  1
  Zn  Zn139  1  0.43642566  0.43097265  0.18703538  1
  Zn  Zn140  1  0.43586245  0.43661161  0.68932896  1
  Zn  Zn141  1  0.42963961  0.93226893  0.19115553  1
  Zn  Zn142  1  0.43649044  0.93863362  0.68734200  1
  Zn  Zn143  1  0.93780385  0.43244468  0.18552341  1
  Zn  Zn144  1  0.93802051  0.43894856  0.68747047  1
  Zn  Zn145  1  0.93439984  0.93659901  0.18807473  1
  Zn  Zn146  1  0.93980912  0.94011116  0.68504801  1
  Zn  Zn147  1  0.06486389  0.06575271  0.31163949  1
  Zn  Zn148  1  0.06184040  0.06405390  0.81305771  1
  Zn  Zn149  1  0.06410303  0.56438444  0.31268041  1
  Zn  Zn150  1  0.06308511  0.56143537  0.81261171  1
  Zn  Zn151  1  0.56406679  0.06608360  0.30885234  1
  Zn  Zn152  1  0.56748291  0.06358676  0.81628816  1
  Zn  Zn153  1  0.56228852  0.56439788  0.31344763  1
  Zn  Zn154  1  0.56638127  0.56215544  0.81148278  1
  Zn  Zn155  1  0.43702977  0.18890298  0.43884651  1
  Zn  Zn156  1  0.44048109  0.18531668  0.93822425  1
  Zn  Zn157  1  0.43724474  0.68537215  0.43371153  1
  Zn  Zn158  1  0.43972123  0.68732337  0.93743335  1
  Zn  Zn159  1  0.93964425  0.18897713  0.43355373  1
  Zn  Zn160  1  0.93546240  0.19082106  0.93676095  1
  Zn  Zn161  1  0.94042497  0.68791535  0.43262712  1
  Zn  Zn162  1  0.93740982  0.68660492  0.93766072  1
  Zn  Zn163  1  0.05959472  0.31508398  0.06435150  1
  Zn  Zn164  1  0.06126955  0.31163440  0.56062817  1
  Zn  Zn165  1  0.06024749  0.80780310  0.06178555  1
  Zn  Zn166  1  0.06379242  0.81694511  0.55856881  1
  Zn  Zn167  1  0.56419425  0.31518443  0.06341527  1
  Zn  Zn168  1  0.56191782  0.31254528  0.56569860  1
  Zn  Zn169  1  0.56212691  0.80975073  0.05623109  1
  Zn  Zn170  1  0.56473726  0.80971935  0.56009514  1
  O  O171  1  0.12010191  0.12457319  0.11259450  1
  O  O172  1  0.12922797  0.11122137  0.62877287  1
  O  O173  1  0.12380391  0.61233028  0.12446385  1
  O  O174  1  0.11897798  0.62543069  0.61621550  1
  O  O175  1  0.62983167  0.11990558  0.10654540  1
  O  O176  1  0.61676485  0.12137028  0.61937304  1
  O  O177  1  0.62828259  0.61110258  0.12001250  1
  O  O178  1  0.61479197  0.61724750  0.62436929  1
  O  O179  1  0.37620157  0.37398714  0.38735341  1
  O  O180  1  0.38856347  0.37206899  0.87385130  1
  O  O181  1  0.38201427  0.87913928  0.38140987  1
  O  O182  1  0.37888314  0.88356276  0.88107009  1
  O  O183  1  0.86615457  0.38518780  0.38985023  1
  O  O184  1  0.88092187  0.38346995  0.87753824  1
  O  O185  1  0.88082982  0.88531412  0.37936467  1
  O  O186  1  0.88320995  0.87433434  0.88116477  1
  O  O187  1  0.25701358  0.01122297  0.37763259  1
  O  O188  1  0.25539785  0.00263226  0.86973146  1
  O  O189  1  0.24858172  0.50657390  0.36621461  1
  O  O190  1  0.24527747  0.51148916  0.86910906  1
  O  O191  1  0.75751411  0.00185758  0.36321467  1
  O  O192  1  0.75551976  0.00196548  0.86966832  1
  O  O193  1  0.75630262  0.51411280  0.38114945  1
  O  O194  1  0.75983904  0.49350692  0.87162362  1
  O  O195  1  0.24203137  0.49935587  0.13761336  1
  O  O196  1  0.24917657  0.49081467  0.63336626  1
  O  O197  1  0.25055079  0.98471823  0.12164894  1
  O  O198  1  0.24515720  0.99087530  0.63197790  1
  O  O199  1  0.73639473  0.48617248  0.11899021  1
  O  O200  1  0.74176659  0.49127854  0.62027072  1
  O  O201  1  0.75600466  0.99261343  0.13564172  1
  O  O202  1  0.74520510  0.99360977  0.62421006  1
  O  O203  1  0.00234394  0.35689108  0.24501490  1
  O  O204  1  -0.00623959  0.36473334  0.76071119  1
  O  O205  1  -0.00290032  0.86805437  0.26046601  1
  O  O206  1  0.01035843  0.87952264  0.75705088  1
  O  O207  1  0.50253705  0.36066189  0.25505991  1
  O  O208  1  0.50534415  0.36915940  0.75885988  1
  O  O209  1  0.50073976  0.87114809  0.26165413  1
  O  O210  1  0.50388232  0.86714538  0.75131958  1
  O  O211  1  0.48644679  0.13546396  0.25774466  1
  O  O212  1  0.50774543  0.13173959  0.74210126  1
  O  O213  1  0.49190577  0.63273955  0.26254144  1
  O  O214  1  0.49331669  0.62977682  0.74480146  1
  O  O215  1  1.00027317  0.13112543  0.23631963  1
  O  O216  1  0.99325043  0.13847120  0.75505712  1
  O  O217  1  1.00158127  0.64191633  0.25068828  1
  O  O218  1  0.99717815  0.62391424  0.73754990  1
  O  O219  1  0.36792555  0.24658703  0.00627716  1
  O  O220  1  0.38285718  0.25827380  0.51527212  1
  O  O221  1  0.36965285  0.75591662  0.00728483  1
  O  O222  1  0.36952847  0.76108954  0.49764614  1
  O  O223  1  0.86708338  0.26500237  -0.00530637  1
  O  O224  1  0.87502176  0.25801975  0.50516690  1
  O  O225  1  0.87471107  0.76032605  0.00753169  1
  O  O226  1  0.87138536  0.75408893  0.50541705  1
  O  O227  1  0.11537276  0.24628598  0.48442871  1
  O  O228  1  0.12986951  0.24454039  0.99465952  1
  O  O229  1  0.13544910  0.74339012  0.50425330  1
  O  O230  1  0.13160568  0.75149517  0.98706427  1
  O  O231  1  0.62908663  0.24679098  0.49433889  1
  O  O232  1  0.62761603  0.23946818  1.00131135  1
  O  O233  1  0.63586729  0.74875542  0.48907941  1
  O  O234  1  0.62731625  0.74397554  0.98876907  1
  O  O235  1  0.49342964  0.25131452  0.13270558  1
  O  O236  1  0.49586000  0.24243450  0.63381960  1
  O  O237  1  0.48384517  0.75897728  0.12458502  1
  O  O238  1  0.50691381  0.74049246  0.63324770  1
  O  O239  1  1.00336892  0.23824419  0.13498121  1
  O  O240  1  0.99185383  0.25705012  0.63475044  1
  O  O241  1  0.98983859  0.75257634  0.13725666  1
  O  O242  1  0.99018558  0.74471252  0.61845624  1
  O  O243  1  0.01364667  0.23952049  0.36275983  1
  O  O244  1  0.00731841  0.25703267  0.86897532  1
  O  O245  1  -0.00326364  0.76162412  0.36176497  1
  O  O246  1  0.00831250  0.76313746  0.87873591  1
  O  O247  1  0.50945788  0.25045619  0.37015057  1
  O  O248  1  0.49627911  0.25460051  0.86302628  1
  O  O249  1  0.51057933  0.75850956  0.38010620  1
  O  O250  1  0.50682939  0.75753106  0.86584209  1
  O  O251  1  0.25690317  0.12412984  0.48993791  1
  O  O252  1  0.24216213  0.13191497  0.99511615  1
  O  O253  1  0.24460038  0.63227132  0.49927920  1
  O  O254  1  0.24637964  0.63332186  0.99133360  1
  O  O255  1  0.74373523  0.13292717  0.49908977  1
  O  O256  1  0.74253030  0.13464452  0.99928284  1
  O  O257  1  0.74992832  0.63704000  0.49994220  1
  O  O258  1  0.73411075  0.62729268  1.00128620  1
  O  O259  1  0.25149385  0.35983746  -0.00207120  1
  O  O260  1  0.26222686  0.38032079  0.51066801  1
  O  O261  1  0.25547084  0.86910607  0.00353294  1
  O  O262  1  0.25598493  0.86941830  0.50531082  1
  O  O263  1  0.75363642  0.37079881  0.00394485  1
  O  O264  1  0.75693250  0.37030446  0.51115315  1
  O  O265  1  0.75795742  0.87488402  0.00649580  1
  O  O266  1  0.75757475  0.86470935  0.50181792  1
  O  O267  1  0.12975464  0.49616593  0.24569714  1
  O  O268  1  0.13982220  0.50557292  0.74581375  1
  O  O269  1  0.12945347  1.00337883  0.24627904  1
  O  O270  1  0.13091534  0.99253034  0.74599583  1
  O  O271  1  0.62426152  0.49812246  0.23911153  1
  O  O272  1  0.61993742  0.49069644  0.73733918  1
  O  O273  1  0.64013135  0.99841469  0.25440182  1
  O  O274  1  0.62479364  0.99220905  0.74140917  1
  O  O275  1  0.37139922  0.00764982  0.25808840  1
  O  O276  1  0.36499729  -0.00631852  0.75975706  1
  O  O277  1  0.36617524  0.49759701  0.25200922  1
  O  O278  1  0.36636052  0.51251742  0.74660540  1
  O  O279  1  0.86219813  -0.00402559  0.25671556  1
  O  O280  1  0.87819825  0.01549714  0.74618044  1
  O  O281  1  0.88240379  0.49346166  0.26573814  1
  O  O282  1  0.87798147  0.51465644  0.75396776  1
  O  O283  1  0.12995383  0.35879375  0.37625822  1
  O  O284  1  0.11736835  0.36443633  0.87937813  1
  O  O285  1  0.11357165  0.87739456  0.37648402  1
  O  O286  1  0.11939210  0.87106033  0.86733047  1
  O  O287  1  0.62678503  0.36335616  0.37476479  1
  O  O288  1  0.61719121  0.37963181  0.86262556  1
  O  O289  1  0.61746417  0.86770757  0.37539040  1
  O  O290  1  0.61884592  0.86922231  0.86754718  1
  O  O291  1  0.36996405  0.13511993  0.13414818  1
  O  O292  1  0.38805839  0.12943748  0.62159428  1
  O  O293  1  0.36535673  0.64237499  0.12475263  1
  O  O294  1  0.38675487  0.62366871  0.63204770  1
  O  O295  1  0.88590577  0.12809400  0.11901301  1
  O  O296  1  0.87162655  0.13891645  0.62928293  1
  O  O297  1  0.87144672  0.64020599  0.12001763  1
  O  O298  1  0.88178338  0.63073027  0.63359999  1
  O  O299  1  0.25458135  0.24772193  0.11651978  1
  O  O300  1  0.26045455  0.25650051  0.63298889  1
  O  O301  1  0.25467862  0.75926177  0.11876206  1
  O  O302  1  0.24816321  0.76264340  0.61770415  1
  O  O303  1  0.74314052  0.26725909  0.11108365  1
  O  O304  1  0.75850228  0.25799925  0.61872862  1
  O  O305  1  0.75920928  0.75676372  0.12494541  1
  O  O306  1  0.75952216  0.75437146  0.61664464  1
  O  O307  1  0.23940631  0.23895088  0.37553077  1
  O  O308  1  0.24384790  0.24447313  0.87820642  1
  O  O309  1  0.25305021  0.74374751  0.38690920  1
  O  O310  1  0.24432996  0.74372936  0.87901541  1
  O  O311  1  0.74444047  0.24844329  0.38081973  1
  O  O312  1  0.74934786  0.25169775  0.88779764  1
  O  O313  1  0.74865018  0.74259172  0.37923663  1
  O  O314  1  0.73755081  0.75629215  0.87340685  1
  O  O315  1  0.00318102  0.12125074  0.00697383  1
  O  O316  1  -0.00399448  0.11106854  0.49736859  1
  O  O317  1  0.00223827  0.62382425  0.00558130  1
  O  O318  1  0.00679783  0.62284976  0.50674327  1
  O  O319  1  0.50742879  0.11318269  0.00059539  1
  O  O320  1  0.50621801  0.11935067  0.50722853  1
  O  O321  1  0.51539498  0.62859225  -0.00216558  1
  O  O322  1  0.50115429  0.61821129  0.50688514  1
  O  O323  1  0.49061529  0.38179243  0.50416194  1
  O  O324  1  0.50150721  0.36988456  0.98144545  1
  O  O325  1  0.49431703  0.87781190  0.49358141  1
  O  O326  1  0.49520533  0.88574466  0.99479471  1
  O  O327  1  0.99021390  0.38640740  0.50561575  1
  O  O328  1  0.99034276  0.37469939  0.98918180  1
  O  O329  1  0.99619298  0.87826703  0.48532640  1
  O  O330  1  0.99438453  0.88191342  0.99552557  1
  O  O331  1  0.50246538  0.49604042  0.39024340  1
  O  O332  1  0.50035762  0.48750452  0.87306721  1
  O  O333  1  0.49690465  0.99304725  0.37966196  1
  O  O334  1  0.49230930  0.99405717  0.87672640  1
  O  O335  1  0.99228506  0.51016434  0.38812120  1
  O  O336  1  0.99421458  0.49176152  0.87375160  1
  O  O337  1  0.99533539  0.99196614  0.37712750  1
  O  O338  1  0.99861359  0.98999953  0.88268242  1
  O  O339  1  -0.00243605  0.01106504  0.11897047  1
  O  O340  1  0.01050835  -0.00643714  0.61301761  1
  O  O341  1  0.00601490  0.50134101  0.12411223  1
  O  O342  1  0.00124959  0.50919870  0.61595098  1
  O  O343  1  0.49490935  -0.00679465  0.11554505  1
  O  O344  1  0.50493638  0.00704738  0.62076881  1
  O  O345  1  0.51493153  0.49046909  0.12402345  1
  O  O346  1  0.50496535  0.50546372  0.61827081  1
  O  O347  1  0.24644803  0.38209882  0.25030613  1
  O  O348  1  0.25666014  0.38451976  0.74338135  1
  O  O349  1  0.25334775  0.87622747  0.23676148  1
  O  O350  1  0.24347932  0.88175767  0.74408616  1
  O  O351  1  0.74934790  0.36874391  0.23497552  1
  O  O352  1  0.74323223  0.36767757  0.73906217  1
  O  O353  1  0.74666983  0.88454073  0.24143197  1
  O  O354  1  0.74556522  0.87551469  0.73942831  1
  O  O355  1  0.26222377  0.12598761  0.26004790  1
  O  O356  1  0.24612299  0.11082796  0.75677577  1
  O  O357  1  0.25309664  0.61862631  0.25951207  1
  O  O358  1  0.25795141  0.62139288  0.75485729  1
  O  O359  1  0.74827117  0.11395968  0.24614325  1
  O  O360  1  0.75922106  0.12649886  0.75133966  1
  O  O361  1  0.75208867  0.62702868  0.26138891  1
  O  O362  1  0.76175937  0.62642987  0.74358577  1
  O  O363  1  0.36610582  0.12347343  0.37195129  1
  O  O364  1  0.36913138  0.11312490  0.87905995  1
  O  O365  1  0.36032279  0.61923252  0.37985406  1
  O  O366  1  0.36547742  0.63205674  0.86548239  1
  O  O367  1  0.87395242  0.10910316  0.38058982  1
  O  O368  1  0.87275783  0.12481529  0.86557291  1
  O  O369  1  0.86201727  0.61906399  0.38067170  1
  O  O370  1  0.87771198  0.62060633  0.86062733  1
  O  O371  1  0.12752429  0.38554997  0.12616560  1
  O  O372  1  0.13915754  0.37289405  0.62054348  1
  O  O373  1  0.13908158  0.87491155  0.11597413  1
  O  O374  1  0.13167003  0.88017034  0.63306506  1
  O  O375  1  0.63331366  0.38467815  0.12670306  1
  O  O376  1  0.63213622  0.38094545  0.63247386  1
  O  O377  1  0.63775251  0.86704043  0.12359253  1
  O  O378  1  0.63077423  0.87880234  0.62799237  1
  O  O379  1  0.11689308  0.24897629  0.25981499  1
  O  O380  1  0.11768322  0.24527405  0.76029114  1
  O  O381  1  0.11404685  0.75145654  0.24418762  1
  O  O382  1  0.13183647  0.75993275  0.76068237  1
  O  O383  1  0.61852173  0.24703162  0.25622725  1
  O  O384  1  0.61473134  0.26107717  0.74272961  1
  O  O385  1  0.62650853  0.75372006  0.26167278  1
  O  O386  1  0.61611603  0.75338744  0.75446252  1
  O  O387  1  0.38094454  0.24449588  0.24415728  1
  O  O388  1  0.38685594  0.25061484  0.73793440  1
  O  O389  1  0.37355747  0.75188317  0.23489126  1
  O  O390  1  0.38654746  0.74313147  0.75185489  1
  O  O391  1  0.89234948  0.24749293  0.26257774  1
  O  O392  1  0.88119213  0.24256829  0.74317697  1
  O  O393  1  0.87962814  0.75514763  0.23900813  1
  O  O394  1  0.87453801  0.73799023  0.74119445  1
  O  O395  1  0.38306052  0.49134253  0.50161718  1
  O  O396  1  0.37869200  0.49557579  1.00559401  1
  O  O397  1  0.38182055  0.98880946  0.49548219  1
  O  O398  1  0.38548768  0.99784823  0.99394923  1
  O  O399  1  0.88207322  0.49518293  0.49646273  1
  O  O400  1  0.87371221  0.49163935  0.98928080  1
  O  O401  1  0.88245589  0.99227049  0.49464804  1
  O  O402  1  0.88369532  0.99026595  1.00061145  1
  O  O403  1  0.11203808  0.00690911  0.00164713  1
  O  O404  1  0.11667038  -0.00444832  0.50949884  1
  O  O405  1  0.12257574  0.50165517  0.00938930  1
  O  O406  1  0.11758862  0.50754735  0.50305953  1
  O  O407  1  0.61036846  0.00169350  0.00088724  1
  O  O408  1  0.62094317  0.00378574  0.50409558  1
  O  O409  1  0.61746822  0.50629666  0.00753952  1
  O  O410  1  0.61776566  0.49878244  0.51198570  1
  O  O411  1  0.37031588  0.35899773  0.12205745  1
  O  O412  1  0.36840400  0.36706254  0.62191800  1
  O  O413  1  0.36348050  0.86718536  0.11859152  1
  O  O414  1  0.36565435  0.88072364  0.61581695  1
  O  O415  1  0.86088585  0.38290343  0.11449757  1
  O  O416  1  0.86852436  0.36976460  0.61963759  1
  O  O417  1  0.86734468  0.86637868  0.11854797  1
  O  O418  1  0.87363186  0.86698822  0.62003106  1
  O  O419  1  0.13955423  0.13096051  0.37561694  1
  O  O420  1  0.12726699  0.13293618  0.88671333  1
  O  O421  1  0.13569416  0.62256245  0.38884563  1
  O  O422  1  0.13234756  0.63429107  0.87303363  1
  O  O423  1  0.62795304  0.13562621  0.38093406  1
  O  O424  1  0.62754753  0.11737359  0.89552925  1
  O  O425  1  0.63946795  0.63087502  0.37860411  1
  O  O426  1  0.62323009  0.63370628  0.87910644  1
