# generated using pymatgen
data_V85Zn86O256
_symmetry_space_group_name_H-M   'P 1'
_cell_length_a   16.93607330
_cell_length_b   16.93626849
_cell_length_c   16.93950011
_cell_angle_alpha   90.17001801
_cell_angle_beta   90.00424655
_cell_angle_gamma   89.96975352
_symmetry_Int_Tables_number   1
_chemical_formula_structural   V85Zn86O256
_chemical_formula_sum   'V85 Zn86 O256'
_cell_volume   4858.80053934
_cell_formula_units_Z   1
loop_
 _symmetry_equiv_pos_site_id
 _symmetry_equiv_pos_as_xyz
  1  'x, y, z'
loop_
 _atom_site_type_symbol
 _atom_site_label
 _atom_site_symmetry_multiplicity
 _atom_site_fract_x
 _atom_site_fract_y
 _atom_site_fract_z
 _atom_site_occupancy
  V  V0  1  0.12670810  0.00181129  0.62332600  1
  V  V1  1  0.87784288  0.37445805  -0.00087540  1
  V  V2  1  0.87219038  0.62423213  0.73419862  1
  V  V3  1  0.61433506  0.12684147  0.49877744  1
  V  V4  1  0.00754717  0.24744074  0.24892176  1
  V  V5  1  0.38282517  0.87355133  -0.00596196  1
  V  V6  1  0.62485480  -0.00028965  0.12482306  1
  V  V7  1  0.87124394  0.12331474  0.25356164  1
  V  V8  1  0.12273500  0.87914327  0.24716412  1
  V  V9  1  0.49019980  0.75527862  0.75597538  1
  V  V10  1  0.25009520  0.12953469  0.37598060  1
  V  V11  1  0.25099871  0.01126727  0.75238145  1
  V  V12  1  0.00157636  0.74514822  0.24734910  1
  V  V13  1  0.12257289  0.12680179  0.49496403  1
  V  V14  1  0.25380177  0.51272476  0.25183007  1
  V  V15  1  0.87787112  0.13427151  0.75115040  1
  V  V16  1  0.62072935  0.24508600  0.86355301  1
  V  V17  1  0.61289235  0.50486069  0.13454269  1
  V  V18  1  0.38052267  -0.00171439  0.38110608  1
  V  V19  1  0.75446614  0.49941237  0.25083597  1
  V  V20  1  0.87573418  0.24879755  0.12439798  1
  V  V21  1  0.37305370  0.74921592  0.60862174  1
  V  V22  1  0.87465832  0.87458493  -0.00202214  1
  V  V23  1  0.10497125  0.50421573  0.62469028  1
  V  V24  1  0.25328582  0.25374729  0.49935767  1
  V  V25  1  0.74992513  0.87368880  0.12534339  1
  V  V26  1  0.25504422  0.87270073  0.61278993  1
  V  V27  1  0.75336380  0.62575263  0.37588570  1
  V  V28  1  0.61430527  0.86996089  0.24923014  1
  V  V29  1  0.74655417  0.75178336  0.50858569  1
  V  V30  1  -0.00021205  0.13016044  0.63018529  1
  V  V31  1  0.39066215  0.13084374  0.75131317  1
  V  V32  1  0.25166196  0.87644546  0.12299495  1
  V  V33  1  0.37739603  0.25315306  0.12617582  1
  V  V34  1  0.50112475  0.12582615  0.12488311  1
  V  V35  1  0.25268349  0.37665613  0.12671517  1
  V  V36  1  0.12515010  0.74888305  0.87360181  1
  V  V37  1  0.87100448  -0.00332018  0.86614384  1
  V  V38  1  0.37614317  0.37390117  0.00009918  1
  V  V39  1  0.37662617  0.00125967  0.87457361  1
  V  V40  1  0.86766392  0.88028006  0.50925965  1
  V  V41  1  0.00103183  0.87276869  0.86945745  1
  V  V42  1  0.62993024  0.36626356  0.25765292  1
  V  V43  1  0.25186289  0.00486126  0.25076671  1
  V  V44  1  0.11818586  0.50798994  0.12699216  1
  V  V45  1  0.12400121  0.37705949  0.25173426  1
  V  V46  1  0.61763735  0.74749783  0.37013364  1
  V  V47  1  0.13292597  0.12618036  -0.00258698  1
  V  V48  1  0.49596183  0.36540835  0.86656907  1
  V  V49  1  0.25134336  0.62499042  0.87072854  1
  V  V50  1  0.75013002  0.24089431  0.48194371  1
  V  V51  1  0.88484846  0.49315671  0.38269662  1
  V  V52  1  0.06796448  0.30969149  0.41957749  1
  V  V53  1  0.50227393  0.25067822  0.25715220  1
  V  V54  1  0.37879801  0.38297615  0.50367962  1
  V  V55  1  0.13545700  0.75619622  0.38413802  1
  V  V56  1  0.75048708  0.74456098  -0.00648056  1
  V  V57  1  0.37362631  0.50298001  0.86980879  1
  V  V58  1  0.24893456  0.50084376  0.74531767  1
  V  V59  1  0.00059142  -0.00007351  -0.00236770  1
  V  V60  1  0.50569330  0.37809940  0.38313896  1
  V  V61  1  0.87905666  0.74140979  0.12356584  1
  V  V62  1  0.74880686  0.24805703  -0.00190888  1
  V  V63  1  0.12652729  0.87421133  0.74610160  1
  V  V64  1  0.74804051  0.11958260  0.86640080  1
  V  V65  1  0.62367439  0.37678261  0.74723983  1
  V  V66  1  0.38907988  0.24699475  0.62712727  1
  V  V67  1  0.74724289  0.00049040  0.25855774  1
  V  V68  1  0.37762791  0.50625373  0.37545285  1
  V  V69  1  0.74797902  0.37587618  0.12461111  1
  V  V70  1  0.62212734  0.76097709  0.87278243  1
  V  V71  1  0.50165055  -0.00753360  0.51691260  1
  V  V72  1  -0.00604970  0.87897453  0.37436957  1
  V  V73  1  0.12543743  0.24503144  0.86671304  1
  V  V74  1  0.12535814  0.00167236  0.12227509  1
  V  V75  1  0.62769398  0.62255845  -0.00821644  1
  V  V76  1  0.37848647  0.74517867  0.14024211  1
  V  V77  1  0.25277060  0.74833557  0.00022446  1
  V  V78  1  0.49986547  0.62093977  0.62616743  1
  V  V79  1  0.63866820  0.88179574  0.72808396  1
  V  V80  1  -0.00333568  0.37233414  0.86726178  1
  V  V81  1  0.86696208  0.51118800  0.87778569  1
  V  V82  1  0.50075453  0.49873751  -0.00525567  1
  V  V83  1  0.75070392  0.37037587  0.62097886  1
  V  V84  1  0.62387469  0.12522882  -0.00253932  1
  Zn  Zn85  1  0.74347148  0.50498817  0.75050425  1
  Zn  Zn86  1  -0.00445007  0.50994690  0.00442183  1
  Zn  Zn87  1  0.37726980  0.12663165  0.25265311  1
  Zn  Zn88  1  0.25097761  0.24747003  -0.00231706  1
  Zn  Zn89  1  0.88581566  0.37325661  0.49979558  1
  Zn  Zn90  1  0.87452350  0.25114077  0.62485891  1
  Zn  Zn91  1  0.25959555  0.63768562  0.38280319  1
  Zn  Zn92  1  0.25035868  0.37531838  0.62925590  1
  Zn  Zn93  1  0.49498962  0.87163962  0.37869616  1
  Zn  Zn94  1  0.49921017  0.63405139  0.12953058  1
  Zn  Zn95  1  0.86758488  0.00240593  0.37959286  1
  Zn  Zn96  1  0.12425050  0.63294032  0.51577170  1
  Zn  Zn97  1  0.88000219  0.75116780  0.62288461  1
  Zn  Zn98  1  -0.00585831  0.00299209  0.50051042  1
  Zn  Zn99  1  -0.00094937  0.12408093  0.12201057  1
  Zn  Zn100  1  0.12016748  0.62749515  0.00343043  1
  Zn  Zn101  1  0.61972423  0.61871047  0.49694567  1
  Zn  Zn102  1  0.12431405  0.37640350  0.75427910  1
  Zn  Zn103  1  0.62041526  0.49646099  0.61436332  1
  Zn  Zn104  1  0.88043512  0.62236048  0.24868059  1
  Zn  Zn105  1  0.50238160  -0.00379311  -0.00492899  1
  Zn  Zn106  1  0.00833809  0.73356862  0.73641939  1
  Zn  Zn107  1  0.18799805  0.18837021  0.18489683  1
  Zn  Zn108  1  0.19103407  0.18927537  0.68403887  1
  Zn  Zn109  1  0.18968364  0.68957074  0.19308611  1
  Zn  Zn110  1  0.19274811  0.68528795  0.68648451  1
  Zn  Zn111  1  0.68876750  0.18654906  0.18924129  1
  Zn  Zn112  1  0.68654247  0.18099383  0.68143299  1
  Zn  Zn113  1  0.68875020  0.68605609  0.18445531  1
  Zn  Zn114  1  0.68625093  0.68666067  0.69179421  1
  Zn  Zn115  1  0.31529259  0.31682665  0.31488612  1
  Zn  Zn116  1  0.30797881  0.30938171  0.81240303  1
  Zn  Zn117  1  0.31318434  0.82182195  0.31174034  1
  Zn  Zn118  1  0.30958404  0.81789811  0.81090279  1
  Zn  Zn119  1  0.81890994  0.31177786  0.31235097  1
  Zn  Zn120  1  0.80696428  0.31387824  0.81275920  1
  Zn  Zn121  1  0.80970753  0.81242431  0.31352067  1
  Zn  Zn122  1  0.81090091  0.80492739  0.80944416  1
  Zn  Zn123  1  0.19526550  0.45092098  0.44570374  1
  Zn  Zn124  1  0.18606638  0.43538371  0.93970841  1
  Zn  Zn125  1  0.18691156  0.94151334  0.43589105  1
  Zn  Zn126  1  0.19254976  0.93771099  0.93414400  1
  Zn  Zn127  1  0.69025135  0.43709764  0.44088301  1
  Zn  Zn128  1  0.68633154  0.43451188  0.93602733  1
  Zn  Zn129  1  0.67958177  0.93638568  0.44331860  1
  Zn  Zn130  1  0.68824830  0.93708311  0.93664130  1
  Zn  Zn131  1  0.31499967  0.06326796  0.06196595  1
  Zn  Zn132  1  0.31645251  0.06270553  0.56529889  1
  Zn  Zn133  1  0.31198972  0.56408974  0.06091072  1
  Zn  Zn134  1  0.30993404  0.57226270  0.56051122  1
  Zn  Zn135  1  0.81198641  0.06182988  0.06195129  1
  Zn  Zn136  1  0.79988446  0.06034672  0.57048192  1
  Zn  Zn137  1  0.80852325  0.56217925  0.06313578  1
  Zn  Zn138  1  0.80555110  0.55506946  0.55846230  1
  Zn  Zn139  1  0.44740717  0.45279814  0.19576505  1
  Zn  Zn140  1  0.43490242  0.43651773  0.68883419  1
  Zn  Zn141  1  0.43515028  0.93920190  0.18612516  1
  Zn  Zn142  1  0.43798653  0.93043826  0.69266593  1
  Zn  Zn143  1  0.94059643  0.43389017  0.19257884  1
  Zn  Zn144  1  0.92924006  0.43705148  0.69169775  1
  Zn  Zn145  1  0.93530317  0.93600759  0.18557536  1
  Zn  Zn146  1  0.93661325  0.94264441  0.68540643  1
  Zn  Zn147  1  0.06093437  0.06492207  0.31320003  1
  Zn  Zn148  1  0.06175897  0.06238494  0.81179171  1
  Zn  Zn149  1  0.04344269  0.58896972  0.35977170  1
  Zn  Zn150  1  0.05807866  0.56008943  0.81565888  1
  Zn  Zn151  1  0.56721428  0.06538797  0.31919670  1
  Zn  Zn152  1  0.56093125  0.05273151  0.80829048  1
  Zn  Zn153  1  0.56570922  0.55669702  0.31419283  1
  Zn  Zn154  1  0.55983712  0.56750261  0.80801155  1
  Zn  Zn155  1  0.43794739  0.18621983  0.43909397  1
  Zn  Zn156  1  0.43546519  0.18445419  0.93530228  1
  Zn  Zn157  1  0.44076314  0.68682391  0.44042232  1
  Zn  Zn158  1  0.43874475  0.68522895  0.93704883  1
  Zn  Zn159  1  0.92954862  0.18331492  0.44072853  1
  Zn  Zn160  1  0.94123230  0.18654089  0.93557582  1
  Zn  Zn161  1  0.93840952  0.69208940  0.44693485  1
  Zn  Zn162  1  0.94341608  0.68671876  0.93604959  1
  Zn  Zn163  1  0.06299596  0.31364808  0.06146568  1
  Zn  Zn164  1  0.06420014  0.31503166  0.58417119  1
  Zn  Zn165  1  0.06204005  0.81179768  0.06119566  1
  Zn  Zn166  1  0.05606878  0.81567565  0.56259814  1
  Zn  Zn167  1  0.56290196  0.31468807  0.06102827  1
  Zn  Zn168  1  0.56814833  0.30678450  0.56003944  1
  Zn  Zn169  1  0.56132069  0.80959318  0.06311288  1
  Zn  Zn170  1  0.56016548  0.80821154  0.56161787  1
  O  O171  1  0.12258200  0.11887326  0.11567556  1
  O  O172  1  0.12024869  0.12404482  0.61522302  1
  O  O173  1  0.13322919  0.61021918  0.12801371  1
  O  O174  1  0.12454186  0.61004734  0.63257656  1
  O  O175  1  0.61558342  0.12320002  0.12035230  1
  O  O176  1  0.64003114  0.11959998  0.60000412  1
  O  O177  1  0.62360863  0.62245513  0.11047032  1
  O  O178  1  0.61116128  0.62504544  0.62701483  1
  O  O179  1  0.38408787  0.38164387  0.38451581  1
  O  O180  1  0.38043477  0.37748518  0.87898056  1
  O  O181  1  0.37660787  0.89248106  0.37231597  1
  O  O182  1  0.37023931  0.88443647  0.88386862  1
  O  O183  1  0.87106929  0.38910572  0.37741624  1
  O  O184  1  0.87889481  0.37701662  0.88255226  1
  O  O185  1  0.88142955  0.87786360  0.37913032  1
  O  O186  1  0.87877976  0.87997937  0.87586461  1
  O  O187  1  0.25636089  0.00951734  0.37081992  1
  O  O188  1  0.26174709  -0.00260969  0.86431519  1
  O  O189  1  0.25984783  0.50079870  0.36634212  1
  O  O190  1  0.25416755  0.50588709  0.87125501  1
  O  O191  1  0.74716258  -0.00774357  0.36075035  1
  O  O192  1  0.75939598  0.00820411  0.88129892  1
  O  O193  1  0.75925232  0.50672438  0.36809522  1
  O  O194  1  0.76411128  0.49115625  0.87373014  1
  O  O195  1  0.24857311  0.49362812  0.13250255  1
  O  O196  1  0.25866170  0.50199415  0.64117968  1
  O  O197  1  0.24606234  0.99776163  0.13028517  1
  O  O198  1  0.24676113  0.99413256  0.63242816  1
  O  O199  1  0.74067281  0.49570999  0.13335788  1
  O  O200  1  0.74534184  0.48454021  0.62700978  1
  O  O201  1  0.74326866  0.99272513  0.12907846  1
  O  O202  1  0.75210707  0.99072138  0.64006526  1
  O  O203  1  0.01562591  0.36573445  0.24881541  1
  O  O204  1  -0.00246241  0.37579682  0.76412486  1
  O  O205  1  0.00442288  0.87226765  0.25462039  1
  O  O206  1  0.01415998  0.88076390  0.75278528  1
  O  O207  1  0.51158189  0.36897119  0.25724408  1
  O  O208  1  0.50604308  0.37638366  0.75956892  1
  O  O209  1  0.51203559  0.87983174  0.24985518  1
  O  O210  1  0.51250315  0.85965088  0.74550761  1
  O  O211  1  0.50369080  0.13459688  0.24380331  1
  O  O212  1  0.48918033  0.12487438  0.75106556  1
  O  O213  1  0.51996249  0.55577576  0.20958937  1
  O  O214  1  0.50317829  0.64288452  0.73982180  1
  O  O215  1  0.99544459  0.13175040  0.24417692  1
  O  O216  1  0.99108390  0.12090538  0.74322949  1
  O  O217  1  0.99980520  0.64275707  0.25799224  1
  O  O218  1  0.97747227  0.62208756  0.76163489  1
  O  O219  1  0.37392801  0.25560385  0.00688563  1
  O  O220  1  0.36990865  0.25573437  0.50795483  1
  O  O221  1  0.36608391  0.75623943  0.00023161  1
  O  O222  1  0.37621147  0.75416999  0.50987559  1
  O  O223  1  0.87034164  0.25519287  0.00308376  1
  O  O224  1  0.86333082  0.25362176  0.50092833  1
  O  O225  1  0.86855037  0.75398550  0.00337275  1
  O  O226  1  0.86460745  0.76011244  0.49774601  1
  O  O227  1  0.12972351  0.25060060  0.49476955  1
  O  O228  1  0.12546966  0.24089424  0.99458910  1
  O  O229  1  0.12535044  0.75913863  0.48549457  1
  O  O230  1  0.13912563  0.75325373  0.99572678  1
  O  O231  1  0.63735386  0.23891527  0.49865175  1
  O  O232  1  0.62899669  0.24430673  0.98974806  1
  O  O233  1  0.63172276  0.74611444  0.48892431  1
  O  O234  1  0.63028733  0.74333690  0.99534197  1
  O  O235  1  0.49781094  0.24572638  0.13320697  1
  O  O236  1  0.48833910  0.25116357  0.62273766  1
  O  O237  1  0.48411252  0.75010076  0.12559687  1
  O  O238  1  0.48764313  0.74705709  0.63290357  1
  O  O239  1  0.99389125  0.24975618  0.13224850  1
  O  O240  1  0.99648452  0.23556684  0.62617765  1
  O  O241  1  0.99021117  0.75840127  0.13318423  1
  O  O242  1  0.99503920  0.74911407  0.62526801  1
  O  O243  1  0.00241079  0.24468366  0.36678396  1
  O  O244  1  0.01304935  0.25905449  0.88164968  1
  O  O245  1  0.00995285  0.76592251  0.36565449  1
  O  O246  1  0.00727145  0.75856247  0.86821816  1
  O  O247  1  0.49328540  0.25798084  0.36263960  1
  O  O248  1  0.50812905  0.25426440  0.87591584  1
  O  O249  1  0.51239835  0.74959145  0.37538437  1
  O  O250  1  0.50524292  0.74594947  0.86393638  1
  O  O251  1  0.24258855  0.13323268  0.49733804  1
  O  O252  1  0.23723442  0.12503080  1.00258567  1
  O  O253  1  0.23690289  0.62004767  0.49274107  1
  O  O254  1  0.24600002  0.63275977  0.99141824  1
  O  O255  1  0.75668099  0.13872700  0.49776879  1
  O  O256  1  0.74419386  0.12885477  0.99043461  1
  O  O257  1  0.74962538  0.63146917  0.48763820  1
  O  O258  1  0.74118277  0.63325190  1.00240796  1
  O  O259  1  0.25667902  0.37568316  0.01301379  1
  O  O260  1  0.26066778  0.36892710  0.50218787  1
  O  O261  1  0.25838282  0.86814435  0.00487730  1
  O  O262  1  0.24753831  0.88364420  0.51410067  1
  O  O263  1  0.75861971  0.36890647  0.00363411  1
  O  O264  1  0.74928837  0.36099126  0.50640795  1
  O  O265  1  0.75568395  0.86767918  0.00591574  1
  O  O266  1  0.75682975  0.86474578  0.48998822  1
  O  O267  1  0.13659479  0.49037132  0.23911949  1
  O  O268  1  0.13160472  0.50003205  0.74566618  1
  O  O269  1  0.13072339  0.99818126  0.24356081  1
  O  O270  1  0.13302309  0.99605618  0.74510359  1
  O  O271  1  0.64304799  0.48334229  0.25378578  1
  O  O272  1  0.62425832  0.48813024  0.75162890  1
  O  O273  1  0.63054312  0.99472751  0.24356276  1
  O  O274  1  0.62189755  0.97942392  0.75142361  1
  O  O275  1  0.36709340  0.00488787  0.25513776  1
  O  O276  1  0.37087574  0.00811493  0.75457853  1
  O  O277  1  0.36316681  0.48812985  0.26293243  1
  O  O278  1  0.36807637  0.49553071  0.76443199  1
  O  O279  1  0.86482697  0.00661588  0.24657808  1
  O  O280  1  0.87939508  0.00858098  0.76295101  1
  O  O281  1  0.86498972  0.49866629  0.25085117  1
  O  O282  1  0.86960728  0.50828036  0.76236781  1
  O  O283  1  0.13157419  0.37823779  0.36926597  1
  O  O284  1  0.11405700  0.36760038  0.87714281  1
  O  O285  1  0.11997437  0.87225081  0.36715637  1
  O  O286  1  0.12300855  0.86982128  0.86650785  1
  O  O287  1  0.61826708  0.37548967  0.36836014  1
  O  O288  1  0.61812778  0.36496497  0.86713301  1
  O  O289  1  0.62339064  0.86524011  0.36509416  1
  O  O290  1  0.62211791  0.86225790  0.88156065  1
  O  O291  1  0.38783909  0.13159714  0.12591127  1
  O  O292  1  0.37022916  0.13282060  0.64105297  1
  O  O293  1  0.37529343  0.64093184  0.12129268  1
  O  O294  1  0.38231321  0.64070227  0.62442500  1
  O  O295  1  0.87664318  0.13107930  0.13216014  1
  O  O296  1  0.88200869  0.12530457  0.63533722  1
  O  O297  1  0.86990307  0.63753237  0.12769356  1
  O  O298  1  0.87349391  0.61757027  0.63295436  1
  O  O299  1  0.25819301  0.25841659  0.12362211  1
  O  O300  1  0.25541100  0.25291877  0.61257730  1
  O  O301  1  0.25862725  0.75378894  0.11833762  1
  O  O302  1  0.26481918  0.75651499  0.63091378  1
  O  O303  1  0.75525377  0.25487696  0.11820166  1
  O  O304  1  0.75151915  0.26021020  0.62325745  1
  O  O305  1  0.75667048  0.75535216  0.11537979  1
  O  O306  1  0.75324175  0.74123463  0.61039442  1
  O  O307  1  0.25927366  0.24352076  0.38809125  1
  O  O308  1  0.23040386  0.25770369  0.88160783  1
  O  O309  1  0.23974909  0.76023608  0.37193722  1
  O  O310  1  0.24732945  0.74376803  0.88070711  1
  O  O311  1  0.75238215  0.25095215  0.38334389  1
  O  O312  1  0.74120736  0.24151759  0.88038943  1
  O  O313  1  0.74227721  0.74002734  0.37697745  1
  O  O314  1  0.74174373  0.75179842  0.88787193  1
  O  O315  1  0.00914640  0.11578761  0.00014071  1
  O  O316  1  0.00710328  0.12462054  0.50565442  1
  O  O317  1  0.00677185  0.62332254  0.00081079  1
  O  O318  1  0.02079908  0.62345837  0.46726041  1
  O  O319  1  0.50592813  0.12531474  0.00894439  1
  O  O320  1  0.50787549  0.11962634  0.50161855  1
  O  O321  1  0.50496642  0.61290274  0.00450003  1
  O  O322  1  0.50208906  0.63303523  0.52072386  1
  O  O323  1  0.49393637  0.36611282  0.49110798  1
  O  O324  1  0.49706673  0.37490025  0.98116062  1
  O  O325  1  0.50359113  0.88839056  0.49816499  1
  O  O326  1  0.48643261  0.87613064  1.00549933  1
  O  O327  1  1.00776234  0.35769093  0.49076211  1
  O  O328  1  0.98675183  0.37729681  0.99688940  1
  O  O329  1  0.98864517  0.88027946  0.49034118  1
  O  O330  1  0.99464900  0.87936643  0.99035026  1
  O  O331  1  0.49234923  0.48664753  0.37164623  1
  O  O332  1  0.49281912  0.49370471  0.87878320  1
  O  O333  1  0.49160426  0.99978278  0.37837837  1
  O  O334  1  0.48344936  1.00468090  0.87841937  1
  O  O335  1  0.98175613  0.49420108  0.35693553  1
  O  O336  1  0.98595220  0.48957829  0.88122310  1
  O  O337  1  0.99866696  0.98914733  0.37429544  1
  O  O338  1  0.99363434  0.99305222  0.88029554  1
  O  O339  1  0.00631698  -0.00212663  0.11432882  1
  O  O340  1  0.00854136  0.01192705  0.62289837  1
  O  O341  1  0.01538934  0.49526533  0.12832177  1
  O  O342  1  0.00671457  0.49660340  0.63059882  1
  O  O343  1  0.50477861  0.01072832  0.12397318  1
  O  O344  1  0.49264660  -0.00323005  0.61506770  1
  O  O345  1  0.50430444  0.46760602  0.09561244  1
  O  O346  1  0.49590036  0.51785988  0.63591075  1
  O  O347  1  0.24186676  0.37544053  0.24189945  1
  O  O348  1  0.24739571  0.38615855  0.75223019  1
  O  O349  1  0.24306951  0.88546823  0.24166783  1
  O  O350  1  0.23937086  0.88463205  0.74387051  1
  O  O351  1  0.74739989  0.37628394  0.24498292  1
  O  O352  1  0.73880254  0.37574164  0.74358387  1
  O  O353  1  0.74310738  0.88142749  0.24164542  1
  O  O354  1  0.73620355  0.86693965  0.75274547  1
  O  O355  1  0.25023679  0.12265214  0.25745784  1
  O  O356  1  0.25175705  0.11355120  0.74693941  1
  O  O357  1  0.25468338  0.61469165  0.25307659  1
  O  O358  1  0.24994332  0.61870323  0.76419540  1
  O  O359  1  0.75843984  0.11428123  0.24319608  1
  O  O360  1  0.75589099  0.12736782  0.76173526  1
  O  O361  1  0.75131950  0.61516683  0.25659898  1
  O  O362  1  0.76403712  0.62189980  0.74959899  1
  O  O363  1  0.36842045  0.11721556  0.37352870  1
  O  O364  1  0.37284292  0.12095667  0.86072758  1
  O  O365  1  0.37975568  0.61134019  0.37920490  1
  O  O366  1  0.36563146  0.61382369  0.88294410  1
  O  O367  1  0.88006808  0.12005596  0.35790888  1
  O  O368  1  0.86855838  0.11817258  0.87104264  1
  O  O369  1  0.86748340  0.61590544  0.37064121  1
  O  O370  1  0.87052274  0.61152530  0.88080240  1
  O  O371  1  0.13412033  0.38067220  0.13147619  1
  O  O372  1  0.13029744  0.38836657  0.63641019  1
  O  O373  1  0.13154011  0.88312612  0.12640820  1
  O  O374  1  0.13127721  0.88106517  0.63015584  1
  O  O375  1  0.63135578  0.37970704  0.13332808  1
  O  O376  1  0.62746398  0.37387783  0.63385301  1
  O  O377  1  0.62964572  0.87747998  0.13022178  1
  O  O378  1  0.63033638  0.86850083  0.62885975  1
  O  O379  1  0.11514116  0.25534101  0.24673483  1
  O  O380  1  0.12838090  0.25042144  0.76304411  1
  O  O381  1  0.11865029  0.76426159  0.24678406  1
  O  O382  1  0.12684214  0.75822767  0.75423220  1
  O  O383  1  0.61964351  0.25923610  0.24629954  1
  O  O384  1  0.62958282  0.25352389  0.75919730  1
  O  O385  1  0.63087216  0.75859002  0.25514811  1
  O  O386  1  0.61887112  0.75703638  0.75792364  1
  O  O387  1  0.38462615  0.25076825  0.24299424  1
  O  O388  1  0.36984153  0.23785027  0.74486068  1
  O  O389  1  0.37074432  0.75248884  0.23873688  1
  O  O390  1  0.38817608  0.75634203  0.75256762  1
  O  O391  1  0.88518029  0.24372297  0.24510746  1
  O  O392  1  0.87202570  0.23725959  0.75392641  1
  O  O393  1  0.88226990  0.75235515  0.24032658  1
  O  O394  1  0.87473422  0.73430754  0.74595187  1
  O  O395  1  0.37111548  0.48804067  0.49545899  1
  O  O396  1  0.38022329  0.49325792  0.99060696  1
  O  O397  1  0.39000942  1.00975511  0.49351830  1
  O  O398  1  0.37392508  0.99222618  0.99276708  1
  O  O399  1  0.87766855  0.49622110  0.48702847  1
  O  O400  1  0.87232087  0.49219171  0.99396638  1
  O  O401  1  0.87211947  0.99505447  0.49701261  1
  O  O402  1  0.88083791  0.99483613  0.99075246  1
  O  O403  1  0.12125948  0.00573788  0.00008288  1
  O  O404  1  0.12338838  0.01115902  0.50619991  1
  O  O405  1  0.12659423  0.49782630  0.01826389  1
  O  O406  1  0.12608456  0.49575736  0.52357966  1
  O  O407  1  0.62312692  0.00703465  0.00596407  1
  O  O408  1  0.60813807  0.00664206  0.49877811  1
  O  O409  1  0.61912518  0.50557587  0.00101714  1
  O  O410  1  0.62581583  0.50485108  0.50027769  1
  O  O411  1  0.37005307  0.37200842  0.12243613  1
  O  O412  1  0.37440949  0.36741081  0.61915253  1
  O  O413  1  0.36927465  0.86554091  0.11925598  1
  O  O414  1  0.36702820  0.86112495  0.63120607  1
  O  O415  1  0.86958249  0.37043276  0.11853843  1
  O  O416  1  0.86750330  0.37191244  0.62119068  1
  O  O417  1  0.86856684  0.86671101  0.11699524  1
  O  O418  1  0.87750323  0.87620791  0.61241895  1
  O  O419  1  0.13130324  0.12188836  0.38761303  1
  O  O420  1  0.11926048  0.13745609  0.88057648  1
  O  O421  1  0.13720583  0.65428604  0.35572537  1
  O  O422  1  0.13244694  0.63192535  0.87625296  1
  O  O423  1  0.63074508  0.11926190  0.39623264  1
  O  O424  1  0.62974652  0.12709990  0.87457108  1
  O  O425  1  0.63224751  0.63087603  0.37039104  1
  O  O426  1  0.61805888  0.63367145  0.88662725  1
