# generated using pymatgen
data_V85Zn86O256
_symmetry_space_group_name_H-M   'P 1'
_cell_length_a   16.94001716
_cell_length_b   16.93231826
_cell_length_c   16.93807531
_cell_angle_alpha   89.96331300
_cell_angle_beta   89.99780837
_cell_angle_gamma   90.03361015
_symmetry_Int_Tables_number   1
_chemical_formula_structural   V85Zn86O256
_chemical_formula_sum   'V85 Zn86 O256'
_cell_volume   4858.41002353
_cell_formula_units_Z   1
loop_
 _symmetry_equiv_pos_site_id
 _symmetry_equiv_pos_as_xyz
  1  'x, y, z'
loop_
 _atom_site_type_symbol
 _atom_site_label
 _atom_site_symmetry_multiplicity
 _atom_site_fract_x
 _atom_site_fract_y
 _atom_site_fract_z
 _atom_site_occupancy
  V  V0  1  0.75231315  0.24848823  -0.00139082  1
  V  V1  1  0.75052269  -0.00044809  0.25135525  1
  V  V2  1  0.37013514  -0.00012504  0.37900368  1
  V  V3  1  0.11140938  0.61859550  0.50500383  1
  V  V4  1  0.24892751  0.87340683  0.10358685  1
  V  V5  1  0.62608702  0.87546670  0.24701502  1
  V  V6  1  0.37806059  0.12335608  0.74607168  1
  V  V7  1  0.62732265  0.76021849  0.87397629  1
  V  V8  1  0.49457157  -0.00593663  -0.00163656  1
  V  V9  1  0.49785175  0.12410852  0.12433125  1
  V  V10  1  0.87348316  -0.00237194  0.38356457  1
  V  V11  1  0.11264805  0.74730108  0.87143125  1
  V  V12  1  0.23373620  0.24901370  0.49966599  1
  V  V13  1  0.49651133  0.87745963  0.37902566  1
  V  V14  1  0.25681030  0.49861436  0.74953645  1
  V  V15  1  0.62706762  0.62763476  0.49943245  1
  V  V16  1  0.24878678  -0.00307834  0.25038094  1
  V  V17  1  0.75680249  0.87821927  0.11600910  1
  V  V18  1  0.37443123  0.24888240  0.12484966  1
  V  V19  1  0.00376640  0.12741188  0.62080081  1
  V  V20  1  0.62401520  0.01751316  0.61712280  1
  V  V21  1  0.62677924  0.36974219  0.25545345  1
  V  V22  1  0.38170421  0.62790591  0.74160566  1
  V  V23  1  -0.00182594  0.61898163  0.12006646  1
  V  V24  1  0.12368727  0.00268895  0.11712412  1
  V  V25  1  0.12503908  0.62150355  -0.00316010  1
  V  V26  1  0.75771632  0.62725477  0.37040400  1
  V  V27  1  0.00276922  0.37630019  0.88542348  1
  V  V28  1  0.37150602  0.12402914  0.25052126  1
  V  V29  1  0.08691920  0.50560996  0.63881453  1
  V  V30  1  0.50399388  0.37119913  0.37834264  1
  V  V31  1  0.23881122  0.24684774  -0.00560932  1
  V  V32  1  -0.00078593  0.74238749  0.25149869  1
  V  V33  1  0.62645920  0.75273805  0.37503884  1
  V  V34  1  0.50171262  0.50142765  0.50247677  1
  V  V35  1  0.75767982  0.88181999  0.61934338  1
  V  V36  1  0.37518377  0.37325219  -0.00018041  1
  V  V37  1  0.87385767  0.12320157  0.76398307  1
  V  V38  1  0.50200476  0.24579310  0.74137406  1
  V  V39  1  0.00144158  0.12496579  0.11636959  1
  V  V40  1  0.62408351  0.12184832  -0.00114710  1
  V  V41  1  0.25358757  0.63574832  0.87440030  1
  V  V42  1  0.37090952  0.75373011  0.10766343  1
  V  V43  1  0.63075481  0.38362031  0.75305223  1
  V  V44  1  0.36845476  0.86798328  0.51425633  1
  V  V45  1  0.87617473  0.12812339  0.25107508  1
  V  V46  1  0.25023556  0.62996388  0.38143461  1
  V  V47  1  0.24834891  0.50253682  0.24985363  1
  V  V48  1  -0.00255618  0.87385405  0.37900024  1
  V  V49  1  0.49492077  0.75019844  0.24676168  1
  V  V50  1  0.24727413  -0.00613441  0.74698717  1
  V  V51  1  0.75143849  0.37411601  0.12570446  1
  V  V52  1  0.00342722  0.36765619  0.37844258  1
  V  V53  1  0.11043651  0.86546328  0.74222486  1
  V  V54  1  0.12612365  0.36893187  0.25289328  1
  V  V55  1  0.62926083  0.24531069  0.87490384  1
  V  V56  1  0.74613492  0.25183733  0.50147751  1
  V  V57  1  0.75469974  0.50431657  0.25085090  1
  V  V58  1  0.23259681  0.12906520  0.37788066  1
  V  V59  1  0.50091961  0.37364266  0.87581322  1
  V  V60  1  0.37566806  0.50161847  0.37545002  1
  V  V61  1  0.88309278  0.50177396  0.37837937  1
  V  V62  1  0.87565089  0.25220481  0.62819574  1
  V  V63  1  0.00503692  0.25018054  0.75855981  1
  V  V64  1  0.75210349  0.00631660  0.76202361  1
  V  V65  1  0.62424055  0.50197467  0.12681401  1
  V  V66  1  0.25016802  0.37603634  0.12497815  1
  V  V67  1  0.00087048  0.00291678  0.49926274  1
  V  V68  1  0.88352099  0.73864709  0.63417083  1
  V  V69  1  0.74950969  0.61768222  0.85708386  1
  V  V70  1  0.87587495  0.74629058  0.12870584  1
  V  V71  1  0.12694200  0.87150242  0.24901084  1
  V  V72  1  0.62542831  0.87799085  0.74576374  1
  V  V73  1  0.75380061  0.38618167  0.62975433  1
  V  V74  1  0.12728638  -0.00045189  0.62006440  1
  V  V75  1  0.74635726  0.13084371  0.37970888  1
  V  V76  1  0.25349690  0.37508952  0.62550886  1
  V  V77  1  0.87982576  0.50396251  0.87260956  1
  V  V78  1  0.12990170  0.37049180  0.75916720  1
  V  V79  1  0.50073334  0.24918404  0.25490375  1
  V  V80  1  0.36974260  -0.00909732  0.87628113  1
  V  V81  1  0.62600082  0.62495783  -0.00082014  1
  V  V82  1  0.23912136  0.12597297  0.87428509  1
  V  V83  1  0.76105623  0.75808009  0.49765791  1
  V  V84  1  0.75981175  0.74901877  -0.00438340  1
  Zn  Zn85  1  0.50122169  0.75635272  0.74364298  1
  Zn  Zn86  1  -0.02021879  0.87621388  0.87862936  1
  Zn  Zn87  1  0.11997785  0.49857088  0.11935669  1
  Zn  Zn88  1  0.37283209  0.37552000  0.50146395  1
  Zn  Zn89  1  0.57969625  0.18084153  0.44499223  1
  Zn  Zn90  1  0.49205324  0.87117885  0.87782538  1
  Zn  Zn91  1  0.88061071  0.38151620  0.50646088  1
  Zn  Zn92  1  0.87888827  0.25266532  0.12651730  1
  Zn  Zn93  1  0.88013661  0.38015808  0.00432082  1
  Zn  Zn94  1  0.37150551  0.62883937  0.24689494  1
  Zn  Zn95  1  0.62294269  -0.00152378  0.12273502  1
  Zn  Zn96  1  0.62858657  0.50632768  0.63138082  1
  Zn  Zn97  1  -0.02166006  -0.00610270  -0.00405420  1
  Zn  Zn98  1  0.49759164  0.01293260  0.50679451  1
  Zn  Zn99  1  0.37678809  0.50137604  0.87776991  1
  Zn  Zn100  1  0.12749028  0.75061984  0.38325348  1
  Zn  Zn101  1  0.49979055  0.49934261  0.00325891  1
  Zn  Zn102  1  0.37757930  0.24391320  0.61951265  1
  Zn  Zn103  1  0.49839788  0.63771847  0.61801761  1
  Zn  Zn104  1  0.49690642  0.62585524  0.12253416  1
  Zn  Zn105  1  0.00934329  0.24410047  0.25150624  1
  Zn  Zn106  1  0.24945593  0.74926495  0.53069783  1
  Zn  Zn107  1  0.18844995  0.18695801  0.18527298  1
  Zn  Zn108  1  0.18730739  0.18590221  0.68678148  1
  Zn  Zn109  1  0.18807682  0.68844295  0.18395813  1
  Zn  Zn110  1  0.17850316  0.67996551  0.68612542  1
  Zn  Zn111  1  0.68728563  0.18743468  0.18769641  1
  Zn  Zn112  1  0.69164064  0.19140626  0.69098672  1
  Zn  Zn113  1  0.68732838  0.68920871  0.18561147  1
  Zn  Zn114  1  0.68792043  0.69467191  0.68073137  1
  Zn  Zn115  1  0.31137661  0.31231817  0.31777055  1
  Zn  Zn116  1  0.31629307  0.30752748  0.81336309  1
  Zn  Zn117  1  0.31235011  0.81211671  0.31184357  1
  Zn  Zn118  1  0.29020877  0.79150231  0.74207253  1
  Zn  Zn119  1  0.81590191  0.31298886  0.31535614  1
  Zn  Zn120  1  0.81619528  0.31642955  0.81471374  1
  Zn  Zn121  1  0.81646710  0.81330922  0.30831121  1
  Zn  Zn122  1  0.81058321  0.80770554  0.80290472  1
  Zn  Zn123  1  0.18174088  0.44243579  0.44247174  1
  Zn  Zn124  1  0.19035505  0.44247593  0.93681029  1
  Zn  Zn125  1  0.18728138  0.93393273  0.44019804  1
  Zn  Zn126  1  0.12664686  0.93514658  0.93810136  1
  Zn  Zn127  1  0.69047130  0.43793085  0.44027291  1
  Zn  Zn128  1  0.68973045  0.43805849  0.93915542  1
  Zn  Zn129  1  0.68556572  0.94112129  0.43899557  1
  Zn  Zn130  1  0.80704850  0.93720569  0.93568891  1
  Zn  Zn131  1  0.30741575  0.05943786  0.05820887  1
  Zn  Zn132  1  0.30998051  0.06577774  0.56131626  1
  Zn  Zn133  1  0.31088936  0.56522368  0.06000312  1
  Zn  Zn134  1  0.31057812  0.56183217  0.56274772  1
  Zn  Zn135  1  0.80945720  0.06885797  0.06681330  1
  Zn  Zn136  1  0.81367139  0.06777307  0.56523757  1
  Zn  Zn137  1  0.81497147  0.56306122  0.05832141  1
  Zn  Zn138  1  0.81365951  0.56521604  0.55768799  1
  Zn  Zn139  1  0.43692505  0.43903902  0.18884100  1
  Zn  Zn140  1  0.43987732  0.43809845  0.68737007  1
  Zn  Zn141  1  0.43341756  0.93398677  0.18443293  1
  Zn  Zn142  1  0.44279299  0.94290390  0.68905619  1
  Zn  Zn143  1  0.93707049  0.43812144  0.19456136  1
  Zn  Zn144  1  0.93857753  0.45032674  0.69778809  1
  Zn  Zn145  1  0.93806283  0.93711640  0.18747101  1
  Zn  Zn146  1  0.93408415  0.93875956  0.68624223  1
  Zn  Zn147  1  0.05957037  0.05749675  0.30639185  1
  Zn  Zn148  1  0.06002322  0.06032286  0.80983754  1
  Zn  Zn149  1  0.06630522  0.56065023  0.31368328  1
  Zn  Zn150  1  0.06190885  0.55756668  0.81015689  1
  Zn  Zn151  1  0.56006739  0.05900301  0.31126023  1
  Zn  Zn152  1  0.56288025  0.06110898  0.81348784  1
  Zn  Zn153  1  0.56481845  0.56313239  0.31371175  1
  Zn  Zn154  1  0.56165096  0.56232899  0.81724991  1
  Zn  Zn155  1  0.41604236  0.18951925  0.43869619  1
  Zn  Zn156  1  0.43385947  0.18486553  0.93219141  1
  Zn  Zn157  1  0.43544664  0.69031181  0.43775035  1
  Zn  Zn158  1  0.44111267  0.68733931  0.93022967  1
  Zn  Zn159  1  0.93604504  0.19103665  0.44009565  1
  Zn  Zn160  1  0.93801413  0.19137747  0.94038451  1
  Zn  Zn161  1  0.93697572  0.68824985  0.43758940  1
  Zn  Zn162  1  0.93618814  0.68456769  0.93568262  1
  Zn  Zn163  1  0.06454035  0.31050767  0.06756083  1
  Zn  Zn164  1  0.05998446  0.32837088  0.57313252  1
  Zn  Zn165  1  0.06598205  0.80390435  0.05900278  1
  Zn  Zn166  1  0.06258651  0.81006298  0.55996675  1
  Zn  Zn167  1  0.56376604  0.31120150  0.06478542  1
  Zn  Zn168  1  0.56574939  0.31917119  0.56739967  1
  Zn  Zn169  1  0.56537176  0.81182044  0.06083742  1
  Zn  Zn170  1  0.56395136  0.81851559  0.56290137  1
  O  O171  1  0.11272143  0.11422300  0.14008303  1
  O  O172  1  0.11020393  0.11708819  0.63189970  1
  O  O173  1  0.11840774  0.62596086  0.11457236  1
  O  O174  1  0.11985550  0.61366595  0.61576068  1
  O  O175  1  0.61444151  0.12545885  0.11942330  1
  O  O176  1  0.63193156  0.11614265  0.62670139  1
  O  O177  1  0.62297226  0.62169956  0.11668712  1
  O  O178  1  0.62906078  0.62407692  0.60984250  1
  O  O179  1  0.38825345  0.38236013  0.37476780  1
  O  O180  1  0.38402924  0.37360687  0.88318122  1
  O  O181  1  0.38014105  0.88163427  0.37981613  1
  O  O182  1  0.37443778  0.89113451  0.86761794  1
  O  O183  1  0.88700225  0.38342389  0.37339593  1
  O  O184  1  0.88557932  0.38129798  0.88050664  1
  O  O185  1  0.88427568  0.88617884  0.36695761  1
  O  O186  1  0.86818103  0.86596129  0.87574860  1
  O  O187  1  0.25373470  0.00498999  0.37169895  1
  O  O188  1  0.25437229  0.01250376  0.86524323  1
  O  O189  1  0.25444774  0.50831005  0.37091154  1
  O  O190  1  0.25377241  0.50620105  0.86227400  1
  O  O191  1  0.75660443  0.00555856  0.37125906  1
  O  O192  1  0.74271327  0.00050602  0.85978218  1
  O  O193  1  0.75446215  0.50835522  0.36870982  1
  O  O194  1  0.75026152  0.51426670  0.87680231  1
  O  O195  1  0.25122206  0.49398358  0.13396538  1
  O  O196  1  0.25695338  0.49144984  0.63836674  1
  O  O197  1  0.24753342  0.99209755  0.13330239  1
  O  O198  1  0.23770576  1.01110575  0.63299678  1
  O  O199  1  0.74561768  0.49547626  0.13285242  1
  O  O200  1  0.75047149  0.48947942  0.61975446  1
  O  O201  1  0.74534971  0.99228381  0.13395516  1
  O  O202  1  0.74288766  0.99780195  0.62761755  1
  O  O203  1  0.00973320  0.37130856  0.25569584  1
  O  O204  1  0.01028638  0.36844929  0.76216764  1
  O  O205  1  0.00746854  0.86709441  0.25712086  1
  O  O206  1  0.00991150  0.88199316  0.75388677  1
  O  O207  1  0.50719138  0.37125145  0.25793258  1
  O  O208  1  0.50746380  0.36821746  0.75809018  1
  O  O209  1  0.50551855  0.86738035  0.25406856  1
  O  O210  1  0.51591862  0.88148074  0.75505569  1
  O  O211  1  0.49306068  0.12940665  0.24636248  1
  O  O212  1  0.49302477  0.13450178  0.75608427  1
  O  O213  1  0.50194230  0.63993726  0.25001537  1
  O  O214  1  0.48955901  0.61956819  0.74873917  1
  O  O215  1  0.99022255  0.12499590  0.24541589  1
  O  O216  1  0.99394455  0.13252315  0.74549611  1
  O  O217  1  1.01184756  0.63829853  0.24410750  1
  O  O218  1  1.01192936  0.55008441  0.70786352  1
  O  O219  1  0.37118057  0.25906176  0.00420983  1
  O  O220  1  0.35718586  0.25892966  0.50399055  1
  O  O221  1  0.38204922  0.75006356  0.00941457  1
  O  O222  1  0.37419079  0.76448910  0.50036042  1
  O  O223  1  0.86523932  0.25555276  0.00480137  1
  O  O224  1  0.86838008  0.25361587  0.51484075  1
  O  O225  1  0.86424715  0.74563409  0.00652258  1
  O  O226  1  0.86334024  0.75201408  0.49872630  1
  O  O227  1  0.13514302  0.25969935  0.50932851  1
  O  O228  1  0.14010532  0.25127779  1.00407917  1
  O  O229  1  0.13070480  0.73612337  0.50262189  1
  O  O230  1  0.12773176  0.73469328  0.98428296  1
  O  O231  1  0.63966471  0.25639846  0.50455466  1
  O  O232  1  0.62774790  0.24322740  0.99381958  1
  O  O233  1  0.63393634  0.74667694  0.49154610  1
  O  O234  1  0.63394761  0.74460687  0.99259103  1
  O  O235  1  0.49360559  0.24527608  0.13379342  1
  O  O236  1  0.49987914  0.25605619  0.63777775  1
  O  O237  1  0.48968083  0.75278521  0.13009326  1
  O  O238  1  0.50993715  0.74951910  0.63078555  1
  O  O239  1  0.99913539  0.24107982  0.13139171  1
  O  O240  1  0.99423129  0.24759491  0.63474318  1
  O  O241  1  0.99399023  0.74367022  0.13125895  1
  O  O242  1  0.98118082  0.75794534  0.61898289  1
  O  O243  1  -0.00617131  0.26253179  0.36756687  1
  O  O244  1  -0.00275911  0.25813954  0.86545126  1
  O  O245  1  0.00185070  0.75667249  0.36816676  1
  O  O246  1  0.00909034  0.74779571  0.87271830  1
  O  O247  1  0.50029235  0.25706032  0.37286923  1
  O  O248  1  0.50715520  0.25907045  0.86914255  1
  O  O249  1  0.50288230  0.76149107  0.36811740  1
  O  O250  1  0.51281889  0.75369197  0.86893746  1
  O  O251  1  0.24780597  0.13917452  0.49293956  1
  O  O252  1  0.25686387  0.13293706  0.98392609  1
  O  O253  1  0.24628088  0.62844766  0.49502566  1
  O  O254  1  0.24401976  0.62160770  0.98444522  1
  O  O255  1  0.75493417  0.13610568  0.49148792  1
  O  O256  1  0.73825700  0.14035351  1.00955431  1
  O  O257  1  0.74376369  0.63406211  0.48876383  1
  O  O258  1  0.73995838  0.63326245  0.99727701  1
  O  O259  1  0.25746006  0.36857357  0.00230930  1
  O  O260  1  0.24747375  0.37084586  0.50905771  1
  O  O261  1  0.23383156  0.88177428  0.00749219  1
  O  O262  1  0.26423582  0.86978468  0.49769537  1
  O  O263  1  0.74573916  0.36530175  0.01113541  1
  O  O264  1  0.75509431  0.36927517  0.50923500  1
  O  O265  1  0.74446498  0.86459162  0.01154646  1
  O  O266  1  0.74549217  0.86919367  0.50588329  1
  O  O267  1  0.13725637  0.49201542  0.24824662  1
  O  O268  1  0.14076046  0.49028601  0.74497055  1
  O  O269  1  0.12882501  0.98655425  0.24392993  1
  O  O270  1  0.12845504  0.99251572  0.73849446  1
  O  O271  1  0.63341852  0.49112297  0.24737449  1
  O  O272  1  0.62136823  0.48757101  0.75153942  1
  O  O273  1  0.62761189  0.98732254  0.24839725  1
  O  O274  1  0.63564492  0.99954553  0.74236054  1
  O  O275  1  0.36933461  0.00107945  0.26042038  1
  O  O276  1  0.36690426  0.00521260  0.75345567  1
  O  O277  1  0.36467767  0.50302017  0.25566576  1
  O  O278  1  0.37377263  0.50664812  0.75469949  1
  O  O279  1  0.87071147  0.00922230  0.25880607  1
  O  O280  1  0.86128122  0.00875080  0.74551211  1
  O  O281  1  0.86017765  0.49775625  0.25936534  1
  O  O282  1  0.86204939  0.48910230  0.77362131  1
  O  O283  1  0.11151375  0.38355918  0.36903253  1
  O  O284  1  0.12028401  0.38210667  0.86642211  1
  O  O285  1  0.11849443  0.87229890  0.36710037  1
  O  O286  1  0.13281388  0.85803687  0.85451243  1
  O  O287  1  0.61451885  0.38143474  0.36860653  1
  O  O288  1  0.62047195  0.36686611  0.87208358  1
  O  O289  1  0.61689144  0.87301611  0.36864474  1
  O  O290  1  0.63015896  0.86337294  0.86661036  1
  O  O291  1  0.37779855  0.12872683  0.13061716  1
  O  O292  1  0.37054156  0.12522851  0.63976459  1
  O  O293  1  0.37579386  0.63872449  0.12525568  1
  O  O294  1  0.37931118  0.61860856  0.63843486  1
  O  O295  1  0.88329876  0.12673514  0.13609948  1
  O  O296  1  0.88451632  0.13409837  0.63387655  1
  O  O297  1  0.88149698  0.63626245  0.12078943  1
  O  O298  1  0.87227040  0.63940666  0.61632049  1
  O  O299  1  0.25698804  0.25468724  0.11725882  1
  O  O300  1  0.24978650  0.25577373  0.61688778  1
  O  O301  1  0.26262899  0.75770565  0.12454993  1
  O  O302  1  0.25457556  0.74832893  0.64315449  1
  O  O303  1  0.75015276  0.25994518  0.12070664  1
  O  O304  1  0.75846631  0.25766357  0.62127876  1
  O  O305  1  0.75814561  0.75430078  0.11929419  1
  O  O306  1  0.75579354  0.76092643  0.61370311  1
  O  O307  1  0.24781462  0.24402623  0.38805037  1
  O  O308  1  0.25538703  0.23704224  0.88099350  1
  O  O309  1  0.24853314  0.73548471  0.37062380  1
  O  O310  1  0.23837149  0.73449431  0.85258242  1
  O  O311  1  0.75660304  0.24319413  0.38661187  1
  O  O312  1  0.74059556  0.25698657  0.88509675  1
  O  O313  1  0.74774627  0.74596229  0.37672932  1
  O  O314  1  0.74591859  0.73692033  0.88029321  1
  O  O315  1  -0.00475556  0.12337300  0.01374683  1
  O  O316  1  -0.00553513  0.11941495  0.50946309  1
  O  O317  1  0.00777864  0.62919231  0.00967576  1
  O  O318  1  0.01293608  0.62351542  0.49353617  1
  O  O319  1  0.50366563  0.12204284  0.00528791  1
  O  O320  1  0.49400548  0.12452652  0.48573203  1
  O  O321  1  0.51414474  0.62350696  -0.00243313  1
  O  O322  1  0.50829690  0.61971739  0.49671748  1
  O  O323  1  0.50102423  0.38230870  0.49371806  1
  O  O324  1  0.49348677  0.37228757  0.99442364  1
  O  O325  1  0.49074316  0.88151866  0.49156982  1
  O  O326  1  0.50937951  0.89094678  0.99774967  1
  O  O327  1  0.99761033  0.36434127  0.48076411  1
  O  O328  1  1.00340337  0.36916260  0.98941683  1
  O  O329  1  1.00528715  0.88159047  0.48444246  1
  O  O330  1  1.02639651  0.88281235  0.99132552  1
  O  O331  1  0.49698183  0.49517688  0.38338041  1
  O  O332  1  0.50092569  0.48487741  0.88073517  1
  O  O333  1  0.49030820  0.98900450  0.37259961  1
  O  O334  1  0.49075616  1.00099649  0.88266131  1
  O  O335  1  0.99092829  0.48930717  0.36388061  1
  O  O336  1  0.98788743  0.49432482  0.87578594  1
  O  O337  1  0.99268287  0.99420151  0.37844266  1
  O  O338  1  1.02614143  0.98992004  0.88811521  1
  O  O339  1  0.00801325  0.00495234  0.12426601  1
  O  O340  1  0.00238202  0.00827874  0.61906335  1
  O  O341  1  -0.00150557  0.51545062  0.13487230  1
  O  O342  1  0.01004914  0.44575403  0.60467082  1
  O  O343  1  0.49813553  0.00551945  0.11797448  1
  O  O344  1  0.51948518  0.00143345  0.62557067  1
  O  O345  1  0.50872750  0.50352915  0.12550112  1
  O  O346  1  0.50487348  0.50097700  0.61097328  1
  O  O347  1  0.24626453  0.38214505  0.24840567  1
  O  O348  1  0.24836660  0.37676470  0.74884951  1
  O  O349  1  0.24195971  0.87902678  0.24729608  1
  O  O350  1  0.23720484  0.89101114  0.74762708  1
  O  O351  1  0.74340893  0.38021146  0.24730911  1
  O  O352  1  0.74093130  0.36650341  0.74240822  1
  O  O353  1  0.74257829  0.87871525  0.24349635  1
  O  O354  1  0.74232386  0.88843936  0.74151302  1
  O  O355  1  0.25398135  0.11865367  0.25567286  1
  O  O356  1  0.25583691  0.12062474  0.75762425  1
  O  O357  1  0.24780493  0.61712738  0.25707537  1
  O  O358  1  0.26193221  0.61390971  0.75321960  1
  O  O359  1  0.75590269  0.11889548  0.25475141  1
  O  O360  1  0.75820017  0.11497981  0.74773217  1
  O  O361  1  0.74087602  0.61720499  0.25951879  1
  O  O362  1  0.74145756  0.62473865  0.75910387  1
  O  O363  1  0.36053681  0.11523410  0.36766509  1
  O  O364  1  0.36836077  0.11804788  0.86259359  1
  O  O365  1  0.36850801  0.61950556  0.37265802  1
  O  O366  1  0.36896653  0.62111625  0.86843408  1
  O  O367  1  0.86637606  0.11900976  0.36992203  1
  O  O368  1  0.87984184  0.12853070  0.86336180  1
  O  O369  1  0.86533082  0.61965753  0.37557814  1
  O  O370  1  0.86238320  0.61549873  0.87629755  1
  O  O371  1  0.13232571  0.37968111  0.13323313  1
  O  O372  1  0.14004133  0.38312909  0.64104053  1
  O  O373  1  0.13226706  0.87901859  0.13252468  1
  O  O374  1  0.11854166  0.88208460  0.63464582  1
  O  O375  1  0.63414809  0.38044329  0.13324151  1
  O  O376  1  0.63515653  0.37927186  0.63646121  1
  O  O377  1  0.63437077  0.87403224  0.13253745  1
  O  O378  1  0.63687049  0.88489909  0.63102185  1
  O  O379  1  0.13131177  0.26493636  0.24902498  1
  O  O380  1  0.11684844  0.25857835  0.74591204  1
  O  O381  1  0.11987084  0.75978134  0.24997853  1
  O  O382  1  0.11668772  0.75912074  0.74830429  1
  O  O383  1  0.62015554  0.26317105  0.24744788  1
  O  O384  1  0.62033020  0.25593126  0.75840202  1
  O  O385  1  0.61954362  0.76011698  0.25418468  1
  O  O386  1  0.63060613  0.76213201  0.75525203  1
  O  O387  1  0.37925746  0.24471244  0.24685429  1
  O  O388  1  0.38595256  0.24182532  0.74883221  1
  O  O389  1  0.38339115  0.75062205  0.24263075  1
  O  O390  1  0.38460462  0.73153772  0.75944446  1
  O  O391  1  0.87205285  0.23663567  0.24893932  1
  O  O392  1  0.88129990  0.24498788  0.74393914  1
  O  O393  1  0.88616702  0.74906526  0.24200490  1
  O  O394  1  0.87012703  0.74209608  0.73397619  1
  O  O395  1  0.38378133  0.49789817  0.49410064  1
  O  O396  1  0.37645944  0.48588002  1.00085197  1
  O  O397  1  0.37250531  0.99361466  0.48993786  1
  O  O398  1  0.38355258  1.00629015  0.99027523  1
  O  O399  1  0.86976591  0.49782265  0.48328320  1
  O  O400  1  0.86344241  0.49406147  0.98240843  1
  O  O401  1  0.87868705  1.00436346  0.48867816  1
  O  O402  1  0.86681563  0.99558843  1.00884055  1
  O  O403  1  0.13990079  0.01465665  0.01930648  1
  O  O404  1  0.11995752  -0.00504980  0.51248334  1
  O  O405  1  0.12830260  0.51399292  0.00124434  1
  O  O406  1  0.12668384  0.51265080  0.51540176  1
  O  O407  1  0.61560198  0.01766454  0.00137018  1
  O  O408  1  0.62379804  0.00306964  0.51268687  1
  O  O409  1  0.62614068  0.50790553  0.00826068  1
  O  O410  1  0.61945571  0.51082567  0.49805919  1
  O  O411  1  0.37048751  0.36919094  0.11962380  1
  O  O412  1  0.36406009  0.37201248  0.62741030  1
  O  O413  1  0.36473195  0.86376579  0.12323722  1
  O  O414  1  0.37913476  0.88465044  0.61211522  1
  O  O415  1  0.86346817  0.37650762  0.12665233  1
  O  O416  1  0.86913565  0.36897195  0.63040448  1
  O  O417  1  0.86600519  0.86251748  0.13332772  1
  O  O418  1  0.86120135  0.87101034  0.62828736  1
  O  O419  1  0.13388339  0.11953435  0.36813903  1
  O  O420  1  0.14088795  0.12631813  0.86633072  1
  O  O421  1  0.13265991  0.62221472  0.38811420  1
  O  O422  1  0.12786794  0.62736683  0.87461346  1
  O  O423  1  0.64065494  0.12215105  0.36652522  1
  O  O424  1  0.62007852  0.13780906  0.88262157  1
  O  O425  1  0.63335240  0.63206428  0.38211641  1
  O  O426  1  0.63451094  0.63079333  0.87957090  1
