# generated using pymatgen
data_V85Zn86O256
_symmetry_space_group_name_H-M   'P 1'
_cell_length_a   16.94146794
_cell_length_b   16.92356161
_cell_length_c   16.93452421
_cell_angle_alpha   90.06345767
_cell_angle_beta   90.03972461
_cell_angle_gamma   90.05407850
_symmetry_Int_Tables_number   1
_chemical_formula_structural   V85Zn86O256
_chemical_formula_sum   'V85 Zn86 O256'
_cell_volume   4855.29072653
_cell_formula_units_Z   1
loop_
 _symmetry_equiv_pos_site_id
 _symmetry_equiv_pos_as_xyz
  1  'x, y, z'
loop_
 _atom_site_type_symbol
 _atom_site_label
 _atom_site_symmetry_multiplicity
 _atom_site_fract_x
 _atom_site_fract_y
 _atom_site_fract_z
 _atom_site_occupancy
  V  V0  1  0.62610742  0.24756970  0.87318351  1
  V  V1  1  -0.00367260  0.75006173  0.74738396  1
  V  V2  1  0.87158026  0.62365488  0.76881312  1
  V  V3  1  0.75469858  0.50212148  0.76051307  1
  V  V4  1  0.75460848  0.74510664  -0.01116777  1
  V  V5  1  0.24820913  0.25041198  0.00052591  1
  V  V6  1  0.37072509  0.87811902  0.00229748  1
  V  V7  1  0.25084956  0.12538748  0.37244207  1
  V  V8  1  0.37424055  0.37485163  -0.00097396  1
  V  V9  1  0.00198375  -0.00126784  0.00515251  1
  V  V10  1  0.12386762  0.50396499  0.62687300  1
  V  V11  1  0.75181763  0.12633965  0.87437685  1
  V  V12  1  0.49982174  0.24981380  0.74745706  1
  V  V13  1  0.76884329  0.37480422  0.62309634  1
  V  V14  1  0.12651408  0.86912659  0.75436580  1
  V  V15  1  0.13241389  0.75606977  0.37338881  1
  V  V16  1  0.37491105  0.38818450  0.49561734  1
  V  V17  1  0.87966536  0.62359161  0.24935530  1
  V  V18  1  0.87587728  0.87439048  -0.00023174  1
  V  V19  1  0.50024344  0.37492541  0.87181827  1
  V  V20  1  0.75407917  -0.00052552  0.25015615  1
  V  V21  1  -0.00363600  -0.00564844  0.50242254  1
  V  V22  1  0.12967300  0.63125766  0.50101477  1
  V  V23  1  0.50048499  0.62649989  0.12733488  1
  V  V24  1  0.50203827  0.13134422  0.13374205  1
  V  V25  1  0.75324453  -0.00829265  0.74531728  1
  V  V26  1  0.37199601  0.50561980  0.87426737  1
  V  V27  1  0.74949608  0.86951105  0.12399227  1
  V  V28  1  0.50136858  -0.00763480  0.49514708  1
  V  V29  1  0.87716257  0.13530962  0.25035435  1
  V  V30  1  0.63277201  0.62257543  -0.00586570  1
  V  V31  1  0.87436032  0.49082755  0.37937079  1
  V  V32  1  0.37243675  0.86847771  0.49688707  1
  V  V33  1  -0.00299854  0.49273136  0.50015299  1
  V  V34  1  0.37729426  -0.00445537  0.37116333  1
  V  V35  1  0.24791571  0.86473840  0.62043336  1
  V  V36  1  0.37055855  0.74940751  0.12675135  1
  V  V37  1  0.63012298  0.12908581  -0.00162939  1
  V  V38  1  0.62629949  -0.00073646  0.12346252  1
  V  V39  1  0.11914714  0.25249696  0.86868926  1
  V  V40  1  0.82080710  0.81295231  0.55691123  1
  V  V41  1  0.23714292  -0.00156893  0.24656434  1
  V  V42  1  0.49892072  0.12380038  0.62355938  1
  V  V43  1  0.61663485  0.87594635  0.25008712  1
  V  V44  1  0.62336809  0.75483890  0.37512896  1
  V  V45  1  0.24778512  0.50757313  0.75427522  1
  V  V46  1  0.62996333  -0.00975700  0.62329347  1
  V  V47  1  0.50010084  0.49876852  0.00047928  1
  V  V48  1  0.00308244  0.75853412  0.25046061  1
  V  V49  1  0.12497418  0.12568148  0.50048160  1
  V  V50  1  0.74888994  0.49392361  0.25023956  1
  V  V51  1  0.23952122  0.74573472  -0.01250196  1
  V  V52  1  0.24845343  0.50494254  0.26404970  1
  V  V53  1  0.37338260  0.00407417  0.87238484  1
  V  V54  1  0.62680874  0.37623879  0.74183599  1
  V  V55  1  0.50575097  0.63254278  0.63042809  1
  V  V56  1  0.24991548  0.37779259  0.62688007  1
  V  V57  1  0.75223724  0.36943817  0.11107151  1
  V  V58  1  0.87339542  0.25125288  0.10557693  1
  V  V59  1  -0.01735280  0.49327888  0.00491286  1
  V  V60  1  0.00375139  0.12828721  0.12905699  1
  V  V61  1  0.37838541  0.63611999  0.75335099  1
  V  V62  1  0.74993891  0.62781961  0.37813863  1
  V  V63  1  -0.01169326  0.62654996  0.62378770  1
  V  V64  1  0.37611147  0.25224182  0.13337329  1
  V  V65  1  0.24337174  0.38680823  0.12498265  1
  V  V66  1  0.12539484  -0.00122523  0.62629317  1
  V  V67  1  0.87814122  0.13651745  0.74521513  1
  V  V68  1  0.12481080  0.12139089  0.00162382  1
  V  V69  1  0.37431174  0.25222895  0.62349004  1
  V  V70  1  0.62524549  0.49684277  0.12661137  1
  V  V71  1  0.11559474  0.37727708  0.24719262  1
  V  V72  1  0.00378904  0.86878398  0.87767713  1
  V  V73  1  0.49695958  0.37663624  0.36508024  1
  V  V74  1  0.11733686  0.25053131  0.36933863  1
  V  V75  1  0.62697404  0.12966803  0.49982203  1
  V  V76  1  0.23440430  0.87749846  0.12868899  1
  V  V77  1  0.62715299  0.62780764  0.50046056  1
  V  V78  1  0.25038851  0.25179813  0.49864173  1
  V  V79  1  0.76294103  0.25551711  0.50180426  1
  V  V80  1  0.12781629  0.60942474  -0.00499374  1
  V  V81  1  -0.00015220  0.13734729  0.62964906  1
  V  V82  1  -0.01323204  0.37880754  0.87230895  1
  V  V83  1  0.87513636  -0.00478501  0.37758259  1
  V  V84  1  0.49980077  0.00193658  0.00016905  1
  Zn  Zn85  1  0.62258173  0.86227064  0.74742809  1
  Zn  Zn86  1  0.74983780  0.12822726  0.37545999  1
  Zn  Zn87  1  0.24932988  0.00156694  0.75011474  1
  Zn  Zn88  1  0.37817107  0.61867293  0.25761341  1
  Zn  Zn89  1  0.37912272  0.75365253  0.62694449  1
  Zn  Zn90  1  0.87780313  0.00019445  0.87173539  1
  Zn  Zn91  1  0.49959552  0.86638733  0.86370856  1
  Zn  Zn92  1  0.62728531  0.50185012  0.62253132  1
  Zn  Zn93  1  0.37104361  0.12588431  0.74948297  1
  Zn  Zn94  1  0.62015146  0.36164970  0.24569102  1
  Zn  Zn95  1  0.01083211  0.61782414  0.12952910  1
  Zn  Zn96  1  0.49851517  0.50470177  0.49704327  1
  Zn  Zn97  1  0.87840858  0.74691160  0.12586770  1
  Zn  Zn98  1  0.49862447  0.75300588  0.25023387  1
  Zn  Zn99  1  0.12042084  0.37473292  0.75047137  1
  Zn  Zn100  1  0.62064011  0.74653589  0.86555534  1
  Zn  Zn101  1  -0.00076454  0.87265409  0.37726737  1
  Zn  Zn102  1  0.61952157  0.24947253  0.37116641  1
  Zn  Zn103  1  0.24861136  0.12651304  0.87294474  1
  Zn  Zn104  1  0.26113606  0.62941808  0.38970638  1
  Zn  Zn105  1  0.37691672  0.12676444  0.25235416  1
  Zn  Zn106  1  -0.00671900  0.36730310  0.37491648  1
  Zn  Zn107  1  0.18832459  0.19008248  0.18790628  1
  Zn  Zn108  1  0.18845164  0.18633957  0.68876105  1
  Zn  Zn109  1  0.18374445  0.68617736  0.18408278  1
  Zn  Zn110  1  0.18519355  0.68681494  0.69133667  1
  Zn  Zn111  1  0.69100762  0.18893136  0.18799785  1
  Zn  Zn112  1  0.69125859  0.18668244  0.68351652  1
  Zn  Zn113  1  0.68811963  0.68630825  0.18775691  1
  Zn  Zn114  1  0.69853134  0.69380074  0.68360137  1
  Zn  Zn115  1  0.30892897  0.31812043  0.31347030  1
  Zn  Zn116  1  0.31030957  0.31477634  0.81159998  1
  Zn  Zn117  1  0.31182621  0.81354967  0.30975347  1
  Zn  Zn118  1  0.31237939  0.81933393  0.81374519  1
  Zn  Zn119  1  0.80523785  0.31129322  0.31262651  1
  Zn  Zn120  1  0.81006782  0.31156124  0.81290368  1
  Zn  Zn121  1  0.81276257  0.81095140  0.31540313  1
  Zn  Zn122  1  0.81553425  0.81153878  0.80939980  1
  Zn  Zn123  1  0.18184452  0.43754956  0.43872753  1
  Zn  Zn124  1  0.18651259  0.43552487  0.93377407  1
  Zn  Zn125  1  0.18819639  0.93720381  0.43664073  1
  Zn  Zn126  1  0.18699183  0.93752607  0.93930893  1
  Zn  Zn127  1  0.68309591  0.43605898  0.43719197  1
  Zn  Zn128  1  0.68691937  0.43589248  0.93520582  1
  Zn  Zn129  1  0.69204625  0.93494813  0.43809370  1
  Zn  Zn130  1  0.68764394  0.93631055  0.93206862  1
  Zn  Zn131  1  0.31079988  0.06415250  0.06608297  1
  Zn  Zn132  1  0.31226728  0.05933930  0.56053855  1
  Zn  Zn133  1  0.31031668  0.56625175  0.06214911  1
  Zn  Zn134  1  0.31323064  0.56804501  0.57006536  1
  Zn  Zn135  1  0.81478328  0.06199151  0.06148707  1
  Zn  Zn136  1  0.81329116  0.06378748  0.56328933  1
  Zn  Zn137  1  0.81295356  0.56132714  0.06540928  1
  Zn  Zn138  1  0.80977723  0.56181657  0.56365141  1
  Zn  Zn139  1  0.43159085  0.43988401  0.18811236  1
  Zn  Zn140  1  0.43921959  0.44502431  0.68391485  1
  Zn  Zn141  1  0.43312875  0.94112761  0.18487356  1
  Zn  Zn142  1  0.43763130  0.93672394  0.68593328  1
  Zn  Zn143  1  0.93503017  0.43485009  0.18509766  1
  Zn  Zn144  1  0.93899375  0.44117446  0.69304716  1
  Zn  Zn145  1  0.93823592  0.93897221  0.18629597  1
  Zn  Zn146  1  0.93563774  0.93907962  0.68594441  1
  Zn  Zn147  1  0.05996891  0.06324226  0.31333317  1
  Zn  Zn148  1  0.06133663  0.05968992  0.81442758  1
  Zn  Zn149  1  0.06582267  0.56312393  0.31560458  1
  Zn  Zn150  1  0.06044018  0.56284099  0.81966376  1
  Zn  Zn151  1  0.56434025  0.06268897  0.31373052  1
  Zn  Zn152  1  0.56121333  0.05255823  0.80860940  1
  Zn  Zn153  1  0.56134018  0.55763177  0.31449321  1
  Zn  Zn154  1  0.56344429  0.56239809  0.81006250  1
  Zn  Zn155  1  0.43735815  0.19033668  0.43704109  1
  Zn  Zn156  1  0.43820388  0.18704394  0.94009497  1
  Zn  Zn157  1  0.44333473  0.68744379  0.43483997  1
  Zn  Zn158  1  0.43447511  0.68635204  0.94168739  1
  Zn  Zn159  1  0.93776780  0.18077299  0.43926230  1
  Zn  Zn160  1  0.94045987  0.18679639  0.93213971  1
  Zn  Zn161  1  0.94026663  0.68394992  0.43521598  1
  Zn  Zn162  1  0.94657179  0.68646771  0.94115102  1
  Zn  Zn163  1  0.05985680  0.31253712  0.06051914  1
  Zn  Zn164  1  0.06502880  0.31520434  0.56190430  1
  Zn  Zn165  1  0.06215798  0.80578109  0.06570492  1
  Zn  Zn166  1  0.05744222  0.81032136  0.56239301  1
  Zn  Zn167  1  0.56397652  0.31118132  0.06228654  1
  Zn  Zn168  1  0.56141438  0.31360080  0.55690011  1
  Zn  Zn169  1  0.54907370  0.79769440  0.03012575  1
  Zn  Zn170  1  0.56511092  0.80884861  0.56043749  1
  O  O171  1  0.11370922  0.13563826  0.11654903  1
  O  O172  1  0.12007369  0.11680570  0.62264474  1
  O  O173  1  0.12384671  0.63291119  0.10254126  1
  O  O174  1  0.11539742  0.62152006  0.62131991  1
  O  O175  1  0.62113721  0.12088957  0.11638858  1
  O  O176  1  0.61831684  0.11978626  0.61516498  1
  O  O177  1  0.61912107  0.61725434  0.11909418  1
  O  O178  1  0.62300893  0.62638412  0.61605542  1
  O  O179  1  0.38270184  0.37224779  0.38404665  1
  O  O180  1  0.38017622  0.38339261  0.87956327  1
  O  O181  1  0.36910111  0.88711208  0.38084948  1
  O  O182  1  0.37781306  0.88259680  0.88815447  1
  O  O183  1  0.87545651  0.38659548  0.36878113  1
  O  O184  1  0.88778767  0.36839463  0.87431841  1
  O  O185  1  0.87787071  0.89116057  0.36644352  1
  O  O186  1  0.88458497  0.87702507  0.88165335  1
  O  O187  1  0.25630343  0.00647253  0.36891804  1
  O  O188  1  0.26273505  0.00083283  0.87812309  1
  O  O189  1  0.24638006  0.50347691  0.36667061  1
  O  O190  1  0.26099251  0.49553972  0.86744949  1
  O  O191  1  0.75694301  0.00424859  0.36642193  1
  O  O192  1  0.75131724  0.01163937  0.86473546  1
  O  O193  1  0.75528847  0.50292478  0.36804454  1
  O  O194  1  0.74856219  0.49336065  0.85983936  1
  O  O195  1  0.25046124  0.48875057  0.12474030  1
  O  O196  1  0.24390367  0.49690644  0.63361589  1
  O  O197  1  0.25458164  0.99023660  0.13336015  1
  O  O198  1  0.23643040  0.99436494  0.62433533  1
  O  O199  1  0.74665958  0.49071852  0.13175347  1
  O  O200  1  0.74851107  0.48958241  0.63234500  1
  O  O201  1  0.74715057  0.99213557  0.13010992  1
  O  O202  1  0.74129617  1.00763472  0.63268311  1
  O  O203  1  0.01197915  0.38007377  0.25242377  1
  O  O204  1  0.00275701  0.38165768  0.76670623  1
  O  O205  1  -0.00297941  0.86217456  0.24969792  1
  O  O206  1  0.00419694  0.86839186  0.75693854  1
  O  O207  1  0.49597831  0.37803548  0.26104020  1
  O  O208  1  0.50727341  0.37258742  0.75218838  1
  O  O209  1  0.51390515  0.87859374  0.24149757  1
  O  O210  1  0.50932729  0.88853043  0.75309898  1
  O  O211  1  0.49934223  0.12115579  0.23711976  1
  O  O212  1  0.49989370  0.12790452  0.73619196  1
  O  O213  1  0.50086606  0.62410653  0.23690239  1
  O  O214  1  0.49072758  0.62090069  0.74360500  1
  O  O215  1  0.99216445  0.11892371  0.23721637  1
  O  O216  1  0.98753891  0.11984199  0.74527210  1
  O  O217  1  0.99389827  0.62875827  0.25023026  1
  O  O218  1  0.99214139  0.63014714  0.74731528  1
  O  O219  1  0.36642050  0.25551288  0.00519708  1
  O  O220  1  0.36725510  0.25825649  0.50652098  1
  O  O221  1  0.36272348  0.75625904  0.00985196  1
  O  O222  1  0.38324576  0.76643897  0.49975761  1
  O  O223  1  0.87178704  0.24290832  0.00761576  1
  O  O224  1  0.86182433  0.24585098  0.49767817  1
  O  O225  1  0.87181725  0.75373580  0.00372600  1
  O  O226  1  0.87978278  0.75972624  0.49113033  1
  O  O227  1  0.13298694  0.24584767  0.49341608  1
  O  O228  1  0.13123016  0.24223457  0.99350483  1
  O  O229  1  0.11625464  0.74252891  0.48720810  1
  O  O230  1  0.13731326  0.75055208  0.99742215  1
  O  O231  1  0.63095897  0.24154007  0.49881775  1
  O  O232  1  0.61902216  0.23590996  0.99159300  1
  O  O233  1  0.62509709  0.73948547  0.48919933  1
  O  O234  1  0.64249215  0.73640514  1.00882472  1
  O  O235  1  0.48903586  0.24286778  0.11752019  1
  O  O236  1  0.49488367  0.24333470  0.62733679  1
  O  O237  1  0.49099760  0.74123781  0.12007596  1
  O  O238  1  0.49862118  0.73783128  0.62215534  1
  O  O239  1  0.98534141  0.24155273  0.11901835  1
  O  O240  1  1.00943602  0.23666820  0.62269471  1
  O  O241  1  0.99779212  0.74285441  0.13517646  1
  O  O242  1  1.00509041  0.74114732  0.63905655  1
  O  O243  1  0.01267978  0.24867255  0.38242628  1
  O  O244  1  0.00901039  0.26476982  0.88449784  1
  O  O245  1  0.00909733  0.75054543  0.36671804  1
  O  O246  1  -0.00121098  0.76159302  0.86722745  1
  O  O247  1  0.50028678  0.26878647  0.38376838  1
  O  O248  1  0.50440617  0.25432921  0.86723137  1
  O  O249  1  0.51823046  0.74828286  0.36754428  1
  O  O250  1  0.51199470  0.76220222  0.91675478  1
  O  O251  1  0.24415131  0.12978136  0.49376852  1
  O  O252  1  0.24159777  0.13317661  1.00086536  1
  O  O253  1  0.23460978  0.62282917  0.50663439  1
  O  O254  1  0.24167601  0.63622691  1.00031393  1
  O  O255  1  0.74325794  0.13685730  0.50225985  1
  O  O256  1  0.74061630  0.11670456  0.98932144  1
  O  O257  1  0.74569939  0.61948964  0.48479098  1
  O  O258  1  0.74463675  0.63175632  1.00625471  1
  O  O259  1  0.25276387  0.36900200  0.00661237  1
  O  O260  1  0.25493061  0.37197660  0.50526544  1
  O  O261  1  0.25419206  0.86855512  0.00686422  1
  O  O262  1  0.25931162  0.88118793  0.50875124  1
  O  O263  1  0.74594958  0.37598148  0.01163475  1
  O  O264  1  0.74613391  0.36445091  0.50791056  1
  O  O265  1  0.75529888  0.86822528  0.00644289  1
  O  O266  1  0.76068470  0.87791836  0.50480128  1
  O  O267  1  0.13547342  0.49105851  0.25332722  1
  O  O268  1  0.13259892  0.50378163  0.74689078  1
  O  O269  1  0.13760938  1.00283449  0.25505871  1
  O  O270  1  0.12265478  0.98882658  0.74218834  1
  O  O271  1  0.63349105  0.49679503  0.24266834  1
  O  O272  1  0.63345974  0.49210219  0.74761385  1
  O  O273  1  0.63462586  0.99569997  0.24569569  1
  O  O274  1  0.63746592  1.00520753  0.73764858  1
  O  O275  1  0.36850340  0.00292126  0.25822312  1
  O  O276  1  0.37268187  0.00260511  0.76024571  1
  O  O277  1  0.35326878  0.49967637  0.24565037  1
  O  O278  1  0.36899428  0.50802758  0.75740331  1
  O  O279  1  0.86956272  0.00777671  0.25319453  1
  O  O280  1  0.86760299  0.00808878  0.75068835  1
  O  O281  1  0.86901506  0.50438728  0.25606886  1
  O  O282  1  0.87028323  0.51449601  0.75006468  1
  O  O283  1  0.12264085  0.36672957  0.36758184  1
  O  O284  1  0.11796662  0.36680517  0.87362996  1
  O  O285  1  0.12221876  0.86043166  0.37987286  1
  O  O286  1  0.11716898  0.88130885  0.86597025  1
  O  O287  1  0.61041420  0.37428815  0.37194520  1
  O  O288  1  0.62106557  0.36802065  0.86301528  1
  O  O289  1  0.63430143  0.86783235  0.36288842  1
  O  O290  1  0.62021862  0.87088207  0.87318027  1
  O  O291  1  0.38419487  0.13475104  0.12464536  1
  O  O292  1  0.38292652  0.13066642  0.62268039  1
  O  O293  1  0.38125777  0.63281062  0.12720031  1
  O  O294  1  0.38339271  0.63101178  0.63570484  1
  O  O295  1  0.87981258  0.13442582  0.12900227  1
  O  O296  1  0.88469861  0.12219655  0.63693635  1
  O  O297  1  0.87521613  0.62405755  0.14085112  1
  O  O298  1  0.88672095  0.62034116  0.63000810  1
  O  O299  1  0.25636942  0.25678379  0.11481769  1
  O  O300  1  0.25350390  0.25754064  0.61983917  1
  O  O301  1  0.25457684  0.75865216  0.12028763  1
  O  O302  1  0.25126121  0.76193083  0.62856188  1
  O  O303  1  0.76383789  0.25465449  0.12465580  1
  O  O304  1  0.74703891  0.25998388  0.61248069  1
  O  O305  1  0.75445358  0.76053146  0.12396873  1
  O  O306  1  0.76311620  0.74691636  0.60890887  1
  O  O307  1  0.24320954  0.24486967  0.38008317  1
  O  O308  1  0.24438015  0.25242739  0.88771375  1
  O  O309  1  0.23587377  0.74966242  0.37025076  1
  O  O310  1  0.25387704  0.75556150  0.89025475  1
  O  O311  1  0.74610171  0.24916440  0.38940164  1
  O  O312  1  0.74167229  0.23533749  0.86831276  1
  O  O313  1  0.73953594  0.73699217  0.36375237  1
  O  O314  1  0.75111763  0.75230625  0.88752992  1
  O  O315  1  0.00532790  0.11764844  0.00537346  1
  O  O316  1  0.00696569  0.11704007  0.50956713  1
  O  O317  1  0.00769306  0.60870275  0.00147018  1
  O  O318  1  0.00743029  0.61769912  0.50800858  1
  O  O319  1  0.50606172  0.11726549  0.00844118  1
  O  O320  1  0.50550304  0.11992355  0.50811143  1
  O  O321  1  0.50617468  0.61593066  0.01209178  1
  O  O322  1  0.51000123  0.62466952  0.50686022  1
  O  O323  1  0.48925386  0.38101821  0.49656226  1
  O  O324  1  0.49516006  0.37986016  0.99332571  1
  O  O325  1  0.49443930  0.88793658  0.50412475  1
  O  O326  1  0.48884296  0.89383093  1.01015679  1
  O  O327  1  1.00448731  0.38878232  0.49753847  1
  O  O328  1  1.00308801  0.38730171  0.99286315  1
  O  O329  1  1.00450355  0.89090933  0.50026445  1
  O  O330  1  0.99879801  0.87910175  0.99629440  1
  O  O331  1  0.49959855  0.48518620  0.37914805  1
  O  O332  1  0.49351125  0.49285826  0.87955407  1
  O  O333  1  0.49050440  1.00626839  0.38357904  1
  O  O334  1  0.48858294  1.00416226  0.88569883  1
  O  O335  1  0.99127514  0.50086307  0.38386614  1
  O  O336  1  1.00259682  0.48658448  0.88758504  1
  O  O337  1  0.99400910  0.99984346  0.38401008  1
  O  O338  1  0.99965869  0.99022215  0.88705570  1
  O  O339  1  -0.00393166  0.00924546  0.11256280  1
  O  O340  1  0.01034867  0.00591872  0.62070539  1
  O  O341  1  -0.00368111  0.49839289  0.11058646  1
  O  O342  1  0.00503197  0.50680070  0.61991563  1
  O  O343  1  0.50515822  0.01065995  0.11929514  1
  O  O344  1  0.50636982  0.00910794  0.61502949  1
  O  O345  1  0.50347858  0.50374284  0.12012058  1
  O  O346  1  0.50487367  0.51501528  0.62091151  1
  O  O347  1  0.24171225  0.38555749  0.24389057  1
  O  O348  1  0.24944328  0.38796740  0.74346093  1
  O  O349  1  0.25288274  0.88387439  0.23848301  1
  O  O350  1  0.24206159  0.87894941  0.74282046  1
  O  O351  1  0.74970215  0.38516195  0.24225606  1
  O  O352  1  0.74493811  0.37864802  0.74171153  1
  O  O353  1  0.74731999  0.88408813  0.24228564  1
  O  O354  1  0.75053822  0.88900645  0.75375119  1
  O  O355  1  0.25285590  0.11870914  0.25488407  1
  O  O356  1  0.25241941  0.12009254  0.75446441  1
  O  O357  1  0.24524529  0.60956470  0.24655992  1
  O  O358  1  0.25913226  0.61466611  0.74601020  1
  O  O359  1  0.75887244  0.11223211  0.24799339  1
  O  O360  1  0.76094459  0.11986656  0.75260931  1
  O  O361  1  0.75510128  0.61251351  0.25591235  1
  O  O362  1  0.76543699  0.61739392  0.74718011  1
  O  O363  1  0.36879649  0.11740872  0.37519539  1
  O  O364  1  0.37276471  0.11797775  0.87500942  1
  O  O365  1  0.37105857  0.63514841  0.36921103  1
  O  O366  1  0.38187244  0.61384678  0.87017274  1
  O  O367  1  0.87477465  0.11602529  0.36515211  1
  O  O368  1  0.86962554  0.12348690  0.86478019  1
  O  O369  1  0.86805900  0.61615326  0.36575587  1
  O  O370  1  0.87957355  0.62516582  0.86699321  1
  O  O371  1  0.13328141  0.36448510  0.13423977  1
  O  O372  1  0.13151723  0.38434108  0.62880661  1
  O  O373  1  0.13550468  0.87516423  0.12102935  1
  O  O374  1  0.12924605  0.88015226  0.62973895  1
  O  O375  1  0.63212888  0.37874368  0.12604594  1
  O  O376  1  0.62638222  0.37486771  0.63507109  1
  O  O377  1  0.63544091  0.88267647  0.13031456  1
  O  O378  1  0.62340522  0.88773978  0.62201229  1
  O  O379  1  0.13220473  0.26058651  0.26061109  1
  O  O380  1  0.13110025  0.25155117  0.76544561  1
  O  O381  1  0.11713931  0.74194184  0.26376486  1
  O  O382  1  0.11751331  0.76191184  0.74896203  1
  O  O383  1  0.62930525  0.24842499  0.25639563  1
  O  O384  1  0.61964638  0.25546349  0.75185619  1
  O  O385  1  0.62437952  0.76037901  0.25186646  1
  O  O386  1  0.63269710  0.74752203  0.75286821  1
  O  O387  1  0.36668113  0.25033723  0.23639844  1
  O  O388  1  0.38172908  0.25059754  0.74264634  1
  O  O389  1  0.37854266  0.75336600  0.23596180  1
  O  O390  1  0.37126860  0.73943496  0.75488472  1
  O  O391  1  0.86973891  0.23717539  0.24880236  1
  O  O392  1  0.87219806  0.23524494  0.75014089  1
  O  O393  1  0.88409158  0.74062594  0.25294398  1
  O  O394  1  0.88302127  0.73608122  0.75379855  1
  O  O395  1  0.37124269  0.49058670  0.50544583  1
  O  O396  1  0.37796843  0.49656748  0.99251334  1
  O  O397  1  0.38287772  0.99372699  0.49247794  1
  O  O398  1  0.37903740  0.99575791  0.99728427  1
  O  O399  1  0.88347824  0.50730175  0.49032242  1
  O  O400  1  0.88418795  0.50013401  0.99909198  1
  O  O401  1  0.88469062  1.01104982  0.49013500  1
  O  O402  1  0.88414603  0.99344045  0.99682623  1
  O  O403  1  0.11960254  0.01367777  -0.00262558  1
  O  O404  1  0.11963897  0.00685579  0.50613685  1
  O  O405  1  0.12597888  0.50699294  0.00027819  1
  O  O406  1  0.11673333  0.50809396  0.50627437  1
  O  O407  1  0.61749719  0.00805944  0.00305574  1
  O  O408  1  0.61938587  0.00555298  0.50374599  1
  O  O409  1  0.62133283  0.50372124  0.00652606  1
  O  O410  1  0.62585744  0.51459612  0.50024005  1
  O  O411  1  0.36726438  0.36925253  0.11756748  1
  O  O412  1  0.36937272  0.37211445  0.61895628  1
  O  O413  1  0.36846520  0.87015037  0.11503775  1
  O  O414  1  0.36510130  0.87653232  0.61708799  1
  O  O415  1  0.86919828  0.35813555  0.12700685  1
  O  O416  1  0.86807172  0.37687272  0.62910246  1
  O  O417  1  0.86676863  0.87455434  0.11815855  1
  O  O418  1  0.88041283  0.86595215  0.62217738  1
  O  O419  1  0.13036171  0.13223249  0.37905537  1
  O  O420  1  0.12294591  0.13318253  0.88356654  1
  O  O421  1  0.12928291  0.63387000  0.38600429  1
  O  O422  1  0.11974003  0.62740158  0.89463248  1
  O  O423  1  0.62686142  0.12340465  0.38920261  1
  O  O424  1  0.63024795  0.12602874  0.87935850  1
  O  O425  1  0.63232058  0.62966345  0.37809720  1
  O  O426  1  0.61916873  0.62309316  0.89147729  1
