# generated using pymatgen
data_V85Zn86O256
_symmetry_space_group_name_H-M   'P 1'
_cell_length_a   16.94743889
_cell_length_b   16.94451421
_cell_length_c   16.95831681
_cell_angle_alpha   90.01213278
_cell_angle_beta   89.96364544
_cell_angle_gamma   89.96400364
_symmetry_Int_Tables_number   1
_chemical_formula_structural   V85Zn86O256
_chemical_formula_sum   'V85 Zn86 O256'
_cell_volume   4869.85197335
_cell_formula_units_Z   1
loop_
 _symmetry_equiv_pos_site_id
 _symmetry_equiv_pos_as_xyz
  1  'x, y, z'
loop_
 _atom_site_type_symbol
 _atom_site_label
 _atom_site_symmetry_multiplicity
 _atom_site_fract_x
 _atom_site_fract_y
 _atom_site_fract_z
 _atom_site_occupancy
  V  V0  1  0.74896704  0.00569829  0.74865881  1
  V  V1  1  -0.00936506  0.24076821  0.24947068  1
  V  V2  1  0.38305297  0.74781813  0.62589462  1
  V  V3  1  0.61862775  0.85800296  0.25498581  1
  V  V4  1  0.25104813  0.49980982  0.25398994  1
  V  V5  1  0.25296077  0.25303635  0.51436127  1
  V  V6  1  0.49690710  0.37636899  0.87023449  1
  V  V7  1  0.62466040  0.12746814  0.49751180  1
  V  V8  1  0.12272845  -0.00458382  0.63110260  1
  V  V9  1  0.13445504  0.74997352  0.86721674  1
  V  V10  1  0.37977892  0.75095609  0.13126969  1
  V  V11  1  0.13179436  0.62703267  -0.00123541  1
  V  V12  1  0.25025886  0.87197567  0.12720881  1
  V  V13  1  0.37410860  0.62571012  0.75052417  1
  V  V14  1  0.87562577  0.74660346  0.63281313  1
  V  V15  1  0.87811866  0.75367304  0.12336467  1
  V  V16  1  0.61776174  0.24815740  0.36957362  1
  V  V17  1  0.87372152  0.25158701  0.61263406  1
  V  V18  1  0.37896422  0.49857526  0.38261243  1
  V  V19  1  0.62107229  0.37932107  0.74603509  1
  V  V20  1  0.50171187  0.00661003  0.00430009  1
  V  V21  1  0.75379132  0.75233269  0.49553076  1
  V  V22  1  0.12292223  0.37463578  0.25411166  1
  V  V23  1  0.12468620  0.12595890  0.00384860  1
  V  V24  1  0.36061882  0.50972634  0.88014650  1
  V  V25  1  0.87382427  0.62559705  0.24955675  1
  V  V26  1  0.12441871  0.50100920  0.12789083  1
  V  V27  1  0.74470860  0.63141322  0.37406934  1
  V  V28  1  0.61884633  0.00163106  0.13442414  1
  V  V29  1  0.37637103  0.13982438  0.24761317  1
  V  V30  1  0.37933063  0.62814065  0.25426533  1
  V  V31  1  0.50310115  0.87830526  0.87439576  1
  V  V32  1  -0.00222142  0.75320182  0.25699690  1
  V  V33  1  0.62291133  0.87730312  0.74912654  1
  V  V34  1  0.62516818  0.75356854  0.87404407  1
  V  V35  1  -0.00561663  0.49560349  0.00249674  1
  V  V36  1  0.87567877  0.49535722  0.38394003  1
  V  V37  1  0.61311296  0.62892229  0.49974184  1
  V  V38  1  0.25171162  -0.00005639  0.25356646  1
  V  V39  1  0.49556130  0.14134581  0.12530630  1
  V  V40  1  0.25126188  0.12700373  0.87649246  1
  V  V41  1  0.37546167  0.87395120  0.00110757  1
  V  V42  1  0.49944341  0.37668384  0.37718767  1
  V  V43  1  0.75656363  -0.00081266  0.25617329  1
  V  V44  1  0.24777901  0.87518624  0.63540048  1
  V  V45  1  0.37449775  0.37256844  0.51390865  1
  V  V46  1  0.75291085  0.50772450  0.74557936  1
  V  V47  1  0.36921054  0.87650452  0.50015914  1
  V  V48  1  0.75062885  0.75508023  -0.00321539  1
  V  V49  1  0.87682053  0.50658002  0.86984481  1
  V  V50  1  0.61920947  0.37385403  0.24533854  1
  V  V51  1  0.49470585  0.13306990  0.62170109  1
  V  V52  1  0.87739971  0.87457407  -0.00404438  1
  V  V53  1  0.87590654  0.00368192  0.87123725  1
  V  V54  1  0.62882339  0.49974969  0.12365217  1
  V  V55  1  0.60743728  0.50490026  0.61942696  1
  V  V56  1  0.11364017  0.87711384  0.25444685  1
  V  V57  1  0.75219763  0.87697550  0.61779502  1
  V  V58  1  -0.00222259  0.37254698  0.87832900  1
  V  V59  1  0.63140726  0.62594301  -0.00350775  1
  V  V60  1  0.25493526  0.24936149  0.01030622  1
  V  V61  1  0.74748648  0.87712231  0.12630313  1
  V  V62  1  0.12632962  -0.00063460  0.12463613  1
  V  V63  1  0.12771431  0.25046555  0.37703903  1
  V  V64  1  0.12527169  0.74807895  0.37815143  1
  V  V65  1  0.37301043  0.13312491  0.74550929  1
  V  V66  1  0.12466053  0.11946071  0.50024593  1
  V  V67  1  0.93811881  -0.06251196  0.43906875  1
  V  V68  1  0.87046201  0.13029220  0.74748813  1
  V  V69  1  -0.00169599  0.62618870  0.12487543  1
  V  V70  1  0.75181590  0.49378351  0.24740409  1
  V  V71  1  0.49976569  0.86184791  0.37392954  1
  V  V72  1  0.11800052  0.62018878  0.51857360  1
  V  V73  1  0.50219433  0.50311223  -0.00108142  1
  V  V74  1  0.00267020  -0.00126323  -0.00141845  1
  V  V75  1  0.50197466  0.62931711  0.12782113  1
  V  V76  1  0.63684934  0.24566575  0.87122487  1
  V  V77  1  0.74923704  0.37679858  0.61489037  1
  V  V78  1  0.76158926  0.12285428  0.37238896  1
  V  V79  1  0.37695016  0.00237205  0.87454491  1
  V  V80  1  0.49808926  0.00045410  0.49687855  1
  V  V81  1  0.37684903  0.37248921  0.00767811  1
  V  V82  1  0.00711397  0.87383685  0.86153502  1
  V  V83  1  0.13057605  0.37756190  0.74133533  1
  V  V84  1  -0.00133636  0.12012033  0.62148311  1
  Zn  Zn85  1  0.25584666  0.37075850  0.13096456  1
  Zn  Zn86  1  0.00380970  0.49284094  0.51591933  1
  Zn  Zn87  1  0.24427914  0.49942402  0.72999876  1
  Zn  Zn88  1  0.25260678  0.12506958  0.37646708  1
  Zn  Zn89  1  -0.04437040  0.15863798  0.10294015  1
  Zn  Zn90  1  0.50421046  0.74144414  0.74593925  1
  Zn  Zn91  1  0.62374165  0.00217537  0.62358164  1
  Zn  Zn92  1  -0.00814523  0.37122779  0.38201234  1
  Zn  Zn93  1  0.24811282  0.62411857  0.38107741  1
  Zn  Zn94  1  0.80899621  0.29515911  0.06649708  1
  Zn  Zn95  1  0.25367191  0.74438135  -0.00090533  1
  Zn  Zn96  1  0.66399266  0.15771452  0.02311323  1
  Zn  Zn97  1  0.00346834  0.24884484  0.75031611  1
  Zn  Zn98  1  0.00701117  0.74670017  0.74494775  1
  Zn  Zn99  1  0.24732395  0.74805492  0.50335616  1
  Zn  Zn100  1  0.75420194  0.62945532  0.86726176  1
  Zn  Zn101  1  0.94798871  0.58831041  0.68415121  1
  Zn  Zn102  1  0.12363679  0.25215564  0.87728152  1
  Zn  Zn103  1  0.49215022  0.25923287  0.74163365  1
  Zn  Zn104  1  0.24701507  0.00019242  0.75323286  1
  Zn  Zn105  1  0.37520084  0.00053352  0.37210193  1
  Zn  Zn106  1  0.75150622  0.25587003  0.49265858  1
  Zn  Zn107  1  0.18508586  0.18628800  0.18890291  1
  Zn  Zn108  1  0.18381299  0.18992815  0.69085230  1
  Zn  Zn109  1  0.18938318  0.68722610  0.19025543  1
  Zn  Zn110  1  0.19703740  0.68614661  0.69009892  1
  Zn  Zn111  1  0.68680692  0.18625283  0.19531843  1
  Zn  Zn112  1  0.68429313  0.19136278  0.68483068  1
  Zn  Zn113  1  0.69215555  0.68538693  0.18356779  1
  Zn  Zn114  1  0.68524838  0.68884750  0.68139553  1
  Zn  Zn115  1  0.30921050  0.31448301  0.31903355  1
  Zn  Zn116  1  0.31029698  0.31368266  0.81856307  1
  Zn  Zn117  1  0.30908793  0.81223564  0.31498444  1
  Zn  Zn118  1  0.31461802  0.81204237  0.81270954  1
  Zn  Zn119  1  0.80882289  0.31251166  0.30809591  1
  Zn  Zn120  1  0.81287360  0.32110449  0.80807560  1
  Zn  Zn121  1  0.81441134  0.81973043  0.31474513  1
  Zn  Zn122  1  0.80989653  0.81966670  0.80976608  1
  Zn  Zn123  1  0.18676812  0.43735435  0.44350593  1
  Zn  Zn124  1  0.18284825  0.43369688  0.94021105  1
  Zn  Zn125  1  0.18136586  0.93582926  0.43839705  1
  Zn  Zn126  1  0.18984368  0.93481420  0.93625353  1
  Zn  Zn127  1  0.68381266  0.44429936  0.43537115  1
  Zn  Zn128  1  0.69225438  0.43077425  0.93267924  1
  Zn  Zn129  1  0.68483905  0.93785605  0.43489811  1
  Zn  Zn130  1  0.70622170  0.97346733  0.95701352  1
  Zn  Zn131  1  0.31484619  0.06229866  0.06648569  1
  Zn  Zn132  1  0.30925766  0.06290959  0.56320621  1
  Zn  Zn133  1  0.31277801  0.56050578  0.06807507  1
  Zn  Zn134  1  0.30854327  0.56580795  0.56401514  1
  Zn  Zn135  1  0.80935318  0.11189197  0.06322868  1
  Zn  Zn136  1  0.81163811  0.06161885  0.55814032  1
  Zn  Zn137  1  0.81180959  0.45724202  0.06457525  1
  Zn  Zn138  1  0.80494570  0.56488934  0.56041330  1
  Zn  Zn139  1  0.44101172  0.44060055  0.18982742  1
  Zn  Zn140  1  0.41124223  0.45189571  0.67523509  1
  Zn  Zn141  1  0.43742940  0.93845520  0.19131662  1
  Zn  Zn142  1  0.43582842  0.94376602  0.68502881  1
  Zn  Zn143  1  0.93712276  0.42805640  0.19131329  1
  Zn  Zn144  1  0.93920993  0.42330877  0.68877070  1
  Zn  Zn145  1  0.91723481  0.97257131  0.16737298  1
  Zn  Zn146  1  0.93534126  0.93628157  0.67866804  1
  Zn  Zn147  1  0.05902323  0.06226269  0.31720981  1
  Zn  Zn148  1  0.06231584  0.06615315  0.81068635  1
  Zn  Zn149  1  0.05960725  0.56471667  0.31674159  1
  Zn  Zn150  1  0.07004737  0.56226343  0.81395562  1
  Zn  Zn151  1  0.55758422  0.06183259  0.31200800  1
  Zn  Zn152  1  0.55997583  0.06520323  0.80875866  1
  Zn  Zn153  1  0.56171811  0.56354197  0.31527586  1
  Zn  Zn154  1  0.55931521  0.56205807  0.81075707  1
  Zn  Zn155  1  0.43521136  0.18975058  0.43240285  1
  Zn  Zn156  1  0.44104542  0.19191594  0.93596682  1
  Zn  Zn157  1  0.43223697  0.68897275  0.43895001  1
  Zn  Zn158  1  0.44079600  0.68989152  0.93776554  1
  Zn  Zn159  1  0.94232142  0.18492319  0.43682331  1
  Zn  Zn160  1  0.93177437  0.18961057  0.93235789  1
  Zn  Zn161  1  0.93568727  0.68727040  0.44093840  1
  Zn  Zn162  1  0.94481692  0.68468408  0.92982259  1
  Zn  Zn163  1  0.06403031  0.31496957  0.06567600  1
  Zn  Zn164  1  0.05977730  0.31270319  0.56214444  1
  Zn  Zn165  1  0.06336074  0.81325723  0.06055363  1
  Zn  Zn166  1  0.05986590  0.81240715  0.56064623  1
  Zn  Zn167  1  0.57021561  0.31824268  0.05629274  1
  Zn  Zn168  1  0.56007964  0.31527024  0.55826747  1
  Zn  Zn169  1  0.56094653  0.81527561  0.06285357  1
  Zn  Zn170  1  0.56547711  0.81263391  0.55972682  1
  O  O171  1  0.13126845  0.11598531  0.11245129  1
  O  O172  1  0.11716573  0.12042624  0.62064822  1
  O  O173  1  0.11755704  0.62082837  0.12309117  1
  O  O174  1  0.12451038  0.63180140  0.61756785  1
  O  O175  1  0.60993450  0.11466977  0.12875402  1
  O  O176  1  0.61786520  0.12367708  0.61360306  1
  O  O177  1  0.62015377  0.62202181  0.11737639  1
  O  O178  1  0.62575312  0.61858066  0.61107789  1
  O  O179  1  0.38264426  0.38098337  0.37745931  1
  O  O180  1  0.37997737  0.38636750  0.88510948  1
  O  O181  1  0.37982367  0.87662766  0.38375829  1
  O  O182  1  0.38216199  0.88241441  0.87926606  1
  O  O183  1  0.86926033  0.39180035  0.37047977  1
  O  O184  1  0.88853851  0.38716176  0.86774822  1
  O  O185  1  0.87785182  0.87049531  0.39017199  1
  O  O186  1  0.88457511  0.88359692  0.87501368  1
  O  O187  1  0.24793459  0.00046000  0.36310422  1
  O  O188  1  0.25618309  0.01093881  0.87632004  1
  O  O189  1  0.25643049  0.50008660  0.36588390  1
  O  O190  1  0.26146472  0.49914302  0.88279624  1
  O  O191  1  0.73906820  0.01498067  0.37027306  1
  O  O192  1  0.76398157  -0.01207909  0.85511790  1
  O  O193  1  0.75646483  0.51009935  0.36726216  1
  O  O194  1  0.75896828  0.49986267  0.86353049  1
  O  O195  1  0.24404990  0.49850586  0.13927201  1
  O  O196  1  0.30462981  0.48218438  0.63557682  1
  O  O197  1  0.24562264  0.99319507  0.13477458  1
  O  O198  1  0.24223155  0.99308916  0.62789827  1
  O  O199  1  0.74057140  0.51316607  0.13913594  1
  O  O200  1  0.74320390  0.49383035  0.62922485  1
  O  O201  1  0.73366737  0.99035259  0.13927883  1
  O  O202  1  0.74791273  0.99402606  0.63086146  1
  O  O203  1  0.00954380  0.36670390  0.25942099  1
  O  O204  1  0.01128731  0.36997464  0.76079571  1
  O  O205  1  0.01209035  0.86800752  0.24192971  1
  O  O206  1  -0.00291042  0.87320111  0.75894155  1
  O  O207  1  0.51091241  0.37983979  0.25917218  1
  O  O208  1  0.50371975  0.37956728  0.75547982  1
  O  O209  1  0.50941093  0.87705451  0.25901024  1
  O  O210  1  0.51195920  0.88248589  0.75256443  1
  O  O211  1  0.48440212  0.12298762  0.24222499  1
  O  O212  1  0.49105836  0.12698849  0.73805404  1
  O  O213  1  0.48691499  0.62043291  0.24563503  1
  O  O214  1  0.48369281  0.62669247  0.75622859  1
  O  O215  1  1.00723951  0.14062774  0.25206914  1
  O  O216  1  0.99031474  0.12760315  0.74149940  1
  O  O217  1  0.99508518  0.63372071  0.24420379  1
  O  O218  1  0.99829758  0.63542789  0.76857379  1
  O  O219  1  0.36825176  0.26150298  -0.00466646  1
  O  O220  1  0.35911063  0.25584630  0.49026099  1
  O  O221  1  0.37341611  0.75613244  0.00819937  1
  O  O222  1  0.37174917  0.75928592  0.50850298  1
  O  O223  1  0.87924474  0.21071322  0.02629889  1
  O  O224  1  0.87166087  0.24491571  0.50898454  1
  O  O225  1  0.87248292  0.75700422  0.00059292  1
  O  O226  1  0.86005754  0.74459798  0.50982950  1
  O  O227  1  0.13554285  0.24313684  0.49607742  1
  O  O228  1  0.13233059  0.24144487  1.00008018  1
  O  O229  1  0.12358871  0.74096357  0.49361443  1
  O  O230  1  0.12823558  0.74241605  0.99474356  1
  O  O231  1  0.62529862  0.24022357  0.49093746  1
  O  O232  1  0.61838184  0.25166691  0.97711864  1
  O  O233  1  0.63575591  0.73738319  0.50585494  1
  O  O234  1  0.62840062  0.74797590  0.99352435  1
  O  O235  1  0.50677185  0.23968782  0.11601033  1
  O  O236  1  0.50605139  0.23626429  0.62358806  1
  O  O237  1  0.48753044  0.74561290  0.12179759  1
  O  O238  1  0.48674277  0.76311448  0.62837011  1
  O  O239  1  1.00908625  0.25081028  0.14324444  1
  O  O240  1  0.99020002  0.23979970  0.62752944  1
  O  O241  1  0.99738647  0.74753113  0.13408955  1
  O  O242  1  0.98075661  0.75746098  0.62671339  1
  O  O243  1  0.01205138  0.24998917  0.36856596  1
  O  O244  1  -0.00122717  0.25862262  0.87409624  1
  O  O245  1  0.00410601  0.74502484  0.36218828  1
  O  O246  1  0.01295530  0.76042639  0.87508217  1
  O  O247  1  0.51080143  0.25700373  0.37423327  1
  O  O248  1  0.50204635  0.26666634  0.86969745  1
  O  O249  1  0.49589814  0.76274980  0.37852800  1
  O  O250  1  0.50838440  0.76046289  0.87254467  1
  O  O251  1  0.24554562  0.13556335  0.49784442  1
  O  O252  1  0.24796917  0.12936925  0.99597617  1
  O  O253  1  0.23676593  0.62787159  0.50068350  1
  O  O254  1  0.23571556  0.62384562  1.01051404  1
  O  O255  1  0.73960248  0.12618789  0.48899294  1
  O  O256  1  0.73550944  0.07978992  0.98619773  1
  O  O257  1  0.74145442  0.63298464  0.49027147  1
  O  O258  1  0.73553821  0.63696863  0.99558085  1
  O  O259  1  0.25742453  0.36681816  0.00310912  1
  O  O260  1  0.25692412  0.36194926  0.49899621  1
  O  O261  1  0.25857466  0.87617716  0.01143254  1
  O  O262  1  0.25965450  0.87620046  0.50621386  1
  O  O263  1  0.75047766  0.37895315  0.00935396  1
  O  O264  1  0.74194895  0.37620865  0.51075617  1
  O  O265  1  0.75622865  0.87527848  0.00518762  1
  O  O266  1  0.73748747  0.86641014  0.50698104  1
  O  O267  1  0.13077427  0.49464261  0.25085722  1
  O  O268  1  0.13040143  0.48555979  0.75440884  1
  O  O269  1  0.12985946  0.99394957  0.24562458  1
  O  O270  1  0.12755217  1.00603917  0.73584122  1
  O  O271  1  0.63082524  0.49601442  0.24492662  1
  O  O272  1  0.62837869  0.49337057  0.74267730  1
  O  O273  1  0.62365757  0.99193661  0.24423912  1
  O  O274  1  0.63235455  0.99601341  0.74797051  1
  O  O275  1  0.36435633  0.00483967  0.25131892  1
  O  O276  1  0.37443417  0.01251785  0.75866639  1
  O  O277  1  0.36777954  0.50562323  0.25722449  1
  O  O278  1  0.37959824  0.50678097  0.77373603  1
  O  O279  1  0.85339914  -0.02410092  0.26224606  1
  O  O280  1  0.86924766  0.00863550  0.74946188  1
  O  O281  1  0.86625173  0.50730155  0.25623184  1
  O  O282  1  0.86674608  0.50015729  0.75516583  1
  O  O283  1  0.12853161  0.36864159  0.36609666  1
  O  O284  1  0.11184770  0.37349321  0.87363204  1
  O  O285  1  0.12909917  0.86185509  0.36629482  1
  O  O286  1  0.11958587  0.86253225  0.87955265  1
  O  O287  1  0.61794608  0.37041617  0.37052011  1
  O  O288  1  0.61643393  0.37293768  0.86338313  1
  O  O289  1  0.61621549  0.87518583  0.36246297  1
  O  O290  1  0.62085589  0.87184242  0.86558613  1
  O  O291  1  0.38091099  0.12432579  0.13778646  1
  O  O292  1  0.38146478  0.12050506  0.63357211  1
  O  O293  1  0.38038769  0.63158219  0.13312951  1
  O  O294  1  0.37456864  0.63919470  0.63306476  1
  O  O295  1  0.88588803  0.07852948  0.13643106  1
  O  O296  1  0.87983016  0.12985558  0.62864225  1
  O  O297  1  0.88460201  0.63780938  0.13420059  1
  O  O298  1  0.86286880  0.64202913  0.62587910  1
  O  O299  1  0.24721729  0.25070220  0.11418424  1
  O  O300  1  0.24950807  0.24524069  0.61250686  1
  O  O301  1  0.26098394  0.75535470  0.12523979  1
  O  O302  1  0.26021975  0.76064696  0.62457115  1
  O  O303  1  0.73926710  0.20881063  0.10098072  1
  O  O304  1  0.75393346  0.25816235  0.61962662  1
  O  O305  1  0.75669744  0.75763863  0.11703242  1
  O  O306  1  0.75490836  0.75865604  0.61780994  1
  O  O307  1  0.23751089  0.24719511  0.38056041  1
  O  O308  1  0.24976849  0.23841470  0.88834001  1
  O  O309  1  0.24036017  0.74704377  0.37991689  1
  O  O310  1  0.23861892  0.75769880  0.88085090  1
  O  O311  1  0.73967419  0.23975827  0.37352542  1
  O  O312  1  0.73623786  0.25768826  0.86645561  1
  O  O313  1  0.75401253  0.73975510  0.37974744  1
  O  O314  1  0.74276296  0.75218575  0.87837330  1
  O  O315  1  0.01135226  0.11432908  -0.00196362  1
  O  O316  1  0.01254762  0.13064487  0.50918735  1
  O  O317  1  0.01036021  0.61958695  0.00730464  1
  O  O318  1  0.01515748  0.62308683  0.49674692  1
  O  O319  1  0.49245041  0.11655519  0.00884240  1
  O  O320  1  0.50211612  0.12005106  0.50176189  1
  O  O321  1  0.51103463  0.62316599  0.00548722  1
  O  O322  1  0.51421193  0.63158022  0.49406159  1
  O  O323  1  0.49209293  0.37093772  0.48455652  1
  O  O324  1  0.49411369  0.38275797  0.99263857  1
  O  O325  1  0.49309420  0.88232742  0.49485725  1
  O  O326  1  0.49191887  0.88228192  0.99541249  1
  O  O327  1  1.00795906  0.38046754  0.49250711  1
  O  O328  1  1.00567546  0.38415503  0.99404613  1
  O  O329  1  0.99990116  0.88575889  0.50149953  1
  O  O330  1  0.99665272  0.88002131  0.98844143  1
  O  O331  1  0.48990971  0.49120015  0.37055177  1
  O  O332  1  0.49709986  0.49174370  0.88351387  1
  O  O333  1  0.49755218  0.99289040  0.38598778  1
  O  O334  1  0.49849456  0.99873738  0.88466722  1
  O  O335  1  0.98119238  0.50179916  0.37251691  1
  O  O336  1  0.99566085  0.49436410  0.88360775  1
  O  O337  1  0.99784396  0.98986385  0.37380701  1
  O  O338  1  0.99959965  0.99292884  0.87879922  1
  O  O339  1  0.01404831  -0.01508284  0.10541034  1
  O  O340  1  0.00654689  0.01150889  0.62847138  1
  O  O341  1  0.00497930  0.50459938  0.12133614  1
  O  O342  1  -0.01631671  0.50260899  0.62626919  1
  O  O343  1  0.50040370  0.00691207  0.12114080  1
  O  O344  1  0.50080189  0.00898354  0.61111448  1
  O  O345  1  0.50764899  0.50954457  0.11855221  1
  O  O346  1  0.50926894  0.49716980  0.62853047  1
  O  O347  1  0.24427504  0.38257883  0.24980627  1
  O  O348  1  0.23464384  0.37555144  0.76103622  1
  O  O349  1  0.24342137  0.88160601  0.24439612  1
  O  O350  1  0.25648318  0.88020252  0.73892326  1
  O  O351  1  0.73544863  0.38709691  0.25754090  1
  O  O352  1  0.73929221  0.38619084  0.73921264  1
  O  O353  1  0.73382495  0.87633458  0.24877418  1
  O  O354  1  0.73838503  0.88236161  0.73984021  1
  O  O355  1  0.25879794  0.11741342  0.24926824  1
  O  O356  1  0.25488606  0.12519774  0.76011893  1
  O  O357  1  0.26150015  0.61703619  0.25207461  1
  O  O358  1  0.26551463  0.61650960  0.74953583  1
  O  O359  1  0.74554013  0.11449116  0.26487032  1
  O  O360  1  0.75619232  0.11635965  0.74016143  1
  O  O361  1  0.75349473  0.62045284  0.25722856  1
  O  O362  1  0.73955859  0.61168217  0.74927601  1
  O  O363  1  0.37353035  0.12187193  0.36093742  1
  O  O364  1  0.36952778  0.12086803  0.87118040  1
  O  O365  1  0.37286406  0.61737581  0.37055396  1
  O  O366  1  0.37584502  0.61533564  0.87687145  1
  O  O367  1  0.85966615  0.12952551  0.37844063  1
  O  O368  1  0.88101499  0.11082959  0.86226564  1
  O  O369  1  0.86604921  0.61929218  0.36812840  1
  O  O370  1  0.87141803  0.61147584  0.88083758  1
  O  O371  1  0.12813262  0.38272248  0.13883416  1
  O  O372  1  0.12350888  0.36750474  0.64280282  1
  O  O373  1  0.13380907  0.87756695  0.13209985  1
  O  O374  1  0.13470974  0.88334336  0.61865524  1
  O  O375  1  0.61881813  0.38679195  0.13346130  1
  O  O376  1  0.62779569  0.38207284  0.62844177  1
  O  O377  1  0.62410661  0.87864818  0.13830788  1
  O  O378  1  0.63205299  0.87873787  0.63128331  1
  O  O379  1  0.12425124  0.25743425  0.25897776  1
  O  O380  1  0.12372603  0.25847762  0.75845229  1
  O  O381  1  0.11874559  0.75638068  0.25613452  1
  O  O382  1  0.12985350  0.74824430  0.76398027  1
  O  O383  1  0.62845254  0.26167029  0.25744197  1
  O  O384  1  0.62044373  0.26522703  0.75269136  1
  O  O385  1  0.62445715  0.75977653  0.24440293  1
  O  O386  1  0.62380777  0.75915041  0.75372516  1
  O  O387  1  0.36705253  0.23840203  0.25171342  1
  O  O388  1  0.37463040  0.23776978  0.75780246  1
  O  O389  1  0.37006545  0.74102507  0.24367182  1
  O  O390  1  0.37698524  0.74344685  0.74470796  1
  O  O391  1  0.89120169  0.25184168  0.25701029  1
  O  O392  1  0.87088350  0.23845132  0.74385420  1
  O  O393  1  0.88211340  0.74938174  0.24560724  1
  O  O394  1  0.86944459  0.75459667  0.73520564  1
  O  O395  1  0.36886240  0.49049785  0.48628062  1
  O  O396  1  0.38082172  0.49872966  0.99363847  1
  O  O397  1  0.37978489  0.99325352  0.49724034  1
  O  O398  1  0.38327454  0.99452277  0.99662677  1
  O  O399  1  0.87069905  0.50724416  0.48484951  1
  O  O400  1  0.89026842  0.50491882  0.99379292  1
  O  O401  1  0.88071280  1.00126284  0.49537963  1
  O  O402  1  0.88803299  0.99180125  0.98479615  1
  O  O403  1  0.12210899  0.00516851  0.00203668  1
  O  O404  1  0.13447832  0.01382591  0.51053916  1
  O  O405  1  0.11713101  0.50714829  0.00654803  1
  O  O406  1  0.12516892  0.51595812  0.49890102  1
  O  O407  1  0.60698198  -0.01411126  0.01953181  1
  O  O408  1  0.61563604  0.01155554  0.49828967  1
  O  O409  1  0.62260016  0.50954548  0.00261477  1
  O  O410  1  0.62754664  0.51559270  0.50733034  1
  O  O411  1  0.37616200  0.38474918  0.11181621  1
  O  O412  1  0.39876992  0.35683295  0.60869927  1
  O  O413  1  0.37151836  0.86771124  0.12401924  1
  O  O414  1  0.36757133  0.87453431  0.61759075  1
  O  O415  1  0.86106198  0.37789759  0.13035409  1
  O  O416  1  0.86125121  0.36063360  0.63301772  1
  O  O417  1  0.86828473  0.87349740  0.11631155  1
  O  O418  1  0.85884260  0.86729543  0.62615230  1
  O  O419  1  0.12759767  0.13141253  0.38424550  1
  O  O420  1  0.13384994  0.12443388  0.88608579  1
  O  O421  1  0.12727046  0.63787951  0.37351314  1
  O  O422  1  0.12484433  0.64013061  0.88600602  1
  O  O423  1  0.62319417  0.13288123  0.37934348  1
  O  O424  1  0.62031397  0.14666941  0.86057714  1
  O  O425  1  0.63323516  0.62018849  0.38566972  1
  O  O426  1  0.62420405  0.63442706  0.88067673  1
