# generated using pymatgen
data_V85Zn86O256
_symmetry_space_group_name_H-M   'P 1'
_cell_length_a   16.93579270
_cell_length_b   16.93575971
_cell_length_c   16.95060448
_cell_angle_alpha   89.98561821
_cell_angle_beta   89.97960779
_cell_angle_gamma   89.97895480
_symmetry_Int_Tables_number   1
_chemical_formula_structural   V85Zn86O256
_chemical_formula_sum   'V85 Zn86 O256'
_cell_volume   4861.78032685
_cell_formula_units_Z   1
loop_
 _symmetry_equiv_pos_site_id
 _symmetry_equiv_pos_as_xyz
  1  'x, y, z'
loop_
 _atom_site_type_symbol
 _atom_site_label
 _atom_site_symmetry_multiplicity
 _atom_site_fract_x
 _atom_site_fract_y
 _atom_site_fract_z
 _atom_site_occupancy
  V  V0  1  0.87673550  0.61845771  0.75175937  1
  V  V1  1  0.12836108  0.12239844  0.00538564  1
  V  V2  1  0.87409311  0.37570899  0.49929479  1
  V  V3  1  0.50793495  0.75263905  0.24777768  1
  V  V4  1  0.37783957  0.87723245  0.00083285  1
  V  V5  1  -0.00096701  0.00114365  0.49982776  1
  V  V6  1  0.74721200  0.49425692  0.25328598  1
  V  V7  1  0.63126943  0.87646140  0.74848038  1
  V  V8  1  0.00148959  0.87641492  0.37310876  1
  V  V9  1  0.49750866  0.75389663  0.74900553  1
  V  V10  1  0.50371333  0.87855624  0.87703199  1
  V  V11  1  0.38676059  0.13496754  0.24005606  1
  V  V12  1  0.12547243  0.88161324  0.24200133  1
  V  V13  1  0.55246507  0.05432737  0.58789506  1
  V  V14  1  0.12679958  0.87494787  0.74730938  1
  V  V15  1  0.25632778  0.49937022  0.25086047  1
  V  V16  1  0.87793646  0.12426489  0.25282067  1
  V  V17  1  0.87627627  0.74267127  0.62060293  1
  V  V18  1  0.24915159  0.37379955  0.12688140  1
  V  V19  1  0.25422026  0.12755217  0.37286559  1
  V  V20  1  0.25337729  0.25042251  0.00446937  1
  V  V21  1  0.87577431  0.25026984  0.12447709  1
  V  V22  1  0.75282251  -0.00173176  0.74814418  1
  V  V23  1  0.49607144  0.37536024  0.86484960  1
  V  V24  1  0.24895525  0.38440792  0.62744715  1
  V  V25  1  0.12053794  0.62898560  0.50529202  1
  V  V26  1  0.38083905  0.76632310  0.61797288  1
  V  V27  1  0.87348177  0.87271939  0.00120493  1
  V  V28  1  0.25116443  0.00299884  0.24169364  1
  V  V29  1  0.74549629  0.87318098  0.12047306  1
  V  V30  1  0.87538817  0.87225689  0.49865980  1
  V  V31  1  0.62319420  0.49612053  0.12772549  1
  V  V32  1  0.63287547  0.37054849  0.74337450  1
  V  V33  1  0.74558731  0.37251214  0.12550651  1
  V  V34  1  0.26715702  0.61459418  0.86403034  1
  V  V35  1  0.12785042  0.74373896  0.87320049  1
  V  V36  1  0.25479027  0.25308567  0.50290325  1
  V  V37  1  0.74734312  -0.00190512  0.25167511  1
  V  V38  1  0.25201111  0.74779970  -0.00145296  1
  V  V39  1  0.12332209  0.12726101  0.49938233  1
  V  V40  1  0.12198422  0.25954645  0.37668532  1
  V  V41  1  0.45167308  0.57987617  0.67914876  1
  V  V42  1  0.25083538  0.00225124  0.74927898  1
  V  V43  1  0.73756803  0.75322805  0.49524508  1
  V  V44  1  0.63453560  0.75162318  0.87965225  1
  V  V45  1  0.37772346  0.00544628  0.87244766  1
  V  V46  1  0.87844449  0.00114749  0.87803961  1
  V  V47  1  -0.00449200  0.37802693  0.87338364  1
  V  V48  1  0.12757840  0.38143577  0.75147193  1
  V  V49  1  0.00141992  0.74396524  0.74167755  1
  V  V50  1  0.37615998  0.62220425  0.25649290  1
  V  V51  1  0.49442296  0.50175106  -0.00769852  1
  V  V52  1  0.00757886  -0.00200967  0.00452569  1
  V  V53  1  0.74020949  0.12548328  0.38090270  1
  V  V54  1  0.25064354  0.62309184  0.37747184  1
  V  V55  1  0.49355724  0.50557004  0.48681353  1
  V  V56  1  0.75403258  0.61524243  0.87571448  1
  V  V57  1  0.87018900  0.25557471  0.62831845  1
  V  V58  1  0.38034377  0.24048912  0.64085355  1
  V  V59  1  0.88438655  0.49627667  0.37370322  1
  V  V60  1  0.63231827  0.62837522  0.00207614  1
  V  V61  1  0.87535437  0.12613368  0.75244925  1
  V  V62  1  0.87096082  0.74777519  0.12329565  1
  V  V63  1  0.49958084  0.36528571  0.37298532  1
  V  V64  1  -0.00038109  0.25891429  0.25467085  1
  V  V65  1  0.50409308  0.01777136  0.00174478  1
  V  V66  1  0.00150855  0.74760226  0.25010006  1
  V  V67  1  0.61704014  0.24210917  0.87702286  1
  V  V68  1  0.37138707  0.37866640  -0.00688871  1
  V  V69  1  0.37806547  -0.00324757  0.38361147  1
  V  V70  1  0.00471601  0.12083519  0.12770811  1
  V  V71  1  0.25133688  0.12827547  0.87036362  1
  V  V72  1  0.00160429  0.87267156  0.87590863  1
  V  V73  1  0.62168863  0.62743203  0.50837615  1
  V  V74  1  0.62351768  0.01753328  0.12010390  1
  V  V75  1  -0.00002355  0.12645730  0.62784000  1
  V  V76  1  0.50112102  0.87404473  0.37840992  1
  V  V77  1  0.49775132  0.62162587  0.12484612  1
  V  V78  1  0.87064082  0.37886859  -0.00480114  1
  V  V79  1  -0.00087734  0.50152996  0.00046646  1
  V  V80  1  0.74371024  0.25197056  0.50408277  1
  V  V81  1  0.00043851  0.50083209  0.50942571  1
  V  V82  1  0.74358099  0.62640852  0.37432176  1
  V  V83  1  0.37472417  0.75179245  0.12509921  1
  V  V84  1  0.87346173  0.00016973  0.37850169  1
  Zn  Zn85  1  0.25556556  0.88109932  0.61594657  1
  Zn  Zn86  1  0.37343213  0.38119014  0.49959892  1
  Zn  Zn87  1  0.75391301  0.87620176  0.62268572  1
  Zn  Zn88  1  0.12377444  0.25248273  0.87512779  1
  Zn  Zn89  1  0.12695780  0.00140074  0.62325156  1
  Zn  Zn90  1  0.73892797  0.12074917  0.88021382  1
  Zn  Zn91  1  0.12366870  0.50420944  0.12813637  1
  Zn  Zn92  1  0.62405759  0.25298779  0.37563009  1
  Zn  Zn93  1  0.12266365  0.38060874  0.25222547  1
  Zn  Zn94  1  0.62326254  0.87625497  0.25038934  1
  Zn  Zn95  1  0.75412438  0.49514964  0.74353645  1
  Zn  Zn96  1  0.00020904  0.62319322  0.12609335  1
  Zn  Zn97  1  0.25473744  0.75732679  0.49505081  1
  Zn  Zn98  1  0.12745584  0.62226398  0.00166118  1
  Zn  Zn99  1  0.12683069  0.50877967  0.63131143  1
  Zn  Zn100  1  0.74314537  0.23936737  0.00200588  1
  Zn  Zn101  1  0.12995595  0.75271760  0.37458046  1
  Zn  Zn102  1  0.52678308  0.24891259  0.22272355  1
  Zn  Zn103  1  0.00089753  0.25185515  0.75295635  1
  Zn  Zn104  1  0.87484355  0.62348770  0.25018568  1
  Zn  Zn105  1  0.63028712  0.49624998  0.62263212  1
  Zn  Zn106  1  0.24655082  0.88024363  0.12066662  1
  Zn  Zn107  1  0.18869064  0.19116536  0.18885713  1
  Zn  Zn108  1  0.18663378  0.19404252  0.68783484  1
  Zn  Zn109  1  0.18613711  0.68740920  0.18624763  1
  Zn  Zn110  1  0.19642106  0.68752537  0.68650185  1
  Zn  Zn111  1  0.69256229  0.18791399  0.19266963  1
  Zn  Zn112  1  0.68619666  0.19020177  0.69431874  1
  Zn  Zn113  1  0.68914374  0.68487094  0.18734640  1
  Zn  Zn114  1  0.68938958  0.68943937  0.68755163  1
  Zn  Zn115  1  0.31854535  0.31654950  0.31784991  1
  Zn  Zn116  1  0.30880507  0.31596971  0.81215283  1
  Zn  Zn117  1  0.31405013  0.81274071  0.31032839  1
  Zn  Zn118  1  0.31449818  0.81371961  0.81161254  1
  Zn  Zn119  1  0.80889696  0.31363385  0.31480474  1
  Zn  Zn120  1  0.80760329  0.30786539  0.81810718  1
  Zn  Zn121  1  0.81213626  0.81124349  0.31151354  1
  Zn  Zn122  1  0.81539844  0.80727522  0.81465958  1
  Zn  Zn123  1  0.18842779  0.44187090  0.43792723  1
  Zn  Zn124  1  0.18395440  0.44063872  0.93563637  1
  Zn  Zn125  1  0.18910867  0.93895744  0.43376367  1
  Zn  Zn126  1  0.18856649  0.93630612  0.93567278  1
  Zn  Zn127  1  0.68524500  0.43727027  0.44148182  1
  Zn  Zn128  1  0.68272224  0.43494819  0.93650733  1
  Zn  Zn129  1  0.67641815  0.94029186  0.44266486  1
  Zn  Zn130  1  0.68916677  0.94268555  0.93836301  1
  Zn  Zn131  1  0.31816348  0.06610208  0.06272965  1
  Zn  Zn132  1  0.31319407  0.06505672  0.56193361  1
  Zn  Zn133  1  0.31178884  0.56156724  0.06339974  1
  Zn  Zn134  1  0.31080679  0.56912022  0.56232983  1
  Zn  Zn135  1  0.81363518  0.06151520  0.06304500  1
  Zn  Zn136  1  0.72236818  0.06597466  0.56696730  1
  Zn  Zn137  1  0.81323149  0.56121227  0.06319802  1
  Zn  Zn138  1  0.80961640  0.56261412  0.56350033  1
  Zn  Zn139  1  0.45019798  0.40378441  0.17040367  1
  Zn  Zn140  1  0.44242756  0.41667735  0.67755927  1
  Zn  Zn141  1  0.43742645  0.94380412  0.18746688  1
  Zn  Zn142  1  0.44480926  0.95840102  0.68767656  1
  Zn  Zn143  1  0.93364114  0.43840103  0.18464792  1
  Zn  Zn144  1  0.93787987  0.43713406  0.68675688  1
  Zn  Zn145  1  0.93584259  0.93722899  0.18761513  1
  Zn  Zn146  1  0.93685482  0.93618344  0.68585915  1
  Zn  Zn147  1  0.06677020  0.06496805  0.31326002  1
  Zn  Zn148  1  0.06490821  0.06334204  0.81578986  1
  Zn  Zn149  1  0.06663862  0.56376704  0.31495325  1
  Zn  Zn150  1  0.06234281  0.56096609  0.81644859  1
  Zn  Zn151  1  0.56052169  0.06250922  0.31224385  1
  Zn  Zn152  1  0.55688694  0.06513927  0.79073080  1
  Zn  Zn153  1  0.56406126  0.56171440  0.31344858  1
  Zn  Zn154  1  0.57111034  0.55873654  0.81557193  1
  Zn  Zn155  1  0.44166616  0.17852936  0.44993329  1
  Zn  Zn156  1  0.43300945  0.19285183  0.93368046  1
  Zn  Zn157  1  0.44037346  0.69377463  0.43615718  1
  Zn  Zn158  1  0.44171192  0.68886123  0.93502483  1
  Zn  Zn159  1  0.93327351  0.18873702  0.43936435  1
  Zn  Zn160  1  0.93715876  0.19113660  0.94031012  1
  Zn  Zn161  1  0.93583580  0.68353603  0.43422421  1
  Zn  Zn162  1  0.93665265  0.68800422  0.93660436  1
  Zn  Zn163  1  0.06477266  0.31289235  0.06296154  1
  Zn  Zn164  1  0.06004397  0.31627741  0.56332295  1
  Zn  Zn165  1  0.06333100  0.80856727  0.06408902  1
  Zn  Zn166  1  0.06699418  0.81290164  0.56164987  1
  Zn  Zn167  1  0.55890196  0.31028587  0.05310986  1
  Zn  Zn168  1  0.55686130  0.31140996  0.55977669  1
  Zn  Zn169  1  0.56249283  0.81565382  0.06206339  1
  Zn  Zn170  1  0.54923526  0.84572735  0.57466389  1
  O  O171  1  0.11988458  0.12900026  0.11441478  1
  O  O172  1  0.11705543  0.12662530  0.61871296  1
  O  O173  1  0.11923812  0.62534466  0.11914213  1
  O  O174  1  0.13441407  0.62592065  0.61079308  1
  O  O175  1  0.63395128  0.11649255  0.12345791  1
  O  O176  1  0.63523754  0.11512525  0.62723604  1
  O  O177  1  0.61992869  0.61850030  0.11796669  1
  O  O178  1  0.62545346  0.63046299  0.61101877  1
  O  O179  1  0.38940144  0.37390904  0.38541117  1
  O  O180  1  0.37930511  0.37495455  0.88333800  1
  O  O181  1  0.38190342  0.89015581  0.36402622  1
  O  O182  1  0.38170908  0.88281479  0.88258212  1
  O  O183  1  0.87102327  0.38547906  0.38359399  1
  O  O184  1  0.87996506  0.37036426  0.88437680  1
  O  O185  1  0.88305385  0.88013864  0.37707187  1
  O  O186  1  0.88212568  0.87673520  0.88290639  1
  O  O187  1  0.25871401  0.00835155  0.36511865  1
  O  O188  1  0.25632670  0.00720990  0.86997349  1
  O  O189  1  0.25047930  0.51313433  0.36821813  1
  O  O190  1  0.25009881  0.51686678  0.88291403  1
  O  O191  1  0.75337154  0.00372183  0.37019747  1
  O  O192  1  0.76307468  0.00048013  0.86863337  1
  O  O193  1  0.75382690  0.50330075  0.36820180  1
  O  O194  1  0.74356954  0.51231692  0.87114916  1
  O  O195  1  0.24528520  0.49547506  0.13298356  1
  O  O196  1  0.24957028  0.48852230  0.61779942  1
  O  O197  1  0.25546282  1.00100952  0.13736162  1
  O  O198  1  0.24836195  1.00167234  0.63725096  1
  O  O199  1  0.74402392  0.49432703  0.13241813  1
  O  O200  1  0.74369960  0.50528056  0.63022667  1
  O  O201  1  0.74634596  0.99319553  0.13343953  1
  O  O202  1  0.76784685  0.99379913  0.64434400  1
  O  O203  1  -0.00031703  0.36206697  0.24426213  1
  O  O204  1  0.00286089  0.37430800  0.75894373  1
  O  O205  1  0.00583560  0.87157283  0.25359770  1
  O  O206  1  0.00667719  0.86731094  0.75627668  1
  O  O207  1  0.49675027  0.37518899  0.27216238  1
  O  O208  1  0.50837208  0.37787836  0.76127958  1
  O  O209  1  0.50029287  0.86749581  0.25084581  1
  O  O210  1  0.51228716  0.87249578  0.75873273  1
  O  O211  1  0.49142897  0.13416868  0.25313734  1
  O  O212  1  0.50523332  0.06304890  0.69079624  1
  O  O213  1  0.49394333  0.63004771  0.24521924  1
  O  O214  1  0.51134512  0.63482796  0.74660771  1
  O  O215  1  0.99847639  0.13173487  0.24355432  1
  O  O216  1  0.99895666  0.12727410  0.74349879  1
  O  O217  1  0.99744757  0.63470960  0.25145138  1
  O  O218  1  0.99267681  0.63556947  0.75968160  1
  O  O219  1  0.36063161  0.26020758  -0.00477765  1
  O  O220  1  0.35952009  0.24618956  0.50129876  1
  O  O221  1  0.37130399  0.75645132  0.00448668  1
  O  O222  1  0.37715817  0.75053887  0.51509995  1
  O  O223  1  0.87701978  0.26229648  0.01004962  1
  O  O224  1  0.87149856  0.25866444  0.50834982  1
  O  O225  1  0.88263396  0.75829288  0.01411199  1
  O  O226  1  0.87134349  0.75270385  0.50506317  1
  O  O227  1  0.13103662  0.24652049  0.49521155  1
  O  O228  1  0.13542398  0.24236758  0.99872758  1
  O  O229  1  0.12331922  0.74157057  0.49380665  1
  O  O230  1  0.13414939  0.75104501  0.99026756  1
  O  O231  1  0.64081806  0.25498396  0.50373974  1
  O  O232  1  0.62380963  0.25154665  0.98269205  1
  O  O233  1  0.63562407  0.74785047  0.50103558  1
  O  O234  1  0.61902719  0.73963644  0.99319276  1
  O  O235  1  0.48571743  0.29732109  0.13300109  1
  O  O236  1  0.47907238  0.25349628  0.61935515  1
  O  O237  1  0.49340914  0.74429517  0.12834701  1
  O  O238  1  0.49183310  0.75900826  0.63355124  1
  O  O239  1  0.99678072  0.24065907  0.13178964  1
  O  O240  1  0.99128977  0.24005715  0.62485855  1
  O  O241  1  0.99214518  0.75081033  0.13628074  1
  O  O242  1  0.99557174  0.75362500  0.63587209  1
  O  O243  1  0.00872541  0.24197227  0.36633184  1
  O  O244  1  0.00283703  0.26399968  0.87751514  1
  O  O245  1  -0.00385877  0.75773542  0.36264513  1
  O  O246  1  0.00937345  0.75485146  0.86874253  1
  O  O247  1  0.50279011  0.25908829  0.39225521  1
  O  O248  1  0.50667198  0.26045886  0.87696483  1
  O  O249  1  0.48921110  0.76356536  0.35805997  1
  O  O250  1  0.51107799  0.75710173  0.86936262  1
  O  O251  1  0.24316646  0.13059353  0.48933450  1
  O  O252  1  0.24587796  0.13047590  0.99584847  1
  O  O253  1  0.24513257  0.63116781  0.49148703  1
  O  O254  1  0.25238761  0.63823329  0.99351732  1
  O  O255  1  0.76417890  0.13763552  0.48957066  1
  O  O256  1  0.76256504  0.12691523  0.99108085  1
  O  O257  1  0.74310803  0.63257455  0.49208926  1
  O  O258  1  0.73970262  0.62055277  0.99495467  1
  O  O259  1  0.25163067  0.36931526  0.00187709  1
  O  O260  1  0.24946846  0.36863061  0.50593717  1
  O  O261  1  0.25720482  0.86539192  -0.00140986  1
  O  O262  1  0.23728671  0.86928787  0.50458685  1
  O  O263  1  0.75624866  0.37353143  0.00573292  1
  O  O264  1  0.76329998  0.36740696  0.49734207  1
  O  O265  1  0.76013998  0.88126812  0.00960884  1
  O  O266  1  0.75594131  0.86813973  0.49711455  1
  O  O267  1  0.13789047  0.49870804  0.25116238  1
  O  O268  1  0.11669675  0.48823442  0.74703769  1
  O  O269  1  0.13655920  0.99397574  0.25439150  1
  O  O270  1  0.13289797  0.99106375  0.75282666  1
  O  O271  1  0.63059153  0.50404659  0.23586379  1
  O  O272  1  0.62612645  0.48427312  0.74862294  1
  O  O273  1  0.63250154  1.00109858  0.24060544  1
  O  O274  1  0.64214017  0.98728320  0.76451283  1
  O  O275  1  0.36895093  0.01337602  0.25677849  1
  O  O276  1  0.36397258  -0.00702613  0.76438565  1
  O  O277  1  0.36304519  0.51096125  0.24197780  1
  O  O278  1  0.39976327  0.51548740  0.73248267  1
  O  O279  1  0.86766927  0.00285559  0.25759624  1
  O  O280  1  0.87581706  0.00572400  0.75913302  1
  O  O281  1  0.86692320  0.50022912  0.25776452  1
  O  O282  1  0.87717845  0.51488379  0.74690778  1
  O  O283  1  0.12935153  0.36294681  0.37396951  1
  O  O284  1  0.11716163  0.37485936  0.86805988  1
  O  O285  1  0.11552064  0.87532356  0.36264929  1
  O  O286  1  0.12362063  0.86390601  0.86544397  1
  O  O287  1  0.60698742  0.37426522  0.38649587  1
  O  O288  1  0.61581626  0.36687877  0.86798494  1
  O  O289  1  0.60699783  0.88516639  0.36826079  1
  O  O290  1  0.62439624  0.86766627  0.87307474  1
  O  O291  1  0.37582134  0.12497882  0.14100342  1
  O  O292  1  0.36040715  0.14185285  0.62870003  1
  O  O293  1  0.38128285  0.63072318  0.13164237  1
  O  O294  1  0.38374712  0.63698537  0.62647408  1
  O  O295  1  0.88386566  0.13006157  0.13337910  1
  O  O296  1  0.88522102  0.13244591  0.64217216  1
  O  O297  1  0.87555276  0.63448918  0.12772632  1
  O  O298  1  0.87427751  0.63700845  0.63239920  1
  O  O299  1  0.24684579  0.25926746  0.11675113  1
  O  O300  1  0.25210740  0.26083678  0.61811666  1
  O  O301  1  0.25693480  0.75288045  0.11562509  1
  O  O302  1  0.27180877  0.75413124  0.63104379  1
  O  O303  1  0.75638944  0.25762664  0.12326296  1
  O  O304  1  0.76291450  0.24184566  0.61963511  1
  O  O305  1  0.75793117  0.76005664  0.13117825  1
  O  O306  1  0.75997857  0.75101161  0.61379474  1
  O  O307  1  0.24376137  0.24447634  0.38150176  1
  O  O308  1  0.24714019  0.24148361  0.88143469  1
  O  O309  1  0.25168619  0.73809537  0.37243470  1
  O  O310  1  0.24519188  0.74571864  0.88008238  1
  O  O311  1  0.75189335  0.24137874  0.38505585  1
  O  O312  1  0.73180888  0.24526571  0.87784016  1
  O  O313  1  0.75645725  0.74025119  0.38290432  1
  O  O314  1  0.73879252  0.74212035  0.87465067  1
  O  O315  1  0.00828252  0.12102027  0.00818182  1
  O  O316  1  0.00193098  0.12124499  0.50807855  1
  O  O317  1  -0.00366615  0.61100571  -0.00244606  1
  O  O318  1  0.00903406  0.61595901  0.49311721  1
  O  O319  1  0.49179607  0.11644822  -0.00237108  1
  O  O320  1  0.49931914  0.10863770  0.52222821  1
  O  O321  1  0.50795445  0.61853467  0.00465383  1
  O  O322  1  0.50918723  0.61741344  0.48741170  1
  O  O323  1  0.49760809  0.39249715  0.49833081  1
  O  O324  1  0.48951911  0.38389503  0.98725242  1
  O  O325  1  0.49649994  0.85748329  0.47478116  1
  O  O326  1  0.49485967  0.88331316  0.99339508  1
  O  O327  1  0.98744547  0.38449492  0.50121129  1
  O  O328  1  0.99344391  0.38216624  0.99620802  1
  O  O329  1  0.99765395  0.87982724  0.49236158  1
  O  O330  1  0.99711826  0.87922540  0.99714490  1
  O  O331  1  0.50104310  0.49429885  0.38396319  1
  O  O332  1  0.50732294  0.49333750  0.88573166  1
  O  O333  1  0.48687022  0.99081095  0.36944431  1
  O  O334  1  0.49342407  0.99986851  0.87750419  1
  O  O335  1  0.98748414  0.50424215  0.37934326  1
  O  O336  1  1.00089125  0.48754146  0.88483579  1
  O  O337  1  0.99468646  0.99624496  0.37806260  1
  O  O338  1  0.99765338  0.99198682  0.88239415  1
  O  O339  1  -0.00338576  0.01337468  0.12261730  1
  O  O340  1  0.00067090  0.01137562  0.62036707  1
  O  O341  1  0.00071029  0.50086623  0.11651967  1
  O  O342  1  0.00089361  0.50140985  0.61239140  1
  O  O343  1  0.51194044  -0.00217490  0.11479248  1
  O  O344  1  0.50974264  -0.04381253  0.59344139  1
  O  O345  1  0.50773476  0.49921335  0.11738409  1
  O  O346  1  0.50424307  0.50899345  0.61787578  1
  O  O347  1  0.25376645  0.38217616  0.24378750  1
  O  O348  1  0.24036931  0.37575381  0.74131726  1
  O  O349  1  0.24315960  0.88481857  0.24844558  1
  O  O350  1  0.24188121  0.88410149  0.75070361  1
  O  O351  1  0.75284167  0.38642282  0.24187080  1
  O  O352  1  0.73661242  0.37540660  0.75597988  1
  O  O353  1  0.74850129  0.88559905  0.24547840  1
  O  O354  1  0.74858606  0.87975107  0.75421900  1
  O  O355  1  0.25158126  0.12088936  0.26013012  1
  O  O356  1  0.23738494  0.11691693  0.76275921  1
  O  O357  1  0.25682534  0.62056051  0.25501858  1
  O  O358  1  0.24978486  0.62605254  0.76525531  1
  O  O359  1  0.75873238  0.11303705  0.25801035  1
  O  O360  1  0.76037820  0.11668688  0.75763173  1
  O  O361  1  0.75039449  0.61359674  0.25608162  1
  O  O362  1  0.75896071  0.62802290  0.75934602  1
  O  O363  1  0.37066973  0.11612761  0.37208450  1
  O  O364  1  0.36370938  0.11748756  0.87734067  1
  O  O365  1  0.37097149  0.63030069  0.36191878  1
  O  O366  1  0.36662732  0.62921819  0.87546847  1
  O  O367  1  0.87010983  0.11761607  0.36940459  1
  O  O368  1  0.88602313  0.12078645  0.86338734  1
  O  O369  1  0.86211192  0.61366036  0.37405045  1
  O  O370  1  0.86379957  0.63455669  0.86630075  1
  O  O371  1  0.13657369  0.37737859  0.12840979  1
  O  O372  1  0.13132971  0.37803398  0.63199010  1
  O  O373  1  0.12616790  0.87285435  0.13744118  1
  O  O374  1  0.12383847  0.87820407  0.63910774  1
  O  O375  1  0.63867565  0.38309320  0.11450664  1
  O  O376  1  0.61693260  0.37141636  0.64112371  1
  O  O377  1  0.63718420  0.87953086  0.12525102  1
  O  O378  1  0.63774936  0.86459639  0.64489440  1
  O  O379  1  0.11703131  0.25170157  0.25923922  1
  O  O380  1  0.12088647  0.26436324  0.75267819  1
  O  O381  1  0.11703287  0.75830580  0.25241222  1
  O  O382  1  0.12018657  0.75395798  0.75368487  1
  O  O383  1  0.63070797  0.24697362  0.26171605  1
  O  O384  1  0.62476885  0.26200327  0.76011623  1
  O  O385  1  0.61151228  0.75038413  0.24317247  1
  O  O386  1  0.62003806  0.75567873  0.76019529  1
  O  O387  1  0.36749659  0.23268929  0.25670820  1
  O  O388  1  0.37247879  0.25356894  0.74066475  1
  O  O389  1  0.38074268  0.74303102  0.23975502  1
  O  O390  1  0.39260515  0.75633828  0.74749966  1
  O  O391  1  0.88093923  0.24520866  0.24646337  1
  O  O392  1  0.87568075  0.24432750  0.74588034  1
  O  O393  1  0.88172077  0.75033511  0.23940725  1
  O  O394  1  0.88341484  0.74387907  0.74198302  1
  O  O395  1  0.39117060  0.50683062  0.50478348  1
  O  O396  1  0.38546099  0.49618118  1.00128639  1
  O  O397  1  0.36580453  1.00101436  0.48217620  1
  O  O398  1  0.38012092  0.99615918  0.99093558  1
  O  O399  1  0.88032419  0.49566674  0.49409127  1
  O  O400  1  0.88072381  0.48648984  1.00541417  1
  O  O401  1  0.88276450  0.98901202  0.49064423  1
  O  O402  1  0.88710415  0.99153094  0.99730509  1
  O  O403  1  0.11967878  0.00726691  -0.00249136  1
  O  O404  1  0.11713828  0.01031431  0.49898788  1
  O  O405  1  0.11283477  0.50164702  0.00315102  1
  O  O406  1  0.11530761  0.50734114  0.50008313  1
  O  O407  1  0.61593706  -0.00061351  0.00675218  1
  O  O408  1  0.63294358  0.00769187  0.52196667  1
  O  O409  1  0.61856470  0.50751289  0.00878635  1
  O  O410  1  0.61427677  0.51003401  0.50237183  1
  O  O411  1  0.35575913  0.38622167  0.10623741  1
  O  O412  1  0.36353563  0.36383600  0.61815535  1
  O  O413  1  0.37368651  0.87175713  0.11658098  1
  O  O414  1  0.37592412  0.86837455  0.63168557  1
  O  O415  1  0.86297702  0.37084880  0.11949237  1
  O  O416  1  0.87934514  0.36359107  0.61931801  1
  O  O417  1  0.86547377  0.87036941  0.12137499  1
  O  O418  1  0.87690176  0.86194794  0.61792888  1
  O  O419  1  0.13415950  0.13484802  0.38012594  1
  O  O420  1  0.13208725  0.12644107  0.88867770  1
  O  O421  1  0.13460527  0.62773828  0.38482986  1
  O  O422  1  0.13003980  0.63622514  0.87795474  1
  O  O423  1  0.63764453  0.12085360  0.37712391  1
  O  O424  1  0.61462048  0.13903563  0.85894672  1
  O  O425  1  0.63765466  0.62105312  0.38190011  1
  O  O426  1  0.63241155  0.63202217  0.88342304  1
