# generated using pymatgen
data_V85Zn86O256
_symmetry_space_group_name_H-M   'P 1'
_cell_length_a   16.92598489
_cell_length_b   16.93807070
_cell_length_c   16.93719890
_cell_angle_alpha   89.96591051
_cell_angle_beta   90.02965721
_cell_angle_gamma   90.05426656
_symmetry_Int_Tables_number   1
_chemical_formula_structural   V85Zn86O256
_chemical_formula_sum   'V85 Zn86 O256'
_cell_volume   4855.78163538
_cell_formula_units_Z   1
loop_
 _symmetry_equiv_pos_site_id
 _symmetry_equiv_pos_as_xyz
  1  'x, y, z'
loop_
 _atom_site_type_symbol
 _atom_site_label
 _atom_site_symmetry_multiplicity
 _atom_site_fract_x
 _atom_site_fract_y
 _atom_site_fract_z
 _atom_site_occupancy
  V  V0  1  0.37222900  0.37299086  -0.00142709  1
  V  V1  1  -0.00087467  0.36636401  0.87369338  1
  V  V2  1  0.37289078  0.24985140  0.12171380  1
  V  V3  1  0.00484118  0.49587110  0.00302931  1
  V  V4  1  0.75751803  0.75207787  0.50011943  1
  V  V5  1  0.62176361  0.75023408  0.37177469  1
  V  V6  1  0.24940294  0.25160658  0.50586552  1
  V  V7  1  0.75284595  0.24693576  0.00267066  1
  V  V8  1  0.74856450  0.49342062  0.25579563  1
  V  V9  1  0.24959699  0.62609899  0.37237727  1
  V  V10  1  0.49552271  -0.00387995  0.49823434  1
  V  V11  1  -0.00001036  0.12167702  0.12692332  1
  V  V12  1  0.87470372  0.38194533  0.49100638  1
  V  V13  1  0.64120273  0.63140621  -0.00459027  1
  V  V14  1  0.87704053  0.88117957  0.00310244  1
  V  V15  1  0.62439513  -0.00019436  0.12438751  1
  V  V16  1  0.62356540  0.49400986  0.12910313  1
  V  V17  1  0.62564112  0.87180817  0.74912199  1
  V  V18  1  0.25301876  0.75560607  0.49861418  1
  V  V19  1  0.24685355  0.62229273  0.86696003  1
  V  V20  1  0.12451096  0.62595846  0.50321211  1
  V  V21  1  0.86760684  0.74624612  0.11914413  1
  V  V22  1  0.62199750  0.87337178  0.24962383  1
  V  V23  1  0.37521618  0.24614406  0.63292309  1
  V  V24  1  0.87450371  0.62051640  0.25728391  1
  V  V25  1  0.25421114  0.87771781  0.62042226  1
  V  V26  1  0.49549558  0.12196787  0.63294890  1
  V  V27  1  0.25118167  0.38651698  0.62860011  1
  V  V28  1  0.23689535  0.12589399  0.86885817  1
  V  V29  1  0.74549722  0.37125026  0.12979067  1
  V  V30  1  0.36955225  0.50035601  0.86673500  1
  V  V31  1  0.11959717  0.00008085  0.10508333  1
  V  V32  1  0.12504359  0.13070903  0.49707581  1
  V  V33  1  0.75155803  0.37651612  0.62696940  1
  V  V34  1  0.50136006  0.62784086  0.12545049  1
  V  V35  1  0.62352872  0.62579450  0.49930315  1
  V  V36  1  0.38094058  0.01012522  0.86807009  1
  V  V37  1  0.81093982  0.81405868  0.67292400  1
  V  V38  1  0.49419503  0.87130145  0.37488720  1
  V  V39  1  0.24956050  0.74960578  -0.00294891  1
  V  V40  1  0.00483899  0.75447589  0.25198906  1
  V  V41  1  0.37583328  0.12027783  0.24977009  1
  V  V42  1  0.49839396  0.74637758  0.75099283  1
  V  V43  1  0.87426050  0.51120441  0.87299621  1
  V  V44  1  0.75402887  0.50979395  0.75478801  1
  V  V45  1  0.23160856  0.16070276  0.35063395  1
  V  V46  1  0.49767065  0.49926947  0.49887969  1
  V  V47  1  0.62259167  0.49918250  0.62696675  1
  V  V48  1  0.37433913  0.75511960  0.62238969  1
  V  V49  1  0.12646007  0.00431517  0.62346858  1
  V  V50  1  0.23540584  0.50012001  0.24251285  1
  V  V51  1  0.36802471  -0.00212788  0.37527763  1
  V  V52  1  0.87322659  0.87933529  0.48554847  1
  V  V53  1  0.23406471  -0.00824698  0.25261713  1
  V  V54  1  0.62218718  0.12374412  0.49641493  1
  V  V55  1  0.62975495  -0.00394117  0.62275522  1
  V  V56  1  0.01695751  0.36867871  0.36634872  1
  V  V57  1  0.37334390  0.49818003  0.37105375  1
  V  V58  1  -0.00367158  0.50308206  0.49716293  1
  V  V59  1  0.00199303  0.61740382  0.12868329  1
  V  V60  1  0.49995251  0.50082185  0.00007270  1
  V  V61  1  0.87824093  0.24739252  0.63133332  1
  V  V62  1  0.50107742  0.37466661  0.37022625  1
  V  V63  1  -0.00407706  0.00281608  0.49096815  1
  V  V64  1  0.62669151  0.24867657  0.87474148  1
  V  V65  1  0.13134326  0.37384514  0.75799052  1
  V  V66  1  0.24330599  0.87398060  0.12630898  1
  V  V67  1  0.12621873  0.62125516  0.00458106  1
  V  V68  1  0.23633168  0.24190023  -0.00375240  1
  V  V69  1  0.74839874  0.24996444  0.49990542  1
  V  V70  1  0.50191504  0.25276387  0.24765170  1
  V  V71  1  0.37748485  0.62780954  0.24777762  1
  V  V72  1  0.37923662  0.75241074  0.12449527  1
  V  V73  1  0.76272850  0.00001921  0.25234436  1
  V  V74  1  0.75714377  0.12438866  0.87107878  1
  V  V75  1  0.12352848  0.87511840  0.75127313  1
  V  V76  1  0.62166609  0.24835054  0.37210385  1
  V  V77  1  0.50027792  0.37388708  0.87388083  1
  V  V78  1  0.75971701  0.00530041  0.74326831  1
  V  V79  1  0.23344093  0.37756882  0.12434296  1
  V  V80  1  0.87393624  0.37426446  0.00164429  1
  V  V81  1  0.76390217  0.12199583  0.37251935  1
  V  V82  1  0.88413081  0.00253362  0.87703296  1
  V  V83  1  0.87922876  0.24327300  0.14227169  1
  V  V84  1  0.75016136  0.62131143  0.37555901  1
  Zn  Zn85  1  0.00551686  0.88473191  0.36624819  1
  Zn  Zn86  1  0.74597419  0.86979476  0.11908978  1
  Zn  Zn87  1  -0.00569749  0.12415773  0.62805765  1
  Zn  Zn88  1  0.49847149  -0.00151821  0.00123593  1
  Zn  Zn89  1  0.25757840  0.00887716  0.74305520  1
  Zn  Zn90  1  0.62509888  0.37452981  0.75119690  1
  Zn  Zn91  1  -0.03399622  0.62648238  0.63604777  1
  Zn  Zn92  1  0.37617057  0.87853738  -0.00393343  1
  Zn  Zn93  1  0.37361935  0.37374591  0.49987666  1
  Zn  Zn94  1  0.49768406  0.24354546  0.75464881  1
  Zn  Zn95  1  0.11855408  0.50116412  0.63094576  1
  Zn  Zn96  1  0.11831964  0.74882760  0.87520995  1
  Zn  Zn97  1  0.00076758  0.24118634  0.75850553  1
  Zn  Zn98  1  0.49677858  0.87479963  0.87625405  1
  Zn  Zn99  1  0.12744438  0.75678560  0.37161750  1
  Zn  Zn100  1  0.62510153  0.12051351  0.00068996  1
  Zn  Zn101  1  0.36355600  0.62483347  0.74494478  1
  Zn  Zn102  1  0.00420265  0.87557121  0.88267964  1
  Zn  Zn103  1  0.97995559  0.74252031  0.75094323  1
  Zn  Zn104  1  0.62560031  0.74905083  0.87942784  1
  Zn  Zn105  1  0.49476545  0.62363153  0.62534508  1
  Zn  Zn106  1  0.50006378  0.12298916  0.12159631  1
  Zn  Zn107  1  0.18673778  0.18148108  0.17999247  1
  Zn  Zn108  1  0.18251343  0.19205341  0.68916805  1
  Zn  Zn109  1  0.18729023  0.68498977  0.18437032  1
  Zn  Zn110  1  0.11913052  0.68851860  0.68563449  1
  Zn  Zn111  1  0.68816433  0.18205021  0.19010710  1
  Zn  Zn112  1  0.68591526  0.18552234  0.68735026  1
  Zn  Zn113  1  0.68519122  0.68411996  0.18931396  1
  Zn  Zn114  1  0.68675693  0.68255085  0.69021973  1
  Zn  Zn115  1  0.30308320  0.31350040  0.30488534  1
  Zn  Zn116  1  0.31158371  0.30696942  0.81282873  1
  Zn  Zn117  1  0.31281976  0.81211201  0.30947827  1
  Zn  Zn118  1  0.31061878  0.81781960  0.80922060  1
  Zn  Zn119  1  0.80970621  0.31364378  0.31652994  1
  Zn  Zn120  1  0.81330506  0.31870830  0.81285369  1
  Zn  Zn121  1  0.81318649  0.81067349  0.30919580  1
  Zn  Zn122  1  0.80843770  0.80099587  0.85316234  1
  Zn  Zn123  1  0.18681011  0.43974671  0.43898694  1
  Zn  Zn124  1  0.18633339  0.43537956  0.93771608  1
  Zn  Zn125  1  0.18097673  0.93530925  0.43677265  1
  Zn  Zn126  1  0.19599852  0.93905941  0.93347833  1
  Zn  Zn127  1  0.68321065  0.43497727  0.43787320  1
  Zn  Zn128  1  0.68803273  0.43979415  0.94065772  1
  Zn  Zn129  1  0.68882985  0.93656422  0.43512864  1
  Zn  Zn130  1  0.69483625  0.93425673  0.93703818  1
  Zn  Zn131  1  0.31157373  0.06101278  0.05879083  1
  Zn  Zn132  1  0.31132980  0.06689228  0.55548568  1
  Zn  Zn133  1  0.31253929  0.55996709  0.05964869  1
  Zn  Zn134  1  0.31186840  0.56778920  0.56015061  1
  Zn  Zn135  1  0.81268078  0.06210697  0.06443706  1
  Zn  Zn136  1  0.81226031  0.06361101  0.55691134  1
  Zn  Zn137  1  0.81620098  0.55740682  0.06715068  1
  Zn  Zn138  1  0.81563962  0.56786796  0.56969433  1
  Zn  Zn139  1  0.43162044  0.43641080  0.18723519  1
  Zn  Zn140  1  0.43616209  0.43419004  0.68954624  1
  Zn  Zn141  1  0.43856686  0.93407699  0.18835822  1
  Zn  Zn142  1  0.43811138  0.93587252  0.69037430  1
  Zn  Zn143  1  0.93460320  0.43464511  0.19119414  1
  Zn  Zn144  1  0.93939522  0.43742208  0.68755440  1
  Zn  Zn145  1  0.93995498  0.93558487  0.18122135  1
  Zn  Zn146  1  0.94467779  0.94432557  0.68608398  1
  Zn  Zn147  1  0.05725662  0.07042076  0.30875556  1
  Zn  Zn148  1  0.06313077  0.06442344  0.80636611  1
  Zn  Zn149  1  0.05984505  0.56128668  0.32052739  1
  Zn  Zn150  1  0.06246874  0.55602946  0.81503913  1
  Zn  Zn151  1  0.56387802  0.06067662  0.30973342  1
  Zn  Zn152  1  0.56951088  0.05999331  0.81301849  1
  Zn  Zn153  1  0.56219599  0.56265723  0.30947767  1
  Zn  Zn154  1  0.56131857  0.56181151  0.81196164  1
  Zn  Zn155  1  0.42939565  0.18559526  0.43852436  1
  Zn  Zn156  1  0.43793915  0.18173067  0.93986138  1
  Zn  Zn157  1  0.43562844  0.68765331  0.43874487  1
  Zn  Zn158  1  0.43824388  0.68738807  0.93655593  1
  Zn  Zn159  1  0.93973025  0.19580146  0.44195142  1
  Zn  Zn160  1  0.93918973  0.18289228  0.94517087  1
  Zn  Zn161  1  0.93667189  0.68688502  0.43984227  1
  Zn  Zn162  1  0.94226266  0.69030027  0.93861435  1
  Zn  Zn163  1  0.05711936  0.30477404  0.06340796  1
  Zn  Zn164  1  0.06340375  0.31765194  0.56207678  1
  Zn  Zn165  1  0.06046231  0.81056227  0.06481186  1
  Zn  Zn166  1  0.05968802  0.81457896  0.56127271  1
  Zn  Zn167  1  0.56267782  0.31078699  0.06038753  1
  Zn  Zn168  1  0.55911950  0.31233521  0.56094307  1
  Zn  Zn169  1  0.55957293  0.81397109  0.06100715  1
  Zn  Zn170  1  0.56284679  0.81351870  0.56139586  1
  O  O171  1  0.12309787  0.10706715  0.12385468  1
  O  O172  1  0.13024233  0.11554047  0.61640715  1
  O  O173  1  0.11659818  0.62553947  0.11365210  1
  O  O174  1  0.14762124  0.61440701  0.60622441  1
  O  O175  1  0.62338002  0.11345781  0.12498301  1
  O  O176  1  0.61716208  0.11568124  0.61735381  1
  O  O177  1  0.61758991  0.61878283  0.11892341  1
  O  O178  1  0.62331616  0.61244681  0.61846653  1
  O  O179  1  0.38332826  0.38180424  0.37321336  1
  O  O180  1  0.37967005  0.37974698  0.87810709  1
  O  O181  1  0.38670182  0.88155925  0.36726197  1
  O  O182  1  0.37185049  0.89099089  0.87478718  1
  O  O183  1  0.87262366  0.37518514  0.38914507  1
  O  O184  1  0.88117998  0.38064399  0.88442822  1
  O  O185  1  0.88115646  0.87268931  0.38257091  1
  O  O186  1  0.87606057  0.88411002  0.88426394  1
  O  O187  1  0.25689255  -0.00878086  0.36575245  1
  O  O188  1  0.25923691  0.01429067  0.87232076  1
  O  O189  1  0.25611473  0.50510581  0.36641016  1
  O  O190  1  0.25896920  0.50855146  0.88446006  1
  O  O191  1  0.74503899  0.00755095  0.36226544  1
  O  O192  1  0.75728757  0.00773308  0.86521838  1
  O  O193  1  0.73817960  0.50579729  0.36528646  1
  O  O194  1  0.76026466  0.49070644  0.86659180  1
  O  O195  1  0.25243732  0.49022943  0.12897867  1
  O  O196  1  0.25684149  0.48783363  0.62339272  1
  O  O197  1  0.24021269  0.99208211  0.12796213  1
  O  O198  1  0.24637050  0.99652690  0.62070225  1
  O  O199  1  0.74230482  0.49227250  0.13293387  1
  O  O200  1  0.74263752  0.49279305  0.63030142  1
  O  O201  1  0.74480464  0.99686472  0.13787316  1
  O  O202  1  0.74065206  1.00873257  0.63007398  1
  O  O203  1  -0.00243500  0.38249098  0.26775341  1
  O  O204  1  0.00615347  0.37116849  0.75948421  1
  O  O205  1  -0.00606715  0.85730573  0.24726251  1
  O  O206  1  0.01764577  0.87609946  0.74680928  1
  O  O207  1  0.49300452  0.36460538  0.25645630  1
  O  O208  1  0.50235525  0.37142183  0.76375720  1
  O  O209  1  0.51311232  0.87781227  0.25999280  1
  O  O210  1  0.50902478  0.86520933  0.75214002  1
  O  O211  1  0.48735357  0.12973335  0.24998607  1
  O  O212  1  0.50876823  0.12329436  0.73601148  1
  O  O213  1  0.49274703  0.62041045  0.23534652  1
  O  O214  1  0.49923242  0.63644489  0.74709347  1
  O  O215  1  1.00972353  0.13369458  0.23041732  1
  O  O216  1  1.00264831  0.12995313  0.74080817  1
  O  O217  1  0.99184831  0.62513127  0.24532146  1
  O  O218  1  1.02558009  0.63124927  0.73994740  1
  O  O219  1  0.37014122  0.25343893  0.00680898  1
  O  O220  1  0.37091430  0.25125336  0.51574751  1
  O  O221  1  0.36657016  0.74897631  0.00875588  1
  O  O222  1  0.36265452  0.74784611  0.50595897  1
  O  O223  1  0.86304826  0.25405602  0.00724071  1
  O  O224  1  0.86498351  0.26155816  0.50856958  1
  O  O225  1  0.87945411  0.75090256  0.01589242  1
  O  O226  1  0.86328916  0.75958395  0.49328243  1
  O  O227  1  0.13306404  0.23937885  0.50849509  1
  O  O228  1  0.13833424  0.25200549  0.99943044  1
  O  O229  1  0.13810824  0.74381992  0.49961994  1
  O  O230  1  0.13189806  0.74179444  0.99886963  1
  O  O231  1  0.62904978  0.24462535  0.49470613  1
  O  O232  1  0.63635462  0.24987896  0.99072807  1
  O  O233  1  0.63413430  0.74899931  0.49149458  1
  O  O234  1  0.62150753  0.73360515  1.00590516  1
  O  O235  1  0.49165592  0.24927619  0.13091241  1
  O  O236  1  0.49459281  0.24025962  0.62640100  1
  O  O237  1  0.48775885  0.74246651  0.12257796  1
  O  O238  1  0.49161900  0.75034002  0.62892462  1
  O  O239  1  0.98322372  0.25057590  0.13099995  1
  O  O240  1  0.98336727  0.25402120  0.61999096  1
  O  O241  1  0.99232517  0.73702545  0.13457770  1
  O  O242  1  1.02206539  0.74100011  0.63715146  1
  O  O243  1  -0.00112721  0.26956394  0.38107221  1
  O  O244  1  -0.00940323  0.26244460  0.87838912  1
  O  O245  1  -0.00142189  0.74486200  0.35804554  1
  O  O246  1  0.00128414  0.75616120  0.86679181  1
  O  O247  1  0.49819736  0.25507867  0.36794770  1
  O  O248  1  0.50880667  0.25446561  0.87680088  1
  O  O249  1  0.50771365  0.76008488  0.38320558  1
  O  O250  1  0.50588282  0.75156168  0.86638238  1
  O  O251  1  0.24206279  0.13558733  0.48969749  1
  O  O252  1  0.25137122  0.13681549  0.99264940  1
  O  O253  1  0.24769769  0.63291310  0.48833746  1
  O  O254  1  0.24260616  0.63104445  0.99817220  1
  O  O255  1  0.74081412  0.12937584  0.49154868  1
  O  O256  1  0.74770871  0.13267578  0.99370561  1
  O  O257  1  0.74159526  0.63188845  0.49225307  1
  O  O258  1  0.73867133  0.61762583  1.00818467  1
  O  O259  1  0.25440035  0.36466209  0.00340171  1
  O  O260  1  0.25079535  0.36970995  0.51083097  1
  O  O261  1  0.25142019  0.86607568  0.00903326  1
  O  O262  1  0.24671547  0.86998891  0.51081795  1
  O  O263  1  0.75389977  0.36736850  0.00843210  1
  O  O264  1  0.75375962  0.37285758  0.50920459  1
  O  O265  1  0.76642359  0.87286772  0.00323531  1
  O  O266  1  0.75848348  0.86745445  0.49507595  1
  O  O267  1  0.13685971  0.51147407  0.25071995  1
  O  O268  1  0.12136591  0.47991427  0.74788050  1
  O  O269  1  0.13355516  1.00017680  0.24773204  1
  O  O270  1  0.13140676  0.99313929  0.73949253  1
  O  O271  1  0.63230237  0.50600106  0.23672427  1
  O  O272  1  0.62942062  0.49637860  0.74251877  1
  O  O273  1  0.63063141  0.99199423  0.24145585  1
  O  O274  1  0.63758810  0.99280017  0.74278493  1
  O  O275  1  0.37196463  0.00421668  0.25796677  1
  O  O276  1  0.37503783  0.00110188  0.76197352  1
  O  O277  1  0.36898362  0.51177811  0.25235456  1
  O  O278  1  0.37920524  0.50409893  0.76284965  1
  O  O279  1  0.86140207  -0.00894612  0.24731077  1
  O  O280  1  0.86434358  -0.00719336  0.75478314  1
  O  O281  1  0.86164147  0.51053435  0.24327278  1
  O  O282  1  0.86676119  0.49386657  0.75982472  1
  O  O283  1  0.11727701  0.37569360  0.37570353  1
  O  O284  1  0.11804006  0.37526368  0.86601081  1
  O  O285  1  0.11776852  0.86950470  0.37454105  1
  O  O286  1  0.12589057  0.88133424  0.86272064  1
  O  O287  1  0.60928845  0.36621109  0.37796634  1
  O  O288  1  0.61725296  0.36784213  0.87755277  1
  O  O289  1  0.61611135  0.86929545  0.37033160  1
  O  O290  1  0.62835939  0.87748182  0.85823076  1
  O  O291  1  0.37274588  0.13371920  0.13129547  1
  O  O292  1  0.38468778  0.13043605  0.61988039  1
  O  O293  1  0.38054401  0.63000025  0.12890148  1
  O  O294  1  0.37366643  0.63892327  0.62732613  1
  O  O295  1  0.88034541  0.13587132  0.12506640  1
  O  O296  1  0.87128016  0.14448696  0.61644074  1
  O  O297  1  0.88096312  0.63140296  0.13220609  1
  O  O298  1  0.85922862  0.65364425  0.62142224  1
  O  O299  1  0.25485900  0.25298423  0.11207943  1
  O  O300  1  0.25701689  0.25468442  0.61983933  1
  O  O301  1  0.25481525  0.75480874  0.11694785  1
  O  O302  1  0.25769004  0.76131258  0.61594793  1
  O  O303  1  0.75421547  0.25016736  0.12023069  1
  O  O304  1  0.75327337  0.25759806  0.62068669  1
  O  O305  1  0.76463066  0.74879608  0.13510354  1
  O  O306  1  0.74043982  0.75853440  0.61768297  1
  O  O307  1  0.27209777  0.25448418  0.40018129  1
  O  O308  1  0.25503521  0.23776188  0.88613365  1
  O  O309  1  0.25181805  0.74555077  0.38032292  1
  O  O310  1  0.25262151  0.74418908  0.88761213  1
  O  O311  1  0.74076687  0.24319086  0.37905172  1
  O  O312  1  0.74737300  0.24553994  0.88103180  1
  O  O313  1  0.74305702  0.74387686  0.38124390  1
  O  O314  1  0.73442955  0.73098258  0.87959611  1
  O  O315  1  0.00566182  0.14082206  0.02437715  1
  O  O316  1  0.00754833  0.12201086  0.50355699  1
  O  O317  1  0.00659069  0.61734685  0.00844740  1
  O  O318  1  0.00868320  0.62070319  0.50020903  1
  O  O319  1  0.50734171  0.11864615  0.00370032  1
  O  O320  1  0.50317392  0.11370850  0.50280789  1
  O  O321  1  0.49946244  0.61796726  0.01223481  1
  O  O322  1  0.50590133  0.61785270  0.50122161  1
  O  O323  1  0.49567328  0.38164199  0.49077655  1
  O  O324  1  0.49423462  0.37836447  0.99039846  1
  O  O325  1  0.50398866  0.88851911  0.49128585  1
  O  O326  1  0.49613823  0.87904957  0.99418059  1
  O  O327  1  0.99223313  0.38434129  0.49596310  1
  O  O328  1  0.99586403  0.37990945  0.99713326  1
  O  O329  1  0.99114645  0.88413794  0.49833373  1
  O  O330  1  0.98500698  0.86870350  1.00123253  1
  O  O331  1  0.49593067  0.49252056  0.37581723  1
  O  O332  1  0.49358793  0.49172005  0.87984110  1
  O  O333  1  0.49285767  0.99473244  0.37992334  1
  O  O334  1  0.49127120  1.00096457  0.87353982  1
  O  O335  1  1.00005752  0.49146769  0.38962647  1
  O  O336  1  0.99358581  0.48819689  0.88404385  1
  O  O337  1  1.00288128  1.00472503  0.38640615  1
  O  O338  1  0.98646383  0.99896236  0.86775724  1
  O  O339  1  0.01148888  0.00522121  0.12552624  1
  O  O340  1  0.01059214  0.00315461  0.61228235  1
  O  O341  1  -0.00849803  0.50970138  0.11913579  1
  O  O342  1  -0.00203504  0.50671792  0.61435341  1
  O  O343  1  0.50944872  0.00039635  0.12659514  1
  O  O344  1  0.50312256  0.00428243  0.61694288  1
  O  O345  1  0.50559878  0.50328877  0.12157023  1
  O  O346  1  0.50589728  0.49894729  0.62065920  1
  O  O347  1  0.25605588  0.38949027  0.23533364  1
  O  O348  1  0.23984513  0.36895970  0.74565509  1
  O  O349  1  0.25417022  0.87849019  0.23476471  1
  O  O350  1  0.24466223  0.88395404  0.73581440  1
  O  O351  1  0.75087415  0.38513522  0.24696159  1
  O  O352  1  0.74674176  0.37994173  0.73744088  1
  O  O353  1  0.73903497  0.88394421  0.25369793  1
  O  O354  1  0.74839558  0.87671240  0.73207691  1
  O  O355  1  0.26052978  0.10623709  0.24929402  1
  O  O356  1  0.24596173  0.12900806  0.76388595  1
  O  O357  1  0.25762795  0.62039635  0.25209799  1
  O  O358  1  0.24358529  0.62968873  0.76721137  1
  O  O359  1  0.74810767  0.10957381  0.25800709  1
  O  O360  1  0.74801154  0.11639619  0.75760636  1
  O  O361  1  0.75514797  0.61685212  0.25589583  1
  O  O362  1  0.74569331  0.60855403  0.75075315  1
  O  O363  1  0.35965993  0.12153809  0.36412909  1
  O  O364  1  0.36804337  0.11459239  0.87543305  1
  O  O365  1  0.37227351  0.62042702  0.36469247  1
  O  O366  1  0.36611083  0.61662633  0.87540797  1
  O  O367  1  0.86240407  0.13161379  0.38427700  1
  O  O368  1  0.86491961  0.11936002  0.88117872  1
  O  O369  1  0.86779632  0.62739207  0.36510527  1
  O  O370  1  0.88450338  0.60991841  0.87957274  1
  O  O371  1  0.13434069  0.36748690  0.12356085  1
  O  O372  1  0.13482637  0.37937511  0.63197049  1
  O  O373  1  0.13019075  0.88645842  0.12183818  1
  O  O374  1  0.13299476  0.88715565  0.62938049  1
  O  O375  1  0.63050423  0.38316052  0.12053919  1
  O  O376  1  0.63059404  0.38440022  0.62336024  1
  O  O377  1  0.62698383  0.87654121  0.13458267  1
  O  O378  1  0.61809020  0.88870825  0.63312083  1
  O  O379  1  0.19918370  0.23491626  0.27899848  1
  O  O380  1  0.11711846  0.26817976  0.74299466  1
  O  O381  1  0.10789226  0.74008156  0.24716431  1
  O  O382  1  0.14442940  0.77175600  0.75907016  1
  O  O383  1  0.60853887  0.24235181  0.25327043  1
  O  O384  1  0.62542195  0.25200689  0.76356610  1
  O  O385  1  0.62961956  0.75621546  0.26330289  1
  O  O386  1  0.61627100  0.75768036  0.74355448  1
  O  O387  1  0.38044291  0.24176656  0.24149645  1
  O  O388  1  0.37874672  0.25046728  0.73850326  1
  O  O389  1  0.36969817  0.73627195  0.23955767  1
  O  O390  1  0.38143152  0.74959145  0.74277050  1
  O  O391  1  0.86460357  0.24895611  0.23952014  1
  O  O392  1  0.87412766  0.25828296  0.73396699  1
  O  O393  1  0.88249415  0.73970762  0.24194753  1
  O  O394  1  0.86463612  0.76900826  0.74721663  1
  O  O395  1  0.38109392  0.50096814  0.48961221  1
  O  O396  1  0.38159531  0.49224934  0.99192645  1
  O  O397  1  0.38066477  1.00574853  0.48348352  1
  O  O398  1  0.37483703  0.99945508  0.98647283  1
  O  O399  1  0.87978052  0.49289320  0.50634939  1
  O  O400  1  0.88428741  0.49358853  0.99679187  1
  O  O401  1  0.88342732  0.99188955  0.50405204  1
  O  O402  1  0.87222106  0.99449480  0.99126222  1
  O  O403  1  0.12641670  -0.00306408  0.00722637  1
  O  O404  1  0.12088377  0.01198249  0.50496629  1
  O  O405  1  0.11243646  0.50400501  -0.00141888  1
  O  O406  1  0.11564769  0.50779894  0.50132852  1
  O  O407  1  0.63114293  -0.00497270  0.01504602  1
  O  O408  1  0.61859795  0.00243693  0.50574831  1
  O  O409  1  0.61988931  0.50709976  0.01157155  1
  O  O410  1  0.61744990  0.50388723  0.50705702  1
  O  O411  1  0.36869160  0.36282784  0.11926060  1
  O  O412  1  0.36798354  0.36658915  0.62533209  1
  O  O413  1  0.36812101  0.86578783  0.12389836  1
  O  O414  1  0.36953670  0.86554487  0.62753978  1
  O  O415  1  0.86722248  0.36349294  0.12195936  1
  O  O416  1  0.86651886  0.36901260  0.61762914  1
  O  O417  1  0.87272815  0.86186428  0.12174051  1
  O  O418  1  0.87409896  0.87292388  0.61833507  1
  O  O419  1  0.13470755  0.12258460  0.38110822  1
  O  O420  1  0.13844279  0.11832418  0.87752974  1
  O  O421  1  0.13208602  0.62989516  0.38511998  1
  O  O422  1  0.13037420  0.62353199  0.88925725  1
  O  O423  1  0.62696358  0.13023027  0.37954317  1
  O  O424  1  0.63793791  0.13154432  0.87677401  1
  O  O425  1  0.62610743  0.63346874  0.37885549  1
  O  O426  1  0.61768118  0.61716939  0.89563770  1
