# generated using pymatgen
data_V85Zn86O256
_symmetry_space_group_name_H-M   'P 1'
_cell_length_a   16.92435610
_cell_length_b   16.92872482
_cell_length_c   16.92442284
_cell_angle_alpha   89.91935548
_cell_angle_beta   89.96886820
_cell_angle_gamma   90.06139662
_symmetry_Int_Tables_number   1
_chemical_formula_structural   V85Zn86O256
_chemical_formula_sum   'V85 Zn86 O256'
_cell_volume   4848.97029133
_cell_formula_units_Z   1
loop_
 _symmetry_equiv_pos_site_id
 _symmetry_equiv_pos_as_xyz
  1  'x, y, z'
loop_
 _atom_site_type_symbol
 _atom_site_label
 _atom_site_symmetry_multiplicity
 _atom_site_fract_x
 _atom_site_fract_y
 _atom_site_fract_z
 _atom_site_occupancy
  V  V0  1  0.87370273  0.37724721  -0.00876976  1
  V  V1  1  0.87373526  0.62630896  0.25352122  1
  V  V2  1  0.00552043  0.87818149  0.86669923  1
  V  V3  1  0.87455111  0.24060984  0.62893694  1
  V  V4  1  0.49966385  0.24934637  0.74943662  1
  V  V5  1  0.75370682  0.00711040  0.74575796  1
  V  V6  1  -0.00241507  0.24493893  0.74971598  1
  V  V7  1  0.00045003  0.49800913  -0.00263004  1
  V  V8  1  0.49481554  0.37585625  0.87583340  1
  V  V9  1  0.74664807  0.50213340  0.25082520  1
  V  V10  1  0.62597560  0.01187377  0.12082930  1
  V  V11  1  0.50051297  0.50145078  0.50150993  1
  V  V12  1  0.62568782  0.37486529  0.75113526  1
  V  V13  1  0.37337509  0.87425892  0.00430727  1
  V  V14  1  0.00121116  0.00006837  -0.00153517  1
  V  V15  1  0.88190451  0.12702841  0.24944854  1
  V  V16  1  0.78978348  0.69538363  -0.05958144  1
  V  V17  1  0.00367826  0.62226705  0.12826178  1
  V  V18  1  0.49756973  0.87744554  0.86307634  1
  V  V19  1  0.50071794  0.00118681  -0.00444414  1
  V  V20  1  0.75633522  0.50544298  0.76427954  1
  V  V21  1  0.74233498  0.63555663  0.37300181  1
  V  V22  1  0.62766646  0.12604645  0.49879157  1
  V  V23  1  0.74818851  0.87077518  0.63006313  1
  V  V24  1  0.00184548  0.38009898  0.86691042  1
  V  V25  1  0.23172398  0.37715488  0.62620998  1
  V  V26  1  0.24829301  0.24467128  0.49374318  1
  V  V27  1  0.75949746  0.37762760  0.62353872  1
  V  V28  1  0.62582607  0.50196516  0.62633677  1
  V  V29  1  0.25487384  0.11399677  0.86841707  1
  V  V30  1  0.75109278  0.75184868  0.50207493  1
  V  V31  1  0.00370154  0.12919162  0.12746606  1
  V  V32  1  0.49498080  0.62385840  0.12531828  1
  V  V33  1  0.49955962  0.75075446  0.24820690  1
  V  V34  1  0.25239443  0.62794072  0.37851591  1
  V  V35  1  0.87133160  0.87620902  -0.00311707  1
  V  V36  1  0.26127160  0.25362789  0.00253531  1
  V  V37  1  -0.00457630  0.75236707  0.74293371  1
  V  V38  1  0.74393291  0.12384673  0.87621187  1
  V  V39  1  0.62164675  0.63321809  -0.00172932  1
  V  V40  1  0.50146192  0.87108434  0.37719637  1
  V  V41  1  0.00222692  0.87356523  0.37319670  1
  V  V42  1  0.86929970  0.74958333  0.12451651  1
  V  V43  1  0.49963833  -0.00089191  0.49754328  1
  V  V44  1  0.37261196  0.11169506  0.75062575  1
  V  V45  1  0.50066401  0.63355793  0.63119544  1
  V  V46  1  0.24833157  0.62391667  0.87841494  1
  V  V47  1  0.37109910  0.01271392  0.37344801  1
  V  V48  1  0.75266639  0.12666603  0.37398268  1
  V  V49  1  0.87740395  0.87207625  0.50562337  1
  V  V50  1  0.37597799  0.62580681  0.75179565  1
  V  V51  1  0.62117284  0.63312811  0.49589815  1
  V  V52  1  0.12898163  0.12527926  -0.00238572  1
  V  V53  1  0.24435954  0.87292451  0.64293508  1
  V  V54  1  0.87261506  0.49849338  0.39030579  1
  V  V55  1  0.25886543  0.00243551  0.24555841  1
  V  V56  1  0.74747832  0.87457347  0.11947340  1
  V  V57  1  0.12794859  0.75013127  0.38367879  1
  V  V58  1  0.13025793  0.00053214  0.63832547  1
  V  V59  1  0.62524208  0.87221335  0.25242155  1
  V  V60  1  0.61686449  0.75244780  0.86273365  1
  V  V61  1  0.87648190  0.00760342  0.86885494  1
  V  V62  1  0.74588243  0.24514789  0.00015788  1
  V  V63  1  0.37432283  0.37651566  0.50526756  1
  V  V64  1  0.50278395  0.37383322  0.37678062  1
  V  V65  1  0.48360307  0.12869007  0.12311312  1
  V  V66  1  0.87860602  -0.00074731  0.37571163  1
  V  V67  1  0.75835249  0.25613711  0.49495609  1
  V  V68  1  0.75003039  -0.00085708  0.24961077  1
  V  V69  1  0.23694704  0.49508162  0.74797949  1
  V  V70  1  0.12854744  0.75361343  0.86896009  1
  V  V71  1  0.36116962  0.87388232  0.49749878  1
  V  V72  1  0.12956544  0.61704675  0.51102260  1
  V  V73  1  0.37063556  0.75012399  0.62340323  1
  V  V74  1  0.37347178  0.25041686  0.62649298  1
  V  V75  1  0.12053183  0.24977229  0.36182229  1
  V  V76  1  -0.01211319  0.62171194  0.62459499  1
  V  V77  1  0.62477029  -0.00416573  0.62897215  1
  V  V78  1  0.13034738  -0.01117966  0.12508704  1
  V  V79  1  0.12691790  0.12122858  0.49494814  1
  V  V80  1  0.62394737  0.37182890  0.24878844  1
  V  V81  1  0.48765396  0.24624695  0.24758347  1
  V  V82  1  0.75201614  0.37505265  0.12398428  1
  V  V83  1  0.50009158  0.12483445  0.62450496  1
  V  V84  1  0.12762484  0.25344680  0.86772105  1
  Zn  Zn85  1  0.00136493  0.75172344  0.25025238  1
  Zn  Zn86  1  0.12401555  0.48238260  0.13629964  1
  Zn  Zn87  1  0.37105215  0.49720756  0.37500376  1
  Zn  Zn88  1  0.24325763  0.75674392  0.00839238  1
  Zn  Zn89  1  0.37122791  0.62558851  0.24919195  1
  Zn  Zn90  1  0.49830954  0.50130743  -0.00083072  1
  Zn  Zn91  1  0.62955726  0.24987563  0.37306898  1
  Zn  Zn92  1  0.37325673  0.49871247  0.87645848  1
  Zn  Zn93  1  0.00453605  0.37203706  0.37110332  1
  Zn  Zn94  1  -0.00110410  0.12073895  0.62768061  1
  Zn  Zn95  1  0.00005635  0.48703778  0.51097619  1
  Zn  Zn96  1  0.36146323  0.75589144  0.13147316  1
  Zn  Zn97  1  0.12880154  0.62328803  0.00340690  1
  Zn  Zn98  1  0.38031834  0.37660844  0.01413389  1
  Zn  Zn99  1  0.24061159  0.49714952  0.25338669  1
  Zn  Zn100  1  0.00489791  -0.00162865  0.50255803  1
  Zn  Zn101  1  0.88154421  0.25314463  0.12584576  1
  Zn  Zn102  1  0.87002687  0.62862665  0.76130084  1
  Zn  Zn103  1  0.25281665  0.37294141  0.14251655  1
  Zn  Zn104  1  0.62262764  0.24443432  0.87826072  1
  Zn  Zn105  1  0.13582139  0.86793183  0.24592342  1
  Zn  Zn106  1  0.62246171  0.50116629  0.12128722  1
  Zn  Zn107  1  0.19467266  0.18033582  0.18448879  1
  Zn  Zn108  1  0.18761816  0.18798974  0.68573862  1
  Zn  Zn109  1  0.18733661  0.68852874  0.19314296  1
  Zn  Zn110  1  0.18622497  0.68809190  0.68943159  1
  Zn  Zn111  1  0.69069261  0.18989181  0.18841818  1
  Zn  Zn112  1  0.68878344  0.18732637  0.68731892  1
  Zn  Zn113  1  0.68306278  0.69102911  0.18406182  1
  Zn  Zn114  1  0.68911923  0.68734250  0.68804796  1
  Zn  Zn115  1  0.31289095  0.31162418  0.31573422  1
  Zn  Zn116  1  0.31058057  0.30908144  0.81125495  1
  Zn  Zn117  1  0.31054734  0.81437308  0.31209943  1
  Zn  Zn118  1  0.31924506  0.80969305  0.81552543  1
  Zn  Zn119  1  0.84083062  0.32662578  0.30022751  1
  Zn  Zn120  1  0.81334911  0.31193271  0.81153337  1
  Zn  Zn121  1  0.81265418  0.81280506  0.31380226  1
  Zn  Zn122  1  0.81696709  0.82089134  0.80563197  1
  Zn  Zn123  1  0.18480110  0.43527139  0.43243799  1
  Zn  Zn124  1  0.18454235  0.43709813  0.94210419  1
  Zn  Zn125  1  0.18916411  0.94159648  0.43446775  1
  Zn  Zn126  1  0.18887823  0.93769451  0.93263244  1
  Zn  Zn127  1  0.69015668  0.44115698  0.43668033  1
  Zn  Zn128  1  0.68000607  0.43826081  0.93967496  1
  Zn  Zn129  1  0.68766471  0.93807443  0.43783838  1
  Zn  Zn130  1  0.68352436  0.93469916  0.93531581  1
  Zn  Zn131  1  0.31222692  0.05647244  0.05675338  1
  Zn  Zn132  1  0.31051041  0.05971975  0.56432438  1
  Zn  Zn133  1  0.31356168  0.55498860  0.06457447  1
  Zn  Zn134  1  0.30964668  0.56064821  0.56387967  1
  Zn  Zn135  1  0.81417546  0.06239793  0.06070024  1
  Zn  Zn136  1  0.81426463  0.06171341  0.55929504  1
  Zn  Zn137  1  0.81670586  0.55581484  0.06495636  1
  Zn  Zn138  1  0.80768257  0.56831156  0.56876634  1
  Zn  Zn139  1  0.42597517  0.43995695  0.18917239  1
  Zn  Zn140  1  0.43500449  0.44228548  0.68967685  1
  Zn  Zn141  1  0.43814703  0.94068534  0.18623871  1
  Zn  Zn142  1  0.43624117  0.93470358  0.68360499  1
  Zn  Zn143  1  0.94165561  0.43851598  0.19273824  1
  Zn  Zn144  1  0.93604459  0.43816003  0.69049862  1
  Zn  Zn145  1  0.94087348  0.93911266  0.18679246  1
  Zn  Zn146  1  0.93867490  0.93880335  0.68567984  1
  Zn  Zn147  1  0.06973531  0.06116058  0.31177722  1
  Zn  Zn148  1  0.06441468  0.06696551  0.81123188  1
  Zn  Zn149  1  0.06069822  0.56340116  0.31752517  1
  Zn  Zn150  1  0.06128584  0.56525017  0.81114089  1
  Zn  Zn151  1  0.56085732  0.06230449  0.30943235  1
  Zn  Zn152  1  0.56303380  0.05924235  0.80976644  1
  Zn  Zn153  1  0.55936835  0.56001231  0.31209782  1
  Zn  Zn154  1  0.56504447  0.56382441  0.81434813  1
  Zn  Zn155  1  0.44053906  0.19248534  0.43743670  1
  Zn  Zn156  1  0.43977321  0.18275081  0.93466315  1
  Zn  Zn157  1  0.43751202  0.69408802  0.43999332  1
  Zn  Zn158  1  0.43668453  0.69195078  0.93748478  1
  Zn  Zn159  1  0.94224864  0.18724392  0.44120050  1
  Zn  Zn160  1  0.93607621  0.18943632  0.93811390  1
  Zn  Zn161  1  0.93808340  0.68748514  0.44201892  1
  Zn  Zn162  1  0.95439486  0.68937082  0.93847638  1
  Zn  Zn163  1  0.06774471  0.31096639  0.05992630  1
  Zn  Zn164  1  0.05518948  0.31139113  0.55263917  1
  Zn  Zn165  1  0.05952813  0.80858234  0.05670846  1
  Zn  Zn166  1  0.06659243  0.81004190  0.56345090  1
  Zn  Zn167  1  0.56258794  0.30951981  0.06296933  1
  Zn  Zn168  1  0.56784283  0.31176832  0.56367301  1
  Zn  Zn169  1  0.56212583  0.81327502  0.05964772  1
  Zn  Zn170  1  0.56137550  0.81224689  0.56366441  1
  O  O171  1  0.12102998  0.11493446  0.11547906  1
  O  O172  1  0.12750570  0.11173924  0.61984047  1
  O  O173  1  0.10750791  0.63158025  0.12591621  1
  O  O174  1  0.11801895  0.62887146  0.61440105  1
  O  O175  1  0.62777203  0.11356021  0.12662276  1
  O  O176  1  0.62097110  0.11827512  0.61873469  1
  O  O177  1  0.61395226  0.62833008  0.11695964  1
  O  O178  1  0.61665286  0.62400427  0.61950313  1
  O  O179  1  0.38429199  0.37219261  0.39250525  1
  O  O180  1  0.38894750  0.37274108  0.86895450  1
  O  O181  1  0.38191494  0.88025384  0.38372752  1
  O  O182  1  0.39150905  0.87066725  0.88210818  1
  O  O183  1  0.84568261  0.40129948  0.38915629  1
  O  O184  1  0.88258405  0.37039862  0.88483603  1
  O  O185  1  0.88073023  0.87824091  0.38424022  1
  O  O186  1  0.88134089  0.88779603  0.87817939  1
  O  O187  1  0.26199680  -0.00102866  0.36577304  1
  O  O188  1  0.24665556  0.01458801  0.87227928  1
  O  O189  1  0.25051800  0.51577279  0.38235022  1
  O  O190  1  0.24912013  0.50468376  0.86514456  1
  O  O191  1  0.75802149  0.00488341  0.37019298  1
  O  O192  1  0.75509246  0.00318502  0.86641534  1
  O  O193  1  0.75247429  0.51832038  0.37159223  1
  O  O194  1  0.74492743  0.49636616  0.86221306  1
  O  O195  1  0.24255209  0.50178488  0.13154577  1
  O  O196  1  0.25240508  0.49148883  0.63775691  1
  O  O197  1  0.24380664  1.00013414  0.13209047  1
  O  O198  1  0.24034765  0.98695690  0.62441768  1
  O  O199  1  0.74650137  0.49289498  0.13276495  1
  O  O200  1  0.74405932  0.49309868  0.63031821  1
  O  O201  1  0.74459572  0.99515068  0.12951190  1
  O  O202  1  0.74493545  0.99629292  0.62869628  1
  O  O203  1  -0.05055592  0.36337965  0.27174064  1
  O  O204  1  -0.00528749  0.36740881  0.76148927  1
  O  O205  1  -0.00065994  0.87351739  0.26305511  1
  O  O206  1  -0.00411584  0.86925627  0.75882216  1
  O  O207  1  0.50808325  0.36704137  0.25426711  1
  O  O208  1  0.50791330  0.37110292  0.75183675  1
  O  O209  1  0.50568535  0.87097562  0.25576682  1
  O  O210  1  0.49771062  0.88087955  0.76339862  1
  O  O211  1  0.50731627  0.13224021  0.23430806  1
  O  O212  1  0.49521866  0.12920548  0.74381317  1
  O  O213  1  0.50371488  0.63602978  0.24451800  1
  O  O214  1  0.49145458  0.61928834  0.74025940  1
  O  O215  1  0.99411091  0.11495792  0.23968620  1
  O  O216  1  1.00132162  0.13919192  0.74747851  1
  O  O217  1  0.98775455  0.62894368  0.24562557  1
  O  O218  1  0.99447348  0.63113197  0.74155347  1
  O  O219  1  0.36308408  0.24858219  -0.00783261  1
  O  O220  1  0.36858533  0.25510960  0.50704687  1
  O  O221  1  0.37552351  0.76519129  0.00209708  1
  O  O222  1  0.37806483  0.76032379  0.51412355  1
  O  O223  1  0.86547124  0.25866216  0.00189099  1
  O  O224  1  0.86384098  0.24628646  0.50712299  1
  O  O225  1  0.86641699  0.75157748  0.00133850  1
  O  O226  1  0.86037864  0.75729604  0.49623689  1
  O  O227  1  0.13285131  0.23822385  0.49958603  1
  O  O228  1  0.13100174  0.23663875  0.98767403  1
  O  O229  1  0.11919033  0.73708594  0.49093995  1
  O  O230  1  0.12373227  0.74561523  0.98522792  1
  O  O231  1  0.63705002  0.24084505  0.50075406  1
  O  O232  1  0.64145292  0.25560891  0.99624899  1
  O  O233  1  0.63236494  0.74079539  0.50288901  1
  O  O234  1  0.62642747  0.74133774  0.99105387  1
  O  O235  1  0.50395384  0.23545993  0.12994737  1
  O  O236  1  0.49554713  0.24417350  0.62905633  1
  O  O237  1  0.50016255  0.74770158  0.13738012  1
  O  O238  1  0.49180541  0.74116476  0.62379789  1
  O  O239  1  0.99967451  0.23322996  0.11505904  1
  O  O240  1  0.99116954  0.25073921  0.63233353  1
  O  O241  1  0.98512751  0.74338431  0.12320791  1
  O  O242  1  1.00589631  0.73987385  0.63391861  1
  O  O243  1  0.01714957  0.24293342  0.37453672  1
  O  O244  1  0.00576281  0.25461961  0.86860054  1
  O  O245  1  0.00421386  0.75780294  0.37612540  1
  O  O246  1  0.00744574  0.76044775  0.86749797  1
  O  O247  1  0.50819780  0.25616210  0.36848249  1
  O  O248  1  0.50403078  0.25434097  0.86672556  1
  O  O249  1  0.49802217  0.76349665  0.36767064  1
  O  O250  1  0.50888773  0.76126319  0.87350917  1
  O  O251  1  0.24241751  0.13444439  0.50941945  1
  O  O252  1  0.24631885  0.12941208  0.99010968  1
  O  O253  1  0.23602246  0.62422358  0.49934087  1
  O  O254  1  0.25084336  0.62394904  0.98554178  1
  O  O255  1  0.74651182  0.13151265  0.49332408  1
  O  O256  1  0.75562870  0.13285066  0.99057728  1
  O  O257  1  0.74168678  0.63477193  0.49599214  1
  O  O258  1  0.74365085  0.62642036  1.00455264  1
  O  O259  1  0.25501090  0.35779279  -0.01148726  1
  O  O260  1  0.25698313  0.37049739  0.50773447  1
  O  O261  1  0.26966782  0.87829453  -0.01128150  1
  O  O262  1  0.25973331  0.87854279  0.50573792  1
  O  O263  1  0.75536236  0.37241921  0.00366699  1
  O  O264  1  0.73780316  0.36620412  0.51255946  1
  O  O265  1  0.75787022  0.88341261  0.00800915  1
  O  O266  1  0.75467057  0.86963690  0.50632892  1
  O  O267  1  0.12193352  0.50508142  0.24873594  1
  O  O268  1  0.13830132  0.50309813  0.75007914  1
  O  O269  1  0.13434196  0.99468194  0.24038214  1
  O  O270  1  0.12621531  1.00324046  0.73740478  1
  O  O271  1  0.62933380  0.48790070  0.24897508  1
  O  O272  1  0.63314815  0.49425789  0.74479110  1
  O  O273  1  0.62887028  0.99060475  0.24170343  1
  O  O274  1  0.63325454  1.00290108  0.73523414  1
  O  O275  1  0.36822824  -0.00320026  0.25789259  1
  O  O276  1  0.37779338  0.01265287  0.74205485  1
  O  O277  1  0.37452089  0.51114518  0.26086367  1
  O  O278  1  0.36601572  0.51261486  0.75170809  1
  O  O279  1  0.86988857  0.00558515  0.25499246  1
  O  O280  1  0.86739827  -0.00198651  0.75628658  1
  O  O281  1  0.86446366  0.51539340  0.25768126  1
  O  O282  1  0.86041614  0.50315635  0.75176194  1
  O  O283  1  0.12512065  0.35480595  0.37684272  1
  O  O284  1  0.11430688  0.36418695  0.88087678  1
  O  O285  1  0.11704064  0.86797965  0.38009215  1
  O  O286  1  0.11566000  0.86979060  0.87648283  1
  O  O287  1  0.62142209  0.37520696  0.36709200  1
  O  O288  1  0.61740723  0.37279704  0.86312930  1
  O  O289  1  0.61525150  0.88367738  0.36566363  1
  O  O290  1  0.61303326  0.86264901  0.87875630  1
  O  O291  1  0.38562506  0.12068454  0.12385260  1
  O  O292  1  0.38085099  0.13044966  0.62862578  1
  O  O293  1  0.38736545  0.63128268  0.12415459  1
  O  O294  1  0.37954872  0.63218337  0.62789452  1
  O  O295  1  0.88625650  0.12022902  0.13155868  1
  O  O296  1  0.87533566  0.13633901  0.62252499  1
  O  O297  1  0.87899521  0.63062472  0.13315431  1
  O  O298  1  0.88581141  0.63041071  0.62706212  1
  O  O299  1  0.24753000  0.24165560  0.10358324  1
  O  O300  1  0.25563605  0.25985641  0.61981505  1
  O  O301  1  0.24836014  0.74752983  0.12141561  1
  O  O302  1  0.25350257  0.76343497  0.62785675  1
  O  O303  1  0.75352637  0.25751601  0.11722719  1
  O  O304  1  0.75684755  0.25682152  0.62092558  1
  O  O305  1  0.76112705  0.75696563  0.12777975  1
  O  O306  1  0.74530921  0.75992799  0.61734836  1
  O  O307  1  0.24446647  0.24914366  0.39030739  1
  O  O308  1  0.24238512  0.24192661  0.87922013  1
  O  O309  1  0.24151749  0.74135383  0.37785330  1
  O  O310  1  0.24330606  0.74332286  0.87474609  1
  O  O311  1  0.75220301  0.24545484  0.38231863  1
  O  O312  1  0.75055694  0.23999589  0.87949600  1
  O  O313  1  0.74877835  0.74268208  0.38203232  1
  O  O314  1  0.74051595  0.76164032  0.87559229  1
  O  O315  1  0.00936300  0.11837628  0.00145784  1
  O  O316  1  0.01141711  0.12122246  0.50757374  1
  O  O317  1  -0.00106926  0.61454654  0.00989121  1
  O  O318  1  0.00583106  0.62429675  0.51375081  1
  O  O319  1  0.49859727  0.11770374  0.01119231  1
  O  O320  1  0.50755178  0.12023525  0.50537574  1
  O  O321  1  0.50569994  0.62855035  0.00738563  1
  O  O322  1  0.50569296  0.62376734  0.50643129  1
  O  O323  1  0.49626521  0.37904500  0.49947971  1
  O  O324  1  0.50206535  0.37359010  0.98918766  1
  O  O325  1  0.49378617  0.88021704  0.49362901  1
  O  O326  1  0.49391897  0.88171580  0.99163567  1
  O  O327  1  0.99586944  0.37739461  0.48668623  1
  O  O328  1  0.99216087  0.37835535  0.99113685  1
  O  O329  1  0.99185553  0.87295930  0.49421043  1
  O  O330  1  0.99262840  0.88003778  0.98724764  1
  O  O331  1  0.49947754  0.49223074  0.38533734  1
  O  O332  1  0.49957027  0.48922951  0.87302111  1
  O  O333  1  0.49394029  0.99074204  0.37762820  1
  O  O334  1  0.50969186  0.98782456  0.88202992  1
  O  O335  1  0.97839826  0.50400619  0.37748266  1
  O  O336  1  1.00389407  0.49155161  0.88137620  1
  O  O337  1  0.99732218  0.99050916  0.37776731  1
  O  O338  1  0.99524667  0.99635346  0.87516313  1
  O  O339  1  0.00765507  0.00712340  0.11683760  1
  O  O340  1  0.01617062  -0.00262508  0.62369928  1
  O  O341  1  -0.00248565  0.50643033  0.11986278  1
  O  O342  1  -0.00445957  0.51542156  0.62806111  1
  O  O343  1  0.50724305  0.01156579  0.12051478  1
  O  O344  1  0.50771673  0.00209688  0.61775119  1
  O  O345  1  0.50307989  0.51142081  0.12596038  1
  O  O346  1  0.50585641  0.51014499  0.62055804  1
  O  O347  1  0.25392640  0.38226225  0.25896120  1
  O  O348  1  0.25410013  0.38727282  0.74299410  1
  O  O349  1  0.24878714  0.89034575  0.25449119  1
  O  O350  1  0.25449658  0.87415101  0.74113148  1
  O  O351  1  0.74653553  0.37833578  0.24092604  1
  O  O352  1  0.74389411  0.38329243  0.74504801  1
  O  O353  1  0.74388920  0.87955531  0.24424179  1
  O  O354  1  0.75337218  0.88696969  0.73593317  1
  O  O355  1  0.24821000  0.10350381  0.24974748  1
  O  O356  1  0.26129219  0.13221875  0.75548518  1
  O  O357  1  0.24988564  0.62591336  0.26974886  1
  O  O358  1  0.25432398  0.61595946  0.75663288  1
  O  O359  1  0.75504989  0.11622210  0.25536153  1
  O  O360  1  0.74978301  0.11395471  0.75514804  1
  O  O361  1  0.75059866  0.62611275  0.25691034  1
  O  O362  1  0.75106154  0.61064745  0.74671287  1
  O  O363  1  0.38305822  0.11102231  0.38215207  1
  O  O364  1  0.36817150  0.12761035  0.86266464  1
  O  O365  1  0.35873838  0.62968386  0.38733375  1
  O  O366  1  0.36821448  0.62808963  0.86622755  1
  O  O367  1  0.87443327  0.11898509  0.36883469  1
  O  O368  1  0.86746502  0.11272812  0.87855086  1
  O  O369  1  0.86481402  0.62445515  0.36972761  1
  O  O370  1  0.86052590  0.64216173  0.88470676  1
  O  O371  1  0.13869886  0.37042683  0.11643927  1
  O  O372  1  0.13318534  0.36943631  0.62030066  1
  O  O373  1  0.11441511  0.88597130  0.12297505  1
  O  O374  1  0.13750034  0.88258896  0.62304007  1
  O  O375  1  0.63522359  0.37632481  0.12999053  1
  O  O376  1  0.63251166  0.37905028  0.63665998  1
  O  O377  1  0.62956023  0.88259147  0.13097762  1
  O  O378  1  0.63470242  0.88448318  0.61684304  1
  O  O379  1  0.13371512  0.23678870  0.26448239  1
  O  O380  1  0.11864194  0.24694846  0.76048613  1
  O  O381  1  0.11960934  0.75166150  0.26634873  1
  O  O382  1  0.11384675  0.74539721  0.76141513  1
  O  O383  1  0.62264866  0.26174188  0.24974587  1
  O  O384  1  0.61975160  0.25838101  0.74961565  1
  O  O385  1  0.61838816  0.76490126  0.24777290  1
  O  O386  1  0.62748770  0.74779939  0.76398824  1
  O  O387  1  0.38950440  0.24488432  0.26165997  1
  O  O388  1  0.38243303  0.24504035  0.74167628  1
  O  O389  1  0.38510005  0.74700526  0.25091571  1
  O  O390  1  0.36957998  0.73669380  0.73776146  1
  O  O391  1  0.86438488  0.22865588  0.24348350  1
  O  O392  1  0.88256199  0.25281769  0.74072721  1
  O  O393  1  0.87406238  0.74162689  0.24310918  1
  O  O394  1  0.88911317  0.74793255  0.75539084  1
  O  O395  1  0.38162561  0.49181980  0.50181585  1
  O  O396  1  0.38031375  0.49459993  0.99307046  1
  O  O397  1  0.37985356  0.99278606  0.49461992  1
  O  O398  1  0.39003179  0.99010458  1.00130918  1
  O  O399  1  0.87327868  0.51424489  0.49198518  1
  O  O400  1  0.88682172  0.49008928  1.00168473  1
  O  O401  1  0.87792154  0.99100630  0.49290170  1
  O  O402  1  0.88269222  0.99576586  0.99146061  1
  O  O403  1  0.12367432  0.00795524  0.00378007  1
  O  O404  1  0.12761533  0.00726786  0.50730128  1
  O  O405  1  0.11124871  0.50264060  0.00389776  1
  O  O406  1  0.11864972  0.51452210  0.49518495  1
  O  O407  1  0.61265536  -0.00685149  0.00916901  1
  O  O408  1  0.62232578  0.00763924  0.50801456  1
  O  O409  1  0.62103246  0.51662570  -0.00057502  1
  O  O410  1  0.62216579  0.51230176  0.50721626  1
  O  O411  1  0.36846496  0.36915842  0.12638282  1
  O  O412  1  0.37384742  0.37041591  0.61692869  1
  O  O413  1  0.38408015  0.87474056  0.10883155  1
  O  O414  1  0.36400997  0.86997795  0.62057493  1
  O  O415  1  0.86388240  0.37511831  0.11475755  1
  O  O416  1  0.86304194  0.36797577  0.62910505  1
  O  O417  1  0.87189647  0.86771153  0.11869654  1
  O  O418  1  0.86653062  0.88052242  0.61203926  1
  O  O419  1  0.12575887  0.12965194  0.38794786  1
  O  O420  1  0.13206916  0.13064259  0.88040512  1
  O  O421  1  0.13078087  0.63183022  0.38786832  1
  O  O422  1  0.13229463  0.63271453  0.87573009  1
  O  O423  1  0.63251499  0.12388085  0.38104174  1
  O  O424  1  0.63925416  0.12317080  0.87078417  1
  O  O425  1  0.62958800  0.62284838  0.38431264  1
  O  O426  1  0.62049155  0.64111480  0.88122710  1
