# generated using pymatgen
data_V85Zn86O256
_symmetry_space_group_name_H-M   'P 1'
_cell_length_a   16.95813618
_cell_length_b   16.94273350
_cell_length_c   16.93721727
_cell_angle_alpha   89.96626227
_cell_angle_beta   90.02212661
_cell_angle_gamma   89.95730285
_symmetry_Int_Tables_number   1
_chemical_formula_structural   V85Zn86O256
_chemical_formula_sum   'V85 Zn86 O256'
_cell_volume   4866.35097655
_cell_formula_units_Z   1
loop_
 _symmetry_equiv_pos_site_id
 _symmetry_equiv_pos_as_xyz
  1  'x, y, z'
loop_
 _atom_site_type_symbol
 _atom_site_label
 _atom_site_symmetry_multiplicity
 _atom_site_fract_x
 _atom_site_fract_y
 _atom_site_fract_z
 _atom_site_occupancy
  V  V0  1  0.87853332  0.25219660  0.63243276  1
  V  V1  1  0.37183410  0.12508838  0.75310592  1
  V  V2  1  -0.00254842  0.63357293  0.12119553  1
  V  V3  1  0.49401636  0.62080167  0.62286436  1
  V  V4  1  0.58429480  0.18505907  0.44289793  1
  V  V5  1  0.76101987  0.00161688  0.75143879  1
  V  V6  1  0.74528222  0.49990098  0.24956985  1
  V  V7  1  0.87667823  0.62620562  0.24696716  1
  V  V8  1  0.13012247  -0.01294013  0.62249863  1
  V  V9  1  0.12917173  0.11970108  0.00313041  1
  V  V10  1  0.25543716  0.62899642  0.36378507  1
  V  V11  1  0.00336583  0.11110860  0.12611680  1
  V  V12  1  0.12540735  0.12305715  0.50235488  1
  V  V13  1  0.12142436  0.37163925  0.75203625  1
  V  V14  1  0.49747911  0.86518548  0.37640917  1
  V  V15  1  0.50393647  0.75074614  0.22986815  1
  V  V16  1  0.26007368  0.50407100  0.76064995  1
  V  V17  1  0.12631931  0.87220850  0.76751510  1
  V  V18  1  0.24699519  0.75820782  0.50573404  1
  V  V19  1  0.24945825  0.37849110  0.62650802  1
  V  V20  1  0.87317395  -0.00560868  0.37662575  1
  V  V21  1  0.50177275  0.12861069  0.12614869  1
  V  V22  1  0.75325899  0.87603399  0.62672518  1
  V  V23  1  0.12352400  0.50453838  0.62983735  1
  V  V24  1  0.62745164  0.73568753  0.87818319  1
  V  V25  1  0.62489873  0.25452442  0.87485557  1
  V  V26  1  0.00240102  0.75623947  0.76789470  1
  V  V27  1  0.62616137  0.49918917  0.61946213  1
  V  V28  1  0.75096609  0.49951786  0.74508656  1
  V  V29  1  0.62198808  0.60311824  0.02439743  1
  V  V30  1  0.75754970  0.12499549  0.87427669  1
  V  V31  1  -0.01147031  -0.00460665  -0.02263966  1
  V  V32  1  0.87866279  0.25350615  0.12646687  1
  V  V33  1  0.63705301  -0.00026325  0.12175558  1
  V  V34  1  -0.00541601  -0.00461792  0.50270626  1
  V  V35  1  0.87526963  0.49729182  0.87361340  1
  V  V36  1  0.50698129  0.12751332  0.62575034  1
  V  V37  1  0.75384092  0.12642786  0.37964333  1
  V  V38  1  0.24687592  0.25326041  0.50027114  1
  V  V39  1  0.37253200  0.87680382  0.00719135  1
  V  V40  1  0.25627229  0.24952821  -0.00173728  1
  V  V41  1  0.12856245  0.24277892  0.87303405  1
  V  V42  1  0.50400792  -0.00143779  -0.00157942  1
  V  V43  1  0.62893003  0.37623443  0.74747862  1
  V  V44  1  0.75388814  0.25263753  0.50209020  1
  V  V45  1  0.80328320  0.81667173  0.04356074  1
  V  V46  1  0.12175686  0.63398166  -0.01359261  1
  V  V47  1  0.62674386  0.75159987  0.37523935  1
  V  V48  1  0.63401864  0.87811671  0.24998469  1
  V  V49  1  0.24780653  -0.01230103  0.23607973  1
  V  V50  1  0.62682076  0.00143711  0.62405827  1
  V  V51  1  0.00011764  0.36681040  0.87495025  1
  V  V52  1  0.37140855  0.12523666  0.24722014  1
  V  V53  1  0.26522260  0.63437388  0.87521717  1
  V  V54  1  0.62612094  0.12677663  -0.00172094  1
  V  V55  1  -0.00317197  0.87505835  0.37350083  1
  V  V56  1  0.73969535  0.37618878  0.12901972  1
  V  V57  1  0.00193470  0.38025841  0.37566076  1
  V  V58  1  0.12396233  0.25072237  0.37564812  1
  V  V59  1  0.37386815  0.39455670  0.49164348  1
  V  V60  1  0.12102125  0.75400046  0.36971737  1
  V  V61  1  0.37363544  0.25265283  0.62488404  1
  V  V62  1  0.50034136  0.25243901  0.75092308  1
  V  V63  1  0.87490606  0.62926290  0.75225537  1
  V  V64  1  0.87455221  0.37881237  0.50585168  1
  V  V65  1  0.12410827  0.62810697  0.50104373  1
  V  V66  1  0.00297707  0.25072842  0.24852321  1
  V  V67  1  0.87793380  0.75814322  0.62740718  1
  V  V68  1  0.25606212  0.38082654  0.12255683  1
  V  V69  1  0.75463944  0.75394700  0.50207830  1
  V  V70  1  0.37278049  -0.00000002  0.87526429  1
  V  V71  1  0.49693499  0.74616255  0.74901579  1
  V  V72  1  0.62721335  0.87336719  0.75413299  1
  V  V73  1  0.00320611  0.49732162  0.00095706  1
  V  V74  1  0.62020412  0.62639627  0.49900863  1
  V  V75  1  0.37223105  0.87539339  0.50901570  1
  V  V76  1  0.50411613  -0.00028719  0.49889920  1
  V  V77  1  0.24593416  0.12127510  0.37290865  1
  V  V78  1  0.36921614  0.74200065  0.11870302  1
  V  V79  1  0.48665212  0.38711890  0.88358287  1
  V  V80  1  0.37223182  -0.00582695  0.37429461  1
  V  V81  1  0.25273216  -0.00345027  0.74532038  1
  V  V82  1  0.75161238  0.25303159  0.00150646  1
  V  V83  1  0.00222241  0.12776478  0.63190478  1
  V  V84  1  0.36948238  0.74873449  0.62856423  1
  Zn  Zn85  1  0.50763393  0.40172159  0.38082375  1
  Zn  Zn86  1  0.50291592  0.87205020  0.87660694  1
  Zn  Zn87  1  0.23515057  0.76533335  -0.00471362  1
  Zn  Zn88  1  0.75010466  0.62234315  0.88413806  1
  Zn  Zn89  1  0.37550183  0.25020230  0.12131640  1
  Zn  Zn90  1  0.25487840  0.50943264  0.25064581  1
  Zn  Zn91  1  0.00229016  0.63152250  0.62913072  1
  Zn  Zn92  1  0.87413966  0.37774799  0.00235686  1
  Zn  Zn93  1  0.75592093  0.62560801  0.37687729  1
  Zn  Zn94  1  -0.00051625  0.50474107  0.50185009  1
  Zn  Zn95  1  0.88434433  0.12648631  0.75630841  1
  Zn  Zn96  1  0.43354138  0.57764972  0.19478090  1
  Zn  Zn97  1  0.10986553  0.88917308  0.22579842  1
  Zn  Zn98  1  0.87828729  0.50315288  0.37706521  1
  Zn  Zn99  1  0.50598660  0.24523813  0.26578788  1
  Zn  Zn100  1  0.48522162  0.49608924  0.02838628  1
  Zn  Zn101  1  0.12739028  0.38268084  0.24707575  1
  Zn  Zn102  1  0.12784038  0.50550940  0.12672555  1
  Zn  Zn103  1  -0.01085066  0.75704644  0.23841092  1
  Zn  Zn104  1  0.87681866  0.12290126  0.25157827  1
  Zn  Zn105  1  0.75258251  0.00198609  0.25002028  1
  Zn  Zn106  1  0.62302813  0.36200419  0.26939113  1
  Zn  Zn107  1  0.18715937  0.18836837  0.18413335  1
  Zn  Zn108  1  0.18765303  0.18499581  0.68879210  1
  Zn  Zn109  1  0.16693277  0.71928823  0.16750047  1
  Zn  Zn110  1  0.18818694  0.69013103  0.69431824  1
  Zn  Zn111  1  0.68881708  0.18899300  0.19271644  1
  Zn  Zn112  1  0.69133238  0.18976914  0.68538632  1
  Zn  Zn113  1  0.69687352  0.69220105  0.18199713  1
  Zn  Zn114  1  0.68782408  0.68606271  0.68934592  1
  Zn  Zn115  1  0.31171019  0.31371967  0.30903163  1
  Zn  Zn116  1  0.30807428  0.31224498  0.81285700  1
  Zn  Zn117  1  0.31652124  0.80249579  0.31089953  1
  Zn  Zn118  1  0.31386497  0.81664515  0.81517545  1
  Zn  Zn119  1  0.81524107  0.31338461  0.31640671  1
  Zn  Zn120  1  0.81110527  0.31353087  0.81146693  1
  Zn  Zn121  1  0.81463281  0.81107425  0.31219617  1
  Zn  Zn122  1  0.81681033  0.81288009  0.82979063  1
  Zn  Zn123  1  0.18811788  0.44455520  0.43601402  1
  Zn  Zn124  1  0.19070338  0.43733289  0.93977975  1
  Zn  Zn125  1  0.18483587  0.93540582  0.43205359  1
  Zn  Zn126  1  0.19217996  0.94697539  0.93990156  1
  Zn  Zn127  1  0.69110362  0.43867259  0.43503820  1
  Zn  Zn128  1  0.68446477  0.44015004  0.93831514  1
  Zn  Zn129  1  0.68876602  0.93660782  0.44000834  1
  Zn  Zn130  1  0.72012925  0.92343741  0.92875645  1
  Zn  Zn131  1  0.31245591  0.06367637  0.06140911  1
  Zn  Zn132  1  0.31302794  0.06271551  0.56473521  1
  Zn  Zn133  1  0.31465532  0.55428104  0.04587265  1
  Zn  Zn134  1  0.30363881  0.56975381  0.56663073  1
  Zn  Zn135  1  0.81736215  0.06677317  0.06191466  1
  Zn  Zn136  1  0.81437049  0.06681219  0.56203397  1
  Zn  Zn137  1  0.81117259  0.56660966  0.06253712  1
  Zn  Zn138  1  0.81206216  0.56689810  0.56570783  1
  Zn  Zn139  1  0.43329467  0.42332107  0.20306481  1
  Zn  Zn140  1  0.43934167  0.43771536  0.68736965  1
  Zn  Zn141  1  0.44222949  0.93767051  0.18580959  1
  Zn  Zn142  1  0.44204108  0.93617762  0.68823278  1
  Zn  Zn143  1  0.93674964  0.44189348  0.18805217  1
  Zn  Zn144  1  0.94063168  0.43762197  0.68789623  1
  Zn  Zn145  1  0.92212866  0.93130889  0.18017124  1
  Zn  Zn146  1  0.94316590  0.93690209  0.69212289  1
  Zn  Zn147  1  0.06381850  0.06052085  0.31008171  1
  Zn  Zn148  1  0.06743005  0.06053369  0.81249690  1
  Zn  Zn149  1  0.06741517  0.56499785  0.30863436  1
  Zn  Zn150  1  0.06028467  0.56095004  0.81279240  1
  Zn  Zn151  1  0.55964001  0.05742441  0.30859677  1
  Zn  Zn152  1  0.56645068  0.06277691  0.81291478  1
  Zn  Zn153  1  0.57232785  0.56715022  0.30716756  1
  Zn  Zn154  1  0.55606904  0.56183398  0.80473218  1
  Zn  Zn155  1  0.41644468  0.18271781  0.44303658  1
  Zn  Zn156  1  0.43973384  0.18824312  0.93421837  1
  Zn  Zn157  1  0.43043330  0.57833770  0.42697331  1
  Zn  Zn158  1  0.44637393  0.68145321  0.94457629  1
  Zn  Zn159  1  0.93788624  0.18644403  0.44056909  1
  Zn  Zn160  1  0.94047433  0.18644687  0.94284972  1
  Zn  Zn161  1  0.93596522  0.68806298  0.43962422  1
  Zn  Zn162  1  0.93133392  0.68968575  0.94164295  1
  Zn  Zn163  1  0.06987171  0.31238531  0.06272535  1
  Zn  Zn164  1  0.06015271  0.31436376  0.56375934  1
  Zn  Zn165  1  0.05590740  0.81856121  0.05579862  1
  Zn  Zn166  1  0.05791603  0.81332191  0.56452843  1
  Zn  Zn167  1  0.56099035  0.31494968  0.06420881  1
  Zn  Zn168  1  0.55736596  0.32365992  0.56096624  1
  Zn  Zn169  1  0.60181094  0.82306170  0.05208861  1
  Zn  Zn170  1  0.56220555  0.81147354  0.56490885  1
  O  O171  1  0.11480192  0.12997228  0.11482342  1
  O  O172  1  0.12005407  0.11646245  0.62044470  1
  O  O173  1  0.11694000  0.62665796  0.10801755  1
  O  O174  1  0.12577700  0.62079339  0.62190592  1
  O  O175  1  0.61895273  0.11920916  0.12019705  1
  O  O176  1  0.61357645  0.12035834  0.63218412  1
  O  O177  1  0.62720430  0.62239256  0.12197770  1
  O  O178  1  0.61730756  0.62083964  0.61990574  1
  O  O179  1  0.36567258  0.37398259  0.39238610  1
  O  O180  1  0.38993967  0.36849552  0.86735801  1
  O  O181  1  0.38102590  0.87410973  0.38482124  1
  O  O182  1  0.38312425  0.88383874  0.88285552  1
  O  O183  1  0.88892588  0.37619144  0.38414426  1
  O  O184  1  0.88392268  0.37825324  0.87485803  1
  O  O185  1  0.87999890  0.88596947  0.37502130  1
  O  O186  1  0.81833754  0.86219229  0.92979730  1
  O  O187  1  0.25598371  0.00519716  0.37127172  1
  O  O188  1  0.26653846  0.00180281  0.86583414  1
  O  O189  1  0.24412911  0.52462985  0.37631365  1
  O  O190  1  0.24650890  0.50836711  0.86529984  1
  O  O191  1  0.75910563  0.00581423  0.38025622  1
  O  O192  1  0.74136022  0.01409474  0.86316265  1
  O  O193  1  0.75731184  0.50287304  0.36282904  1
  O  O194  1  0.75651291  0.49784642  0.86309956  1
  O  O195  1  0.24915589  0.48960462  0.11760909  1
  O  O196  1  0.23937796  0.50031213  0.63682056  1
  O  O197  1  0.25530372  0.99729000  0.13721485  1
  O  O198  1  0.24223195  1.00138336  0.63163262  1
  O  O199  1  0.76162583  0.48761520  0.13933339  1
  O  O200  1  0.74281381  0.50442471  0.63732644  1
  O  O201  1  0.73989940  1.01159309  0.12757417  1
  O  O202  1  0.74603376  0.99773162  0.63083079  1
  O  O203  1  0.00293324  0.36913767  0.25818950  1
  O  O204  1  0.01344480  0.37867228  0.75859275  1
  O  O205  1  -0.00533747  0.87443403  0.25605725  1
  O  O206  1  0.01608180  0.87192295  0.75241339  1
  O  O207  1  0.49734522  0.36029594  0.27094884  1
  O  O208  1  0.50940935  0.36909719  0.75309982  1
  O  O209  1  0.50491639  0.86828115  0.25877545  1
  O  O210  1  0.51027202  0.86601213  0.75013062  1
  O  O211  1  0.49023350  0.12280166  0.24216458  1
  O  O212  1  0.49533734  0.13140792  0.74318909  1
  O  O213  1  0.50649195  0.64885333  0.25214083  1
  O  O214  1  0.49932258  0.63793054  0.73848474  1
  O  O215  1  1.00103246  0.13261802  0.24355523  1
  O  O216  1  1.00208581  0.11950664  0.73629991  1
  O  O217  1  0.99407237  0.62551115  0.23806863  1
  O  O218  1  0.99317150  0.63521228  0.75131128  1
  O  O219  1  0.35976703  0.23916959  -0.00260261  1
  O  O220  1  0.36272141  0.25633732  0.50947465  1
  O  O221  1  0.38621388  0.76018915  0.00898602  1
  O  O222  1  0.36380143  0.76092595  0.51453375  1
  O  O223  1  0.86998776  0.25283777  0.00985023  1
  O  O224  1  0.87191805  0.25666031  0.50874208  1
  O  O225  1  0.85299440  0.73288627  0.00625189  1
  O  O226  1  0.86697826  0.74562682  0.51493061  1
  O  O227  1  0.12916013  0.24510993  0.49657795  1
  O  O228  1  0.13165796  0.24028534  0.99186874  1
  O  O229  1  0.12856872  0.74896875  0.49580416  1
  O  O230  1  0.12012587  0.73734935  0.99169559  1
  O  O231  1  0.63344820  0.25070577  0.50923496  1
  O  O232  1  0.63162919  0.24592892  0.99574168  1
  O  O233  1  0.63120101  0.74500186  0.49752542  1
  O  O234  1  0.61775122  0.73425095  0.98091705  1
  O  O235  1  0.49631994  0.23613491  0.12020473  1
  O  O236  1  0.49416895  0.24569787  0.62959000  1
  O  O237  1  0.50496951  0.75722278  0.13023092  1
  O  O238  1  0.49241620  0.74281078  0.62956533  1
  O  O239  1  0.99656961  0.24679443  0.13213329  1
  O  O240  1  0.99311746  0.23885699  0.61917553  1
  O  O241  1  0.99329986  0.73644955  0.11803989  1
  O  O242  1  0.99145044  0.75266909  0.63700784  1
  O  O243  1  0.00505219  0.25528954  0.36946422  1
  O  O244  1  0.00742793  0.26096090  0.88073195  1
  O  O245  1  0.00160928  0.76591002  0.38253148  1
  O  O246  1  -0.00849871  0.75274754  0.86689678  1
  O  O247  1  0.50719748  0.23000852  0.38958326  1
  O  O248  1  0.50765527  0.25632705  0.86823127  1
  O  O249  1  0.50860761  0.76220549  0.37024551  1
  O  O250  1  0.50836225  0.74935442  0.86442750  1
  O  O251  1  0.24507848  0.13071304  0.49526918  1
  O  O252  1  0.23878681  0.13154439  1.00554598  1
  O  O253  1  0.23762993  0.63978957  0.49747125  1
  O  O254  1  0.23747559  0.62648373  0.98618042  1
  O  O255  1  0.75062700  0.13310726  0.48996680  1
  O  O256  1  0.74561596  0.13204942  0.99250740  1
  O  O257  1  0.74111579  0.63872470  0.50488215  1
  O  O258  1  0.72895376  0.60971845  0.99686338  1
  O  O259  1  0.24505838  0.36437007  0.01062162  1
  O  O260  1  0.25528363  0.37551558  0.50690854  1
  O  O261  1  0.26470723  0.87702581  -0.00689840  1
  O  O262  1  0.25595582  0.86640377  0.49575667  1
  O  O263  1  0.75165750  0.37076883  0.00972118  1
  O  O264  1  0.76714738  0.36825216  0.49698242  1
  O  O265  1  0.70582795  0.87298991  0.02650086  1
  O  O266  1  0.74490491  0.86225896  0.51092374  1
  O  O267  1  0.13594919  0.50093065  0.24508005  1
  O  O268  1  0.13136789  0.49363476  0.74602022  1
  O  O269  1  0.14102357  0.99749778  0.25195198  1
  O  O270  1  0.13400911  0.99211219  0.74428362  1
  O  O271  1  0.64358451  0.49490221  0.25141447  1
  O  O272  1  0.63257819  0.49575225  0.74160898  1
  O  O273  1  0.62946701  0.99575730  0.24268956  1
  O  O274  1  0.63075683  0.99131942  0.74382181  1
  O  O275  1  0.36858436  0.00647966  0.25354925  1
  O  O276  1  0.37153579  0.00320250  0.75338768  1
  O  O277  1  0.36654878  0.50584560  0.25055003  1
  O  O278  1  0.35750937  0.49730341  0.74466886  1
  O  O279  1  0.87101060  0.00171446  0.25974038  1
  O  O280  1  0.86427732  0.00288894  0.74623976  1
  O  O281  1  0.87010779  0.50973341  0.25480866  1
  O  O282  1  0.86971003  0.50693556  0.75100549  1
  O  O283  1  0.11705952  0.36989841  0.37708778  1
  O  O284  1  0.11963968  0.36757670  0.86973950  1
  O  O285  1  0.11362417  0.86992468  0.36922074  1
  O  O286  1  0.13041374  0.88063187  0.86549095  1
  O  O287  1  0.61905102  0.37275442  0.38576668  1
  O  O288  1  0.61910637  0.37042815  0.86610963  1
  O  O289  1  0.61723588  0.87320741  0.36907966  1
  O  O290  1  0.62653137  0.86323653  0.86313696  1
  O  O291  1  0.38223917  0.12494691  0.13222950  1
  O  O292  1  0.38688260  0.12900496  0.63194618  1
  O  O293  1  0.37680117  0.63920367  0.11296330  1
  O  O294  1  0.38313179  0.63544923  0.61850999  1
  O  O295  1  0.88426310  0.13805852  0.12862171  1
  O  O296  1  0.88598383  0.13260492  0.62647004  1
  O  O297  1  0.88582706  0.61511069  0.13385738  1
  O  O298  1  0.87677942  0.63673257  0.63842626  1
  O  O299  1  0.25043070  0.25652039  0.11526913  1
  O  O300  1  0.25328338  0.25739665  0.62124801  1
  O  O301  1  0.26811848  0.74748853  0.11296522  1
  O  O302  1  0.25675652  0.74653752  0.61953175  1
  O  O303  1  0.76100470  0.25430254  0.12298261  1
  O  O304  1  0.76213824  0.24284088  0.61134166  1
  O  O305  1  0.74896319  0.76390365  0.11590867  1
  O  O306  1  0.75749153  0.75598428  0.62395318  1
  O  O307  1  0.24321302  0.24292476  0.37955321  1
  O  O308  1  0.23939323  0.25509150  0.88367306  1
  O  O309  1  0.23784069  0.75029507  0.38294096  1
  O  O310  1  0.25210712  0.73879455  0.87522212  1
  O  O311  1  0.75970317  0.24141609  0.39023405  1
  O  O312  1  0.74307266  0.24699087  0.88004758  1
  O  O313  1  0.74558530  0.75197603  0.38648360  1
  O  O314  1  0.72924651  0.73878942  0.85972308  1
  O  O315  1  0.00816012  0.11808222  0.00791321  1
  O  O316  1  0.00711696  0.11483688  0.50743077  1
  O  O317  1  0.00663135  0.61810236  -0.00038903  1
  O  O318  1  0.01252174  0.62781734  0.50565843  1
  O  O319  1  0.50440397  0.11732459  0.00402502  1
  O  O320  1  0.50831798  0.12489939  0.50439400  1
  O  O321  1  0.52014859  0.61584190  -0.00180929  1
  O  O322  1  0.51339919  0.62788444  0.50822302  1
  O  O323  1  0.47711584  0.37668198  0.49898400  1
  O  O324  1  0.50327794  0.37578588  0.98672732  1
  O  O325  1  0.49203537  0.87772931  0.49507975  1
  O  O326  1  0.50407012  0.89016963  0.99794281  1
  O  O327  1  0.99282684  0.37812204  0.49362405  1
  O  O328  1  1.00088794  0.38110977  0.99297966  1
  O  O329  1  1.00477954  0.88851118  0.49303098  1
  O  O330  1  1.00465238  0.89760081  0.99709956  1
  O  O331  1  0.50216922  0.51480050  0.37524020  1
  O  O332  1  0.50027719  0.48480115  0.86398395  1
  O  O333  1  0.49301988  0.98939233  0.37978827  1
  O  O334  1  0.49316278  1.00102443  0.88099673  1
  O  O335  1  1.00305240  0.49194649  0.37873239  1
  O  O336  1  0.99527643  0.48817448  0.87953024  1
  O  O337  1  0.99481904  0.99304070  0.38074541  1
  O  O338  1  0.99308506  1.00489999  0.87692477  1
  O  O339  1  -0.00446197  0.01049329  0.13016139  1
  O  O340  1  0.00706003  0.00445152  0.61822536  1
  O  O341  1  0.00305501  0.50524438  0.11413978  1
  O  O342  1  0.01361453  0.50496827  0.62678374  1
  O  O343  1  0.50512841  0.01265347  0.11709249  1
  O  O344  1  0.50428382  0.00958056  0.61967936  1
  O  O345  1  0.49442504  0.49696561  0.14016286  1
  O  O346  1  0.50886554  0.51286321  0.63163385  1
  O  O347  1  0.24709379  0.37282509  0.23505433  1
  O  O348  1  0.24136518  0.38682376  0.74835153  1
  O  O349  1  0.25640977  0.88811946  0.25620104  1
  O  O350  1  0.24072740  0.88598744  0.75267899  1
  O  O351  1  0.75401234  0.38336796  0.24708701  1
  O  O352  1  0.73701377  0.38181350  0.75141087  1
  O  O353  1  0.73733248  0.87814586  0.25669518  1
  O  O354  1  0.74605203  0.88271917  0.74856802  1
  O  O355  1  0.25460664  0.11594195  0.25245870  1
  O  O356  1  0.26092281  0.11166894  0.74288568  1
  O  O357  1  0.24263321  0.63971420  0.26401361  1
  O  O358  1  0.24495902  0.61604097  0.76484630  1
  O  O359  1  0.75498201  0.12511540  0.26739093  1
  O  O360  1  0.75104884  0.11817112  0.75654270  1
  O  O361  1  0.75673594  0.61477294  0.24809181  1
  O  O362  1  0.75902326  0.61638408  0.75069175  1
  O  O363  1  0.36628751  0.11404330  0.36741081  1
  O  O364  1  0.38312667  0.11806537  0.85917104  1
  O  O365  1  0.35368301  0.64755220  0.38118618  1
  O  O366  1  0.36361245  0.63216722  0.87753372  1
  O  O367  1  0.87095126  0.11375998  0.37684736  1
  O  O368  1  0.86176855  0.13772906  0.87258565  1
  O  O369  1  0.87532121  0.62270679  0.36860751  1
  O  O370  1  0.87275710  0.61745173  0.86474620  1
  O  O371  1  0.13779922  0.37814541  0.12605918  1
  O  O372  1  0.12938414  0.38219051  0.63253915  1
  O  O373  1  0.13224709  0.82851015  0.13624899  1
  O  O374  1  0.12251230  0.88562483  0.63096679  1
  O  O375  1  0.63872115  0.36586419  0.13267256  1
  O  O376  1  0.61842517  0.38839724  0.63252988  1
  O  O377  1  0.60638276  0.89314963  0.14228081  1
  O  O378  1  0.63150152  0.87819667  0.63680762  1
  O  O379  1  0.11473687  0.25026707  0.25602294  1
  O  O380  1  0.13336418  0.25997282  0.75800904  1
  O  O381  1  0.10909036  0.74164426  0.26801587  1
  O  O382  1  0.11924831  0.76528889  0.74941656  1
  O  O383  1  0.61975511  0.24682625  0.25490983  1
  O  O384  1  0.62279413  0.25915259  0.75214669  1
  O  O385  1  0.61972269  0.76003834  0.25174648  1
  O  O386  1  0.61554085  0.75555666  0.75099382  1
  O  O387  1  0.37606471  0.23318582  0.25272053  1
  O  O388  1  0.37606778  0.24212902  0.74403493  1
  O  O389  1  0.38909408  0.75949465  0.22870883  1
  O  O390  1  0.38212931  0.76266319  0.73701864  1
  O  O391  1  0.88846473  0.24895773  0.24672794  1
  O  O392  1  0.86995806  0.24918599  0.73619396  1
  O  O393  1  0.87388907  0.73365016  0.25341379  1
  O  O394  1  0.87912808  0.74775726  0.75157906  1
  O  O395  1  0.36797881  0.49847531  0.50031234  1
  O  O396  1  0.38519776  0.50420999  0.98010830  1
  O  O397  1  0.38105575  0.99401016  0.49605810  1
  O  O398  1  0.38236194  0.99744604  0.99262874  1
  O  O399  1  0.87828079  0.49448924  0.50321890  1
  O  O400  1  0.88647761  0.49958434  0.99204646  1
  O  O401  1  0.88564238  1.00366099  0.49408131  1
  O  O402  1  0.89063844  1.01237890  0.99712299  1
  O  O403  1  0.11581184  0.01554767  -0.01040104  1
  O  O404  1  0.12097387  0.00320749  0.50657199  1
  O  O405  1  0.11397975  0.50796134  -0.00310954  1
  O  O406  1  0.12656979  0.51154184  0.51132540  1
  O  O407  1  0.61855734  0.01083096  0.00605701  1
  O  O408  1  0.61645864  -0.00840679  0.51190338  1
  O  O409  1  0.61801220  0.50007561  0.00969375  1
  O  O410  1  0.63860188  0.51171637  0.51322167  1
  O  O411  1  0.36006356  0.36631200  0.12659546  1
  O  O412  1  0.36752695  0.37395190  0.61688803  1
  O  O413  1  0.38502881  0.86992584  0.11148723  1
  O  O414  1  0.37965978  0.87228690  0.61403100  1
  O  O415  1  0.87242933  0.36356461  0.12640093  1
  O  O416  1  0.88519816  0.36625851  0.61774108  1
  O  O417  1  0.86509345  0.87280010  0.10257369  1
  O  O418  1  0.87017109  0.86569844  0.63353869  1
  O  O419  1  0.12778409  0.12911578  0.38207918  1
  O  O420  1  0.12061566  0.13765683  0.87983020  1
  O  O421  1  0.12749866  0.63580683  0.38586994  1
  O  O422  1  0.12804395  0.62155279  0.88393988  1
  O  O423  1  0.63285617  0.11628394  0.38044879  1
  O  O424  1  0.63260129  0.13506720  0.87828442  1
  O  O425  1  0.63377486  0.63506669  0.38405275  1
  O  O426  1  0.62402798  0.63151214  0.86486424  1
