# generated using pymatgen
data_V85Zn86O256
_symmetry_space_group_name_H-M   'P 1'
_cell_length_a   16.94261654
_cell_length_b   16.94460716
_cell_length_c   16.95728596
_cell_angle_alpha   90.01153498
_cell_angle_beta   89.93975767
_cell_angle_gamma   90.01923436
_symmetry_Int_Tables_number   1
_chemical_formula_structural   V85Zn86O256
_chemical_formula_sum   'V85 Zn86 O256'
_cell_volume   4868.19602057
_cell_formula_units_Z   1
loop_
 _symmetry_equiv_pos_site_id
 _symmetry_equiv_pos_as_xyz
  1  'x, y, z'
loop_
 _atom_site_type_symbol
 _atom_site_label
 _atom_site_symmetry_multiplicity
 _atom_site_fract_x
 _atom_site_fract_y
 _atom_site_fract_z
 _atom_site_occupancy
  V  V0  1  0.49775687  0.62274551  0.63022200  1
  V  V1  1  0.12497827  0.00642825  0.11974777  1
  V  V2  1  0.48803112  0.74432780  0.25083070  1
  V  V3  1  0.12480870  0.11488473  0.50739060  1
  V  V4  1  0.76125001  0.12623262  0.87535570  1
  V  V5  1  0.00084505  0.49817374  0.50311200  1
  V  V6  1  0.62603447  0.62359404  -0.00058040  1
  V  V7  1  0.75373847  0.51055681  0.24821920  1
  V  V8  1  0.50533818  -0.00675724  -0.00496137  1
  V  V9  1  0.62502912  0.23963248  0.87874765  1
  V  V10  1  0.50306356  0.37320040  0.37513868  1
  V  V11  1  0.49894035  0.75485326  0.75027267  1
  V  V12  1  0.11753456  0.50143050  0.62895714  1
  V  V13  1  0.04703459  0.68093896  0.58053441  1
  V  V14  1  0.50514113  0.37695354  0.87644143  1
  V  V15  1  0.87587140  -0.01704993  0.87813066  1
  V  V16  1  0.37820032  0.37744231  -0.00200894  1
  V  V17  1  0.74944310  0.00419617  0.75255193  1
  V  V18  1  0.25095187  0.11779306  0.87801038  1
  V  V19  1  0.25067188  -0.00083932  0.25164960  1
  V  V20  1  0.36974479  0.11826719  0.75045245  1
  V  V21  1  0.75157514  0.76418312  0.00010844  1
  V  V22  1  0.25588982  0.50275079  0.74938325  1
  V  V23  1  0.74532027  -0.01541095  0.24827540  1
  V  V24  1  0.49981612  0.87773635  0.36778222  1
  V  V25  1  0.25104989  0.37799346  0.62306710  1
  V  V26  1  0.00177171  0.37935700  0.37383277  1
  V  V27  1  0.88107910  0.62631161  0.75024711  1
  V  V28  1  0.75639724  0.37041482  0.12656640  1
  V  V29  1  0.12590693  0.25403652  0.37231891  1
  V  V30  1  0.49450417  0.62210180  0.12499843  1
  V  V31  1  -0.00287995  0.75022346  0.24900488  1
  V  V32  1  0.36784685  0.87043835  0.49250313  1
  V  V33  1  0.87542201  0.36793752  0.00077323  1
  V  V34  1  0.12326943  0.37254802  0.75354746  1
  V  V35  1  0.62558432  0.24846463  0.37530271  1
  V  V36  1  -0.01375720  0.62553270  0.12620657  1
  V  V37  1  0.50062480  0.24656987  0.24725454  1
  V  V38  1  -0.00188417  0.76229877  0.75945152  1
  V  V39  1  0.86864780  0.77097691  0.12549766  1
  V  V40  1  0.62526760  0.62493435  0.49734241  1
  V  V41  1  0.12939810  0.50443609  0.12880193  1
  V  V42  1  0.87365728  0.50059820  0.87588695  1
  V  V43  1  0.25300939  0.12459977  0.37232630  1
  V  V44  1  0.37593614  0.49980072  0.35420337  1
  V  V45  1  0.62349727  0.49908356  0.11801934  1
  V  V46  1  0.62975382  -0.01433849  0.12367177  1
  V  V47  1  0.38047212  0.50234308  0.87320516  1
  V  V48  1  0.87682820  0.00200212  0.37433349  1
  V  V49  1  0.74772492  0.75101867  0.49921410  1
  V  V50  1  -0.00135277  0.49938890  0.00007912  1
  V  V51  1  0.74968242  0.12561040  0.37191314  1
  V  V52  1  0.87716916  0.50454853  0.37060600  1
  V  V53  1  0.12570550  0.24581021  0.87757920  1
  V  V54  1  0.74328098  0.87578360  0.62889650  1
  V  V55  1  0.87194581  0.87778022  0.50076676  1
  V  V56  1  0.12702573  0.37496938  0.25017334  1
  V  V57  1  0.24646715  0.25640741  0.49941269  1
  V  V58  1  0.24722912  0.89026930  0.62531651  1
  V  V59  1  0.12240007  0.87525424  0.25155763  1
  V  V60  1  0.13298925  0.88356274  0.75356754  1
  V  V61  1  0.86721467  0.37189344  0.50941305  1
  V  V62  1  0.86750289  0.74897201  0.62393951  1
  V  V63  1  -0.00942195  0.24938822  0.24595625  1
  V  V64  1  0.12333733  0.62470720  -0.00058427  1
  V  V65  1  0.37681269  0.11978164  0.24769311  1
  V  V66  1  0.37840239  -0.01014722  0.87389593  1
  V  V67  1  0.00209962  0.87881766  0.38099188  1
  V  V68  1  0.36476733  0.74127006  0.62186504  1
  V  V69  1  0.24865058  0.24494713  0.00058262  1
  V  V70  1  0.62870216  0.37475599  0.24816553  1
  V  V71  1  0.49583292  0.49901520  0.49993106  1
  V  V72  1  0.25286906  0.62518498  0.87460976  1
  V  V73  1  0.75000584  0.49656233  0.74196593  1
  V  V74  1  0.49590533  0.12323920  0.62408428  1
  V  V75  1  0.62548030  0.75351100  0.36510224  1
  V  V76  1  0.48914299  -0.00158137  0.49477029  1
  V  V77  1  -0.00364525  -0.01973702  -0.00002954  1
  V  V78  1  -0.00641257  0.13141770  0.11232984  1
  V  V79  1  0.25143017  0.37751655  0.12741895  1
  V  V80  1  0.74854699  0.24320663  0.00448119  1
  V  V81  1  0.51062526  0.12410075  0.11731486  1
  V  V82  1  0.62030308  0.12199848  0.49896406  1
  V  V83  1  0.12298143  0.75419842  0.87788051  1
  V  V84  1  0.49932294  0.24781473  0.74960352  1
  Zn  Zn85  1  0.37356990  0.37557123  0.49754561  1
  Zn  Zn86  1  0.74840052  0.62756348  0.87582843  1
  Zn  Zn87  1  0.63339609  0.36859761  0.74402719  1
  Zn  Zn88  1  0.25428334  0.75369697  0.00136123  1
  Zn  Zn89  1  0.37640895  0.87115625  0.00268166  1
  Zn  Zn90  1  0.37600916  0.24679521  0.12216393  1
  Zn  Zn91  1  0.74529386  0.25579743  0.51017291  1
  Zn  Zn92  1  0.61710684  0.75304992  0.87913863  1
  Zn  Zn93  1  -0.03363940  0.04810384  0.54153118  1
  Zn  Zn94  1  0.37249168  0.75011848  0.12369131  1
  Zn  Zn95  1  0.25349987  0.87252458  0.12402202  1
  Zn  Zn96  1  0.61899322  -0.00270432  0.62848614  1
  Zn  Zn97  1  0.37180096  0.24993563  0.62502809  1
  Zn  Zn98  1  -0.00072897  0.37054148  0.87546112  1
  Zn  Zn99  1  0.87693508  0.22604476  0.64149787  1
  Zn  Zn100  1  -0.00011471  0.22645317  0.74238344  1
  Zn  Zn101  1  0.16909523  0.69223025  0.44287962  1
  Zn  Zn102  1  0.62942812  0.49198950  0.61959097  1
  Zn  Zn103  1  0.87193680  0.12760364  0.24497900  1
  Zn  Zn104  1  0.75778982  0.62989246  0.37234524  1
  Zn  Zn105  1  0.61761304  0.87963304  0.76230270  1
  Zn  Zn106  1  0.27370245  0.63294908  0.35526511  1
  Zn  Zn107  1  0.18360620  0.18763122  0.18398872  1
  Zn  Zn108  1  0.18535559  0.18463138  0.68962904  1
  Zn  Zn109  1  0.19098427  0.68956807  0.18940754  1
  Zn  Zn110  1  0.19171324  0.69071261  0.69660292  1
  Zn  Zn111  1  0.68854029  0.18511003  0.18759182  1
  Zn  Zn112  1  0.68801174  0.18649044  0.68646588  1
  Zn  Zn113  1  0.68599115  0.69071988  0.18386309  1
  Zn  Zn114  1  0.68463697  0.68051002  0.68899979  1
  Zn  Zn115  1  0.31560502  0.31273180  0.30961901  1
  Zn  Zn116  1  0.31264052  0.31115315  0.81227819  1
  Zn  Zn117  1  0.30526615  0.80981607  0.31592026  1
  Zn  Zn118  1  0.31492709  0.80696384  0.80773436  1
  Zn  Zn119  1  0.81305285  0.31609986  0.31849845  1
  Zn  Zn120  1  0.81619915  0.31160921  0.81033099  1
  Zn  Zn121  1  0.81719962  0.81026672  0.31231638  1
  Zn  Zn122  1  0.80566530  0.81347839  0.81269274  1
  Zn  Zn123  1  0.19946636  0.47731321  0.44601770  1
  Zn  Zn124  1  0.18984628  0.43644564  0.93998664  1
  Zn  Zn125  1  0.18919546  0.93450498  0.43515769  1
  Zn  Zn126  1  0.18812581  0.93747584  0.94147338  1
  Zn  Zn127  1  0.68850245  0.44126692  0.43578851  1
  Zn  Zn128  1  0.68972709  0.43473367  0.93448483  1
  Zn  Zn129  1  0.68397090  0.93869505  0.43655093  1
  Zn  Zn130  1  0.68183048  0.93613166  0.93742812  1
  Zn  Zn131  1  0.31813619  0.05886916  0.06214650  1
  Zn  Zn132  1  0.31129844  0.06371122  0.55916465  1
  Zn  Zn133  1  0.31279293  0.56046276  0.05833749  1
  Zn  Zn134  1  0.30782857  0.56904409  0.55040286  1
  Zn  Zn135  1  0.81343935  0.05875291  0.06158766  1
  Zn  Zn136  1  0.80041370  0.06929796  0.56588985  1
  Zn  Zn137  1  0.80808672  0.56190837  0.05955665  1
  Zn  Zn138  1  0.81695417  0.56597625  0.56066397  1
  Zn  Zn139  1  0.44426187  0.43281019  0.18080478  1
  Zn  Zn140  1  0.43958266  0.43517062  0.68854697  1
  Zn  Zn141  1  0.43903353  0.93730622  0.18586036  1
  Zn  Zn142  1  0.43122383  0.93555730  0.68293054  1
  Zn  Zn143  1  0.93844330  0.43904957  0.18702205  1
  Zn  Zn144  1  0.93757166  0.42650768  0.68927769  1
  Zn  Zn145  1  0.93777141  0.94497727  0.19063160  1
  Zn  Zn146  1  0.94621867  1.04621198  0.69973173  1
  Zn  Zn147  1  0.06314104  0.06599472  0.31197207  1
  Zn  Zn148  1  0.06953163  0.05660181  0.83030146  1
  Zn  Zn149  1  0.10219242  0.58525177  0.29840729  1
  Zn  Zn150  1  0.06027151  0.56552077  0.81163623  1
  Zn  Zn151  1  0.56321832  0.05765199  0.30904484  1
  Zn  Zn152  1  0.56411249  0.06338989  0.81415424  1
  Zn  Zn153  1  0.56407023  0.56295921  0.31021376  1
  Zn  Zn154  1  0.56471378  0.56590635  0.81325619  1
  Zn  Zn155  1  0.43242841  0.18910393  0.43594608  1
  Zn  Zn156  1  0.43643473  0.18418924  0.93854073  1
  Zn  Zn157  1  0.43676211  0.68621772  0.43809969  1
  Zn  Zn158  1  0.43841051  0.68471647  0.94027690  1
  Zn  Zn159  1  0.93752749  0.19370726  0.43404217  1
  Zn  Zn160  1  0.93724254  0.18767619  0.93097225  1
  Zn  Zn161  1  0.97406406  0.66431169  0.40935008  1
  Zn  Zn162  1  0.93447977  0.69116890  0.94039521  1
  Zn  Zn163  1  0.06485229  0.31191791  0.06135562  1
  Zn  Zn164  1  0.05967347  0.30937056  0.56435978  1
  Zn  Zn165  1  0.06853916  0.81091554  0.06845808  1
  Zn  Zn166  1  0.03449751  0.87808410  0.59582345  1
  Zn  Zn167  1  0.56486942  0.31180215  0.05984793  1
  Zn  Zn168  1  0.56411502  0.31220207  0.56566490  1
  Zn  Zn169  1  0.56078635  0.81045491  0.06309583  1
  Zn  Zn170  1  0.55874787  0.81100002  0.56082332  1
  O  O171  1  0.11139191  0.11345676  0.12919913  1
  O  O172  1  0.13095951  0.12880890  0.60634343  1
  O  O173  1  0.11632172  0.61784967  0.11575428  1
  O  O174  1  0.11662319  0.62228096  0.63319885  1
  O  O175  1  0.61314522  0.12022996  0.13011520  1
  O  O176  1  0.61408489  0.12177940  0.61436829  1
  O  O177  1  0.62141448  0.61613352  0.11937405  1
  O  O178  1  0.61656722  0.61931217  0.61248086  1
  O  O179  1  0.39156310  0.37840634  0.37152070  1
  O  O180  1  0.38106581  0.38129392  0.87925556  1
  O  O181  1  0.38113807  0.86904762  0.38702162  1
  O  O182  1  0.37034956  0.88789203  0.86917240  1
  O  O183  1  0.88181413  0.38598284  0.38234580  1
  O  O184  1  0.87719250  0.38398841  0.88442261  1
  O  O185  1  0.87851393  0.88511024  0.37890628  1
  O  O186  1  0.87086256  0.88469463  0.87816563  1
  O  O187  1  0.24485697  0.00950073  0.36000292  1
  O  O188  1  0.26008602  0.01220294  0.88380493  1
  O  O189  1  0.27653878  0.47993428  0.36234044  1
  O  O190  1  0.25665152  0.50268616  0.86756511  1
  O  O191  1  0.75211591  0.00640512  0.36672131  1
  O  O192  1  0.75796622  0.00523911  0.87616951  1
  O  O193  1  0.75785578  0.50213843  0.36465264  1
  O  O194  1  0.76191358  0.50293953  0.86928333  1
  O  O195  1  0.24078711  0.49105573  0.11861639  1
  O  O196  1  0.24077318  0.49841779  0.63046072  1
  O  O197  1  0.24078537  1.00596338  0.13472089  1
  O  O198  1  0.25455329  0.98873940  0.62714381  1
  O  O199  1  0.74402157  0.49205897  0.13114486  1
  O  O200  1  0.75205995  0.50732115  0.63928662  1
  O  O201  1  0.73769266  1.00659102  0.13204581  1
  O  O202  1  0.74600108  0.99313202  0.63615053  1
  O  O203  1  0.00498024  0.36757496  0.25144914  1
  O  O204  1  0.01788836  0.38421132  0.75797153  1
  O  O205  1  0.00487248  0.87479674  0.25552270  1
  O  O206  1  0.01484984  0.86183519  0.74834306  1
  O  O207  1  0.50906231  0.36649276  0.25414986  1
  O  O208  1  0.49773797  0.36374660  0.76132700  1
  O  O209  1  0.49540765  0.86795010  0.26346360  1
  O  O210  1  0.49991967  0.85866590  0.73727054  1
  O  O211  1  0.49300550  0.12713175  0.24485988  1
  O  O212  1  0.49341227  0.13089889  0.74520465  1
  O  O213  1  0.50822131  0.63329402  0.23887950  1
  O  O214  1  0.50279645  0.62763244  0.73383588  1
  O  O215  1  0.99805359  0.13427976  0.24141208  1
  O  O216  1  1.01299699  0.11535924  0.75633994  1
  O  O217  1  1.00867247  0.64053616  0.23728595  1
  O  O218  1  0.98708825  0.63372713  0.75099922  1
  O  O219  1  0.36726798  0.26088094  -0.00228594  1
  O  O220  1  0.35968765  0.25415232  0.50023718  1
  O  O221  1  0.37450919  0.75200685  0.00201110  1
  O  O222  1  0.38262644  0.75796762  0.51251073  1
  O  O223  1  0.86849677  0.26215632  -0.00674190  1
  O  O224  1  0.87447045  0.26743295  0.49445802  1
  O  O225  1  0.86286199  0.74693229  0.01354998  1
  O  O226  1  0.86321737  0.75686382  0.50991218  1
  O  O227  1  0.13458905  0.24926593  0.49319975  1
  O  O228  1  0.14010249  0.25658730  0.99302789  1
  O  O229  1  0.10228111  0.74180218  0.52509106  1
  O  O230  1  0.12558942  0.74246413  0.99392475  1
  O  O231  1  0.62147599  0.23717258  0.49376418  1
  O  O232  1  0.63669828  0.25523367  0.99036046  1
  O  O233  1  0.62761878  0.74220073  0.49223365  1
  O  O234  1  0.63831879  0.74347881  1.00612402  1
  O  O235  1  0.50077822  0.24209895  0.12798984  1
  O  O236  1  0.49419865  0.24299648  0.63323727  1
  O  O237  1  0.50139178  0.74049891  0.13534582  1
  O  O238  1  0.49180298  0.74025003  0.62808595  1
  O  O239  1  1.00598593  0.23840851  0.12951273  1
  O  O240  1  0.98861450  0.26475412  0.63411210  1
  O  O241  1  0.98601306  0.74668634  0.12696746  1
  O  O242  1  0.98913260  0.75436911  0.63336858  1
  O  O243  1  0.00664825  0.25862788  0.36481185  1
  O  O244  1  0.01708117  0.25114585  0.87935243  1
  O  O245  1  -0.01750484  0.76642773  0.35488099  1
  O  O246  1  0.00868921  0.74602797  0.87057970  1
  O  O247  1  0.50483627  0.25546890  0.36986396  1
  O  O248  1  0.50709860  0.25196039  0.87021754  1
  O  O249  1  0.50559828  0.75359468  0.36874041  1
  O  O250  1  0.49262034  0.73896362  0.85209744  1
  O  O251  1  0.24370594  0.13356989  0.49099024  1
  O  O252  1  0.26157718  0.13581144  0.99331129  1
  O  O253  1  0.23467795  0.59248514  0.46960500  1
  O  O254  1  0.24212715  0.62120718  0.98744332  1
  O  O255  1  0.73535109  0.12030931  0.48568771  1
  O  O256  1  0.75562110  0.13738587  0.99607270  1
  O  O257  1  0.74113827  0.62988019  0.49731322  1
  O  O258  1  0.73990444  0.63200313  1.00013571  1
  O  O259  1  0.25810502  0.36822836  0.00868414  1
  O  O260  1  0.24862997  0.37449733  0.50724238  1
  O  O261  1  0.25430567  0.87369887  0.00506305  1
  O  O262  1  0.25556497  0.87890075  0.51127420  1
  O  O263  1  0.75646873  0.36650530  0.00675155  1
  O  O264  1  0.76272177  0.37550594  0.49315816  1
  O  O265  1  0.74804807  0.86224723  0.00320653  1
  O  O266  1  0.75220900  0.87236873  0.50611101  1
  O  O267  1  0.11256790  0.48788662  0.23301030  1
  O  O268  1  0.13448864  0.49663021  0.74651152  1
  O  O269  1  0.12989515  0.99535229  0.24276277  1
  O  O270  1  0.13169608  0.98155660  0.76723190  1
  O  O271  1  0.63434667  0.49254606  0.24314975  1
  O  O272  1  0.64317543  0.50445990  0.75177954  1
  O  O273  1  0.63265379  1.00235474  0.23642650  1
  O  O274  1  0.63185067  0.99750023  0.74872018  1
  O  O275  1  0.36693373  0.01193433  0.24610360  1
  O  O276  1  0.38252724  0.01081808  0.75699222  1
  O  O277  1  0.38830985  0.49743535  0.25592489  1
  O  O278  1  0.36269442  0.49321745  0.75670676  1
  O  O279  1  0.86440143  0.00443583  0.25860835  1
  O  O280  1  0.86430245  -0.00200511  0.77073381  1
  O  O281  1  0.86632887  0.49370899  0.25841827  1
  O  O282  1  0.87062879  0.50556907  0.75536940  1
  O  O283  1  0.11974696  0.37413525  0.36568238  1
  O  O284  1  0.12960451  0.36670029  0.86904216  1
  O  O285  1  0.11331596  0.88130978  0.36675030  1
  O  O286  1  0.13563661  0.85960053  0.87009901  1
  O  O287  1  0.61805870  0.37076042  0.37070030  1
  O  O288  1  0.61901866  0.36540774  0.86974411  1
  O  O289  1  0.61236605  0.86421282  0.38384969  1
  O  O290  1  0.62419301  0.86564426  0.87446776  1
  O  O291  1  0.38641358  0.12533972  0.13242539  1
  O  O292  1  0.37682199  0.12689080  0.63253329  1
  O  O293  1  0.39156678  0.61887746  0.11739610  1
  O  O294  1  0.38032872  0.63352314  0.61350728  1
  O  O295  1  0.88966081  0.12142657  0.12706225  1
  O  O296  1  0.89221805  0.11038848  0.61344050  1
  O  O297  1  0.88471008  0.62305739  0.12242826  1
  O  O298  1  0.86765437  0.64051260  0.63435730  1
  O  O299  1  0.25184596  0.25455762  0.11609996  1
  O  O300  1  0.24790007  0.26059272  0.61718598  1
  O  O301  1  0.25292820  0.75042606  0.12210523  1
  O  O302  1  0.26264993  0.74428323  0.62316088  1
  O  O303  1  0.74539751  0.25811121  0.11790891  1
  O  O304  1  0.76322306  0.22951036  0.61830294  1
  O  O305  1  0.76231140  0.74845953  0.11884125  1
  O  O306  1  0.74955255  0.75456330  0.62258571  1
  O  O307  1  0.24563280  0.24782479  0.37980992  1
  O  O308  1  0.24577576  0.24378585  0.88187937  1
  O  O309  1  0.25098937  0.74218040  0.38501685  1
  O  O310  1  0.24505834  0.73869612  0.87344878  1
  O  O311  1  0.74315118  0.24246473  0.37887249  1
  O  O312  1  0.74462537  0.24307695  0.88036684  1
  O  O313  1  0.74312857  0.74928372  0.37898462  1
  O  O314  1  0.75329570  0.74729153  0.89135799  1
  O  O315  1  -0.00298768  0.12491265  0.01119790  1
  O  O316  1  0.01964863  0.12944575  0.48410291  1
  O  O317  1  0.00381014  0.62003720  0.00666979  1
  O  O318  1  -0.01241536  0.61930516  0.52233630  1
  O  O319  1  0.49470133  0.11452163  0.01038314  1
  O  O320  1  0.49933729  0.11794102  0.50076280  1
  O  O321  1  0.51713062  0.63123523  0.00948675  1
  O  O322  1  0.50627535  0.61709152  0.50580215  1
  O  O323  1  0.49924214  0.38002317  0.49083873  1
  O  O324  1  0.49361723  0.36868577  0.98543479  1
  O  O325  1  0.49023086  0.88118897  0.49346527  1
  O  O326  1  0.49973565  0.88907565  1.00437068  1
  O  O327  1  0.99125544  0.38287861  0.49474788  1
  O  O328  1  0.99158991  0.38002643  1.00099085  1
  O  O329  1  0.98925723  0.86984513  0.48644440  1
  O  O330  1  0.99907924  0.88250037  1.00669868  1
  O  O331  1  0.49871460  0.49052942  0.37875011  1
  O  O332  1  0.49228614  0.49054916  0.86520018  1
  O  O333  1  0.50305029  0.99020093  0.38198299  1
  O  O334  1  0.49266918  1.00810736  0.88487648  1
  O  O335  1  0.99319488  0.49343096  0.38640260  1
  O  O336  1  0.98965272  0.50025059  0.88150139  1
  O  O337  1  0.98839995  0.99364606  0.36711354  1
  O  O338  1  0.98861565  0.99806547  0.89182897  1
  O  O339  1  0.00232287  0.00864414  0.11476130  1
  O  O340  1  -0.01162618  -0.02488786  0.62106875  1
  O  O341  1  0.00462565  0.50742507  0.11855512  1
  O  O342  1  0.01050696  0.49394460  0.62336894  1
  O  O343  1  0.51233878  0.00560646  0.12134886  1
  O  O344  1  0.49777259  0.00465810  0.61411726  1
  O  O345  1  0.51611529  0.50436410  0.12697951  1
  O  O346  1  0.49720373  0.50579595  0.61638567  1
  O  O347  1  0.24619589  0.36637038  0.23378603  1
  O  O348  1  0.24204939  0.38095220  0.74443232  1
  O  O349  1  0.24117466  0.88423524  0.25081850  1
  O  O350  1  0.24676597  0.86596726  0.73407900  1
  O  O351  1  0.74698433  0.37927791  0.24268082  1
  O  O352  1  0.75195134  0.39278558  0.75704115  1
  O  O353  1  0.75045620  0.88572614  0.25529914  1
  O  O354  1  0.74466136  0.88376420  0.74379183  1
  O  O355  1  0.25599984  0.12226568  0.25337677  1
  O  O356  1  0.26050763  0.13112999  0.76081498  1
  O  O357  1  0.20953873  0.61239974  0.26508603  1
  O  O358  1  0.24802036  0.61526242  0.76381815  1
  O  O359  1  0.75070206  0.12165555  0.26163686  1
  O  O360  1  0.74355488  0.11153663  0.76095090  1
  O  O361  1  0.74535979  0.61331112  0.24991061  1
  O  O362  1  0.76141104  0.61763766  0.75457449  1
  O  O363  1  0.36085016  0.12978304  0.36648190  1
  O  O364  1  0.36974506  0.11828266  0.86762288  1
  O  O365  1  0.38509302  0.60525038  0.37297828  1
  O  O366  1  0.36867781  0.60938288  0.88144785  1
  O  O367  1  0.86597055  0.12020291  0.37467960  1
  O  O368  1  0.86374570  0.11556788  0.88048977  1
  O  O369  1  0.87650079  0.60977015  0.37974727  1
  O  O370  1  0.87408367  0.61780253  0.86938491  1
  O  O371  1  0.13349063  0.38148718  0.12757729  1
  O  O372  1  0.13446821  0.38358294  0.63280542  1
  O  O373  1  0.12466837  0.89055257  0.13327570  1
  O  O374  1  0.14170404  0.86888372  0.63511023  1
  O  O375  1  0.63438306  0.38136118  0.12638660  1
  O  O376  1  0.62066248  0.37980890  0.63204505  1
  O  O377  1  0.62371230  0.88720929  0.12659930  1
  O  O378  1  0.63434693  0.87531343  0.62252022  1
  O  O379  1  0.11670686  0.25730660  0.25215193  1
  O  O380  1  0.12660139  0.25788640  0.75942719  1
  O  O381  1  0.11122251  0.76899837  0.23776188  1
  O  O382  1  0.11705247  0.75101028  0.76050926  1
  O  O383  1  0.62052724  0.25482642  0.25595468  1
  O  O384  1  0.61410668  0.24682429  0.75706799  1
  O  O385  1  0.61971605  0.74686335  0.26191691  1
  O  O386  1  0.60865549  0.74751769  0.74630958  1
  O  O387  1  0.38237729  0.23838820  0.24649294  1
  O  O388  1  0.38506745  0.24073750  0.75203247  1
  O  O389  1  0.38537021  0.74817246  0.25128911  1
  O  O390  1  0.38449384  0.74907102  0.73154851  1
  O  O391  1  0.88716728  0.25114862  0.25468916  1
  O  O392  1  0.88694039  0.24955758  0.75613955  1
  O  O393  1  0.87931814  0.75214176  0.23323259  1
  O  O394  1  0.87960128  0.74663013  0.74774199  1
  O  O395  1  0.38798397  0.49549251  0.49207117  1
  O  O396  1  0.37165940  0.48507329  0.98913462  1
  O  O397  1  0.38216991  0.99112208  0.50074756  1
  O  O398  1  0.38583857  0.99731004  0.99063559  1
  O  O399  1  0.88250218  0.49387855  0.49587597  1
  O  O400  1  0.87633604  0.49115815  0.99353545  1
  O  O401  1  0.86817452  0.99618199  0.48537613  1
  O  O402  1  0.88513649  0.99908688  0.99278459  1
  O  O403  1  0.10831750  -0.00240062  0.00601624  1
  O  O404  1  0.13071993  0.01544866  0.49528659  1
  O  O405  1  0.11872217  0.50274691  0.00757560  1
  O  O406  1  0.10804318  0.49412968  0.51267528  1
  O  O407  1  0.62102795  0.00136054  0.01392490  1
  O  O408  1  0.61241540  0.01014544  0.49929906  1
  O  O409  1  0.63439881  0.50635400  0.00809194  1
  O  O410  1  0.61457446  0.50684249  0.49690924  1
  O  O411  1  0.37086628  0.37271217  0.11548647  1
  O  O412  1  0.36137884  0.37468866  0.62515270  1
  O  O413  1  0.37276904  0.87198002  0.12490644  1
  O  O414  1  0.36234101  0.86543971  0.61675588  1
  O  O415  1  0.86359700  0.37994199  0.11733534  1
  O  O416  1  0.87015681  0.38331094  0.60882806  1
  O  O417  1  0.87510555  0.86891953  0.12647046  1
  O  O418  1  0.85615675  0.86185632  0.62157144  1
  O  O419  1  0.13766749  0.13435177  0.37587736  1
  O  O420  1  0.14040749  0.13343095  0.87934376  1
  O  O421  1  0.08227136  0.63464382  0.39493295  1
  O  O422  1  0.13117225  0.63077449  0.88033671  1
  O  O423  1  0.62830432  0.12789667  0.37889217  1
  O  O424  1  0.63527655  0.13514621  0.87562657  1
  O  O425  1  0.62500561  0.63202632  0.38492018  1
  O  O426  1  0.62641750  0.63230184  0.88425103  1
