# generated using pymatgen
data_V85Zn86O256
_symmetry_space_group_name_H-M   'P 1'
_cell_length_a   16.95710160
_cell_length_b   16.95127696
_cell_length_c   16.95820903
_cell_angle_alpha   89.96568170
_cell_angle_beta   90.06474956
_cell_angle_gamma   90.00622299
_symmetry_Int_Tables_number   1
_chemical_formula_structural   V85Zn86O256
_chemical_formula_sum   'V85 Zn86 O256'
_cell_volume   4874.54033574
_cell_formula_units_Z   1
loop_
 _symmetry_equiv_pos_site_id
 _symmetry_equiv_pos_as_xyz
  1  'x, y, z'
loop_
 _atom_site_type_symbol
 _atom_site_label
 _atom_site_symmetry_multiplicity
 _atom_site_fract_x
 _atom_site_fract_y
 _atom_site_fract_z
 _atom_site_occupancy
  V  V0  1  0.87757132  -0.00798896  0.87722388  1
  V  V1  1  0.37278000  0.24762996  0.12555481  1
  V  V2  1  0.74570775  0.37871799  0.12739995  1
  V  V3  1  0.24940031  0.87455901  0.13445977  1
  V  V4  1  0.37959154  0.62337566  0.75515686  1
  V  V5  1  0.87353420  0.37609873  0.51351645  1
  V  V6  1  0.87291298  0.50225076  0.37370855  1
  V  V7  1  0.87792529  0.62684799  0.24163431  1
  V  V8  1  0.25463537  0.50047200  0.75329947  1
  V  V9  1  0.87847508  0.76427894  0.11946254  1
  V  V10  1  0.50040102  0.24848883  0.24771559  1
  V  V11  1  0.87961505  0.24907679  0.12710620  1
  V  V12  1  0.87392011  0.37518704  -0.00030461  1
  V  V13  1  0.11912789  0.25067241  0.37908564  1
  V  V14  1  0.37799507  0.75377784  0.62256953  1
  V  V15  1  0.36962942  -0.00448961  0.87114363  1
  V  V16  1  0.63120916  0.89091612  0.24255993  1
  V  V17  1  0.66574581  0.06721157  0.04709819  1
  V  V18  1  0.24638026  0.24870190  0.00035605  1
  V  V19  1  0.49374593  0.50507694  0.00425339  1
  V  V20  1  0.37021145  0.51031436  0.37757859  1
  V  V21  1  0.24732423  0.12369357  0.86497043  1
  V  V22  1  0.12177573  0.50623975  0.62698259  1
  V  V23  1  0.12455619  0.37586722  0.74924557  1
  V  V24  1  0.37673086  0.37675999  0.50425562  1
  V  V25  1  0.74612345  0.12388908  0.87795094  1
  V  V26  1  0.49551982  -0.00190346  -0.00055477  1
  V  V27  1  0.38226144  0.89155657  0.49144030  1
  V  V28  1  -0.00130681  0.37677950  0.87502583  1
  V  V29  1  0.13544672  0.62624223  0.49767180  1
  V  V30  1  0.49427525  0.12242953  0.11927239  1
  V  V31  1  0.25792078  0.75056343  0.49040295  1
  V  V32  1  0.50782309  0.88566609  0.37390027  1
  V  V33  1  0.68412760  0.32040647  0.56677649  1
  V  V34  1  0.26467255  0.00803318  0.25053359  1
  V  V35  1  0.37200997  0.38086555  -0.00628704  1
  V  V36  1  0.63131295  0.64002058  0.49712962  1
  V  V37  1  0.50138432  0.62872867  0.62750430  1
  V  V38  1  0.12536346  0.75150989  0.36846229  1
  V  V39  1  0.13035205  0.87427249  0.74856829  1
  V  V40  1  0.12851964  0.74890677  0.87503443  1
  V  V41  1  0.62866775  0.50308098  0.62691815  1
  V  V42  1  0.12314914  0.12388896  0.49969934  1
  V  V43  1  0.00141152  0.74367090  0.75023938  1
  V  V44  1  0.62034848  0.62653579  0.00463208  1
  V  V45  1  0.00249278  0.88115787  0.36536003  1
  V  V46  1  0.50135478  0.76513949  0.75434675  1
  V  V47  1  0.24781162  0.50290656  0.25448920  1
  V  V48  1  0.12316511  0.37896742  0.24900295  1
  V  V49  1  0.75423195  0.75378094  0.00005737  1
  V  V50  1  0.12876466  0.00151387  0.63208195  1
  V  V51  1  0.61845605  0.00062017  0.61891166  1
  V  V52  1  0.87425008  0.12490837  0.75140685  1
  V  V53  1  0.50022697  0.50283483  0.50151084  1
  V  V54  1  0.50294912  0.37519770  0.87237779  1
  V  V55  1  0.00060618  0.50256434  0.50263796  1
  V  V56  1  0.38847081  0.25023824  0.63307250  1
  V  V57  1  0.12066032  -0.00001711  0.13245654  1
  V  V58  1  0.87405387  0.62746780  0.75346998  1
  V  V59  1  0.74032963  0.25168669  0.00132014  1
  V  V60  1  -0.00602396  0.37310012  0.37560079  1
  V  V61  1  0.86026189  0.11205071  0.24594489  1
  V  V62  1  0.25507536  0.88244265  0.62410925  1
  V  V63  1  0.38216652  0.74381858  0.13005860  1
  V  V64  1  0.25265790  0.74936334  0.00152697  1
  V  V65  1  -0.05075519  0.68068555  0.57687951  1
  V  V66  1  0.74746054  0.50337279  0.25040503  1
  V  V67  1  0.51386539  0.74288419  0.25481252  1
  V  V68  1  0.49808220  0.37598557  0.37282818  1
  V  V69  1  0.24581572  0.37925366  0.12770578  1
  V  V70  1  0.12798772  0.61855034  0.00610754  1
  V  V71  1  0.75171321  0.86170177  0.61827233  1
  V  V72  1  0.61936422  0.75903195  0.87334645  1
  V  V73  1  0.11813361  0.12213538  0.00137478  1
  V  V74  1  0.37746807  0.87274242  -0.00224040  1
  V  V75  1  -0.00126016  0.23881033  0.25048574  1
  V  V76  1  0.74327981  -0.01208181  0.74967544  1
  V  V77  1  -0.00026486  0.87178657  0.88075269  1
  V  V78  1  0.74819940  0.49286366  0.75293544  1
  V  V79  1  0.00291767  0.49750154  0.01029118  1
  V  V80  1  0.25103510  0.25000732  0.50401764  1
  V  V81  1  0.25296273  0.62252265  0.87467192  1
  V  V82  1  0.39350836  0.12707557  0.75170274  1
  V  V83  1  -0.00094394  0.12337671  0.62595234  1
  V  V84  1  -0.00591378  0.25211359  0.74504185  1
  Zn  Zn85  1  0.25097959  0.37562936  0.62908488  1
  Zn  Zn86  1  0.12325131  0.24798417  0.87455285  1
  Zn  Zn87  1  0.73552297  0.12388471  0.39881875  1
  Zn  Zn88  1  0.00080718  -0.00447022  0.49933568  1
  Zn  Zn89  1  0.62391806  0.37740653  0.25354213  1
  Zn  Zn90  1  0.73655559  0.65001502  0.36804928  1
  Zn  Zn91  1  0.62550238  0.36290626  0.74936449  1
  Zn  Zn92  1  0.00859121  0.75181370  0.24289531  1
  Zn  Zn93  1  0.00496437  0.62520659  0.12512324  1
  Zn  Zn94  1  0.87877430  0.86768734  0.50719382  1
  Zn  Zn95  1  0.74605454  0.62458890  0.87565704  1
  Zn  Zn96  1  0.87151509  0.50200846  0.87816789  1
  Zn  Zn97  1  0.61432739  0.50845259  0.13064771  1
  Zn  Zn98  1  0.86173690  -0.00268842  0.37883754  1
  Zn  Zn99  1  0.74823304  0.89128991  0.12013526  1
  Zn  Zn100  1  0.62298673  0.24491284  0.38742800  1
  Zn  Zn101  1  0.25937469  0.11486286  0.37599668  1
  Zn  Zn102  1  0.37671774  0.62551981  0.25149393  1
  Zn  Zn103  1  0.60851817  0.23576980  0.87604619  1
  Zn  Zn104  1  0.82934603  0.21068116  0.57993363  1
  Zn  Zn105  1  0.00171038  -0.00244083  0.00131365  1
  Zn  Zn106  1  0.55074435  0.05532790  0.45604342  1
  Zn  Zn107  1  0.18441772  0.18656046  0.18780135  1
  Zn  Zn108  1  0.18678366  0.19147441  0.68738124  1
  Zn  Zn109  1  0.19312736  0.68452786  0.18644873  1
  Zn  Zn110  1  0.19137271  0.69015011  0.68232994  1
  Zn  Zn111  1  0.68619797  0.19304950  0.19107525  1
  Zn  Zn112  1  0.67812906  0.17704291  0.70182018  1
  Zn  Zn113  1  0.69086975  0.69039019  0.18228880  1
  Zn  Zn114  1  0.68569850  0.68453019  0.69303093  1
  Zn  Zn115  1  0.31940841  0.29177207  0.32306350  1
  Zn  Zn116  1  0.31319852  0.31060627  0.81508389  1
  Zn  Zn117  1  0.31880840  0.81672021  0.31285675  1
  Zn  Zn118  1  0.31426417  0.81161080  0.81055953  1
  Zn  Zn119  1  0.80552243  0.30628977  0.31881745  1
  Zn  Zn120  1  0.80990775  0.30989246  0.81322450  1
  Zn  Zn121  1  0.81185126  0.82025149  0.30217586  1
  Zn  Zn122  1  0.81352995  0.80723220  0.81243613  1
  Zn  Zn123  1  0.18796844  0.43384574  0.43741737  1
  Zn  Zn124  1  0.18666271  0.43718685  0.93519194  1
  Zn  Zn125  1  0.18873080  0.93676019  0.43467706  1
  Zn  Zn126  1  0.19027797  0.93738866  0.93992470  1
  Zn  Zn127  1  0.68328008  0.44622526  0.43327324  1
  Zn  Zn128  1  0.68268157  0.44149445  0.93920705  1
  Zn  Zn129  1  0.69336023  0.93049509  0.43458075  1
  Zn  Zn130  1  0.69096990  0.92839869  0.93165804  1
  Zn  Zn131  1  0.30781003  0.06315589  0.06120424  1
  Zn  Zn132  1  0.31867463  0.06827606  0.56600871  1
  Zn  Zn133  1  0.31211795  0.56032693  0.06637280  1
  Zn  Zn134  1  0.31131628  0.56474430  0.56746719  1
  Zn  Zn135  1  0.83401316  0.06520417  0.06245815  1
  Zn  Zn136  1  0.81364046  0.04357662  0.55881000  1
  Zn  Zn137  1  0.81047875  0.56527796  0.06094735  1
  Zn  Zn138  1  0.80563493  0.55952513  0.56108312  1
  Zn  Zn139  1  0.43198664  0.43658624  0.18659258  1
  Zn  Zn140  1  0.43994659  0.43821177  0.68843475  1
  Zn  Zn141  1  0.44071521  0.93254761  0.18581835  1
  Zn  Zn142  1  0.43447933  0.94246425  0.68920991  1
  Zn  Zn143  1  0.93562749  0.43395666  0.18862908  1
  Zn  Zn144  1  0.93790251  0.44506618  0.68908713  1
  Zn  Zn145  1  0.94417851  0.93457371  0.18942298  1
  Zn  Zn146  1  0.93707053  0.93384117  0.68914740  1
  Zn  Zn147  1  0.06960230  0.06285712  0.31137576  1
  Zn  Zn148  1  0.06386585  0.06089317  0.81187576  1
  Zn  Zn149  1  0.06076172  0.56431350  0.31511398  1
  Zn  Zn150  1  0.06273964  0.56247669  0.81707703  1
  Zn  Zn151  1  0.56992811  0.07063339  0.29725133  1
  Zn  Zn152  1  0.56473267  0.05306741  0.82232251  1
  Zn  Zn153  1  0.56168693  0.56393518  0.31588195  1
  Zn  Zn154  1  0.56160300  0.56078173  0.81988419  1
  Zn  Zn155  1  0.42966074  0.18767157  0.43125403  1
  Zn  Zn156  1  0.43261215  0.18781952  0.94037303  1
  Zn  Zn157  1  0.44497349  0.69309676  0.43554705  1
  Zn  Zn158  1  0.43920711  0.68696219  0.93701270  1
  Zn  Zn159  1  0.91553156  0.17465715  0.44214524  1
  Zn  Zn160  1  0.93571012  0.18910022  0.93552274  1
  Zn  Zn161  1  0.90374381  0.71630338  0.40287823  1
  Zn  Zn162  1  0.93851723  0.68507289  0.93802752  1
  Zn  Zn163  1  0.06363119  0.31187730  0.06427078  1
  Zn  Zn164  1  0.05812446  0.31457056  0.56561846  1
  Zn  Zn165  1  0.06814525  0.81260982  0.06317534  1
  Zn  Zn166  1  0.07074235  0.81874880  0.55229606  1
  Zn  Zn167  1  0.55982038  0.31714105  0.06198667  1
  Zn  Zn168  1  0.55264785  0.18081216  0.57446437  1
  Zn  Zn169  1  0.56134874  0.81228508  0.06481799  1
  Zn  Zn170  1  0.56602308  0.82271828  0.56634961  1
  O  O171  1  0.13122480  0.11037131  0.11570562  1
  O  O172  1  0.12193581  0.11822503  0.62121360  1
  O  O173  1  0.12639434  0.62837974  0.10999845  1
  O  O174  1  0.13188356  0.61802997  0.61294091  1
  O  O175  1  0.61775657  0.12846791  0.11742806  1
  O  O176  1  0.62975910  0.10961717  0.62376136  1
  O  O177  1  0.62731950  0.62701850  0.11018721  1
  O  O178  1  0.61963707  0.61999213  0.61929607  1
  O  O179  1  0.38255940  0.37950325  0.38375674  1
  O  O180  1  0.37924605  0.37254546  0.88792739  1
  O  O181  1  0.39197905  0.87524765  0.38034465  1
  O  O182  1  0.36677428  0.88358974  0.88332207  1
  O  O183  1  0.87594668  0.38577475  0.37920792  1
  O  O184  1  0.88231991  0.37581398  0.88227817  1
  O  O185  1  0.89322110  0.88027997  0.36664252  1
  O  O186  1  0.88713737  0.87963838  0.86665344  1
  O  O187  1  0.24649051  -0.00118365  0.35621769  1
  O  O188  1  0.26103111  0.00885944  0.87983185  1
  O  O189  1  0.25955004  0.49069830  0.36731334  1
  O  O190  1  0.24467313  0.50637503  0.86102061  1
  O  O191  1  0.74919273  0.01063499  0.38177828  1
  O  O192  1  0.75743516  0.00109915  0.86828433  1
  O  O193  1  0.75607343  0.50297375  0.36326383  1
  O  O194  1  0.74998658  0.50385989  0.86868651  1
  O  O195  1  0.25412489  0.48578721  0.13519249  1
  O  O196  1  0.24040075  0.50065563  0.63739899  1
  O  O197  1  0.24519349  0.99336758  0.13187898  1
  O  O198  1  0.24561973  0.98972319  0.62045711  1
  O  O199  1  0.75034427  0.49499210  0.13550070  1
  O  O200  1  0.73558291  0.50456970  0.63383580  1
  O  O201  1  0.73963805  1.00845983  0.09679748  1
  O  O202  1  0.74424746  0.99427553  0.63753711  1
  O  O203  1  0.00563900  0.36898128  0.25570438  1
  O  O204  1  0.00062132  0.37039748  0.75561588  1
  O  O205  1  0.00949281  0.87160747  0.25999871  1
  O  O206  1  0.00848234  0.86093089  0.75416473  1
  O  O207  1  0.49958686  0.37251700  0.25747081  1
  O  O208  1  0.49837057  0.38233122  0.76963656  1
  O  O209  1  0.50913720  0.86910041  0.25615541  1
  O  O210  1  0.49115043  0.86384538  0.75151445  1
  O  O211  1  0.50019543  0.13531678  0.23135579  1
  O  O212  1  0.49172705  0.12491019  0.76122228  1
  O  O213  1  0.49872590  0.63876199  0.25424990  1
  O  O214  1  0.49344364  0.62817199  0.74699011  1
  O  O215  1  1.00752185  0.13796407  0.24669508  1
  O  O216  1  0.99362708  0.13247826  0.74865505  1
  O  O217  1  0.99370902  0.62550044  0.24376479  1
  O  O218  1  0.99565694  0.63534207  0.75455464  1
  O  O219  1  0.36518489  0.25812755  0.00834878  1
  O  O220  1  0.36651887  0.26059982  0.51318354  1
  O  O221  1  0.37212664  0.75501084  0.00568469  1
  O  O222  1  0.37247246  0.75760161  0.50334956  1
  O  O223  1  0.86941403  0.25464720  0.00896694  1
  O  O224  1  0.88917390  0.27080106  0.50198096  1
  O  O225  1  0.86728382  0.74211548  0.00780373  1
  O  O226  1  0.89387298  0.74107606  0.51818217  1
  O  O227  1  0.12661893  0.23981442  0.50340760  1
  O  O228  1  0.12921073  0.24190705  1.00003290  1
  O  O229  1  0.13772007  0.74303622  0.49369169  1
  O  O230  1  0.13417069  0.74265013  0.99362585  1
  O  O231  1  0.62201491  0.26037789  0.51339681  1
  O  O232  1  0.63784387  0.25602334  0.99726100  1
  O  O233  1  0.61983509  0.73776260  0.50685522  1
  O  O234  1  0.62650994  0.74578265  0.99151435  1
  O  O235  1  0.49172209  0.24536177  0.12371679  1
  O  O236  1  0.48755237  0.25592295  0.63259229  1
  O  O237  1  0.49244669  0.75624950  0.14138192  1
  O  O238  1  0.49711429  0.74901169  0.63401612  1
  O  O239  1  0.98628216  0.26202647  0.13425274  1
  O  O240  1  1.00128307  0.24361861  0.63837721  1
  O  O241  1  0.99419045  0.74906581  0.12264265  1
  O  O242  1  1.01006736  0.74615421  0.63053434  1
  O  O243  1  0.00109184  0.25441675  0.36808349  1
  O  O244  1  -0.00044819  0.26102774  0.86631832  1
  O  O245  1  0.00733404  0.75977475  0.36903577  1
  O  O246  1  0.00682330  0.75354085  0.86823701  1
  O  O247  1  0.50197202  0.25933157  0.36347115  1
  O  O248  1  0.49687349  0.26826114  0.88950912  1
  O  O249  1  0.49888686  0.76091248  0.35903625  1
  O  O250  1  0.51026636  0.74771285  0.86921430  1
  O  O251  1  0.24447543  0.13468928  0.49964933  1
  O  O252  1  0.24032348  0.13003644  0.99120598  1
  O  O253  1  0.24686175  0.63610033  0.50204928  1
  O  O254  1  0.24575213  0.62611843  0.99463507  1
  O  O255  1  0.80538933  0.13756621  0.49517259  1
  O  O256  1  0.74926801  0.13071752  0.99859687  1
  O  O257  1  0.73396015  0.62376749  0.49935430  1
  O  O258  1  0.74131908  0.63503623  0.99784324  1
  O  O259  1  0.25214250  0.37159500  0.00641082  1
  O  O260  1  0.26153665  0.37507968  0.50742033  1
  O  O261  1  0.26031487  0.86994704  0.00866693  1
  O  O262  1  0.26031371  0.87034123  0.50346227  1
  O  O263  1  0.75453846  0.37072817  0.00578503  1
  O  O264  1  0.74875105  0.37458079  0.50463626  1
  O  O265  1  0.74675142  0.85913757  0.00267334  1
  O  O266  1  0.75488687  0.86861633  0.51390879  1
  O  O267  1  0.13040556  0.48676663  0.25990532  1
  O  O268  1  0.12907258  0.49772291  0.74377931  1
  O  O269  1  0.13416707  1.00224990  0.23464480  1
  O  O270  1  0.12512556  0.99413113  0.73830248  1
  O  O271  1  0.63255581  0.50061811  0.24861039  1
  O  O272  1  0.63057012  0.49844683  0.74436430  1
  O  O273  1  0.62251786  0.98941651  0.23837466  1
  O  O274  1  0.63972869  1.00323671  0.74938898  1
  O  O275  1  0.36317127  -0.00107556  0.24206838  1
  O  O276  1  0.37680706  0.01417592  0.75851854  1
  O  O277  1  0.36729587  0.50073839  0.26011137  1
  O  O278  1  0.36584533  0.51055165  0.74325330  1
  O  O279  1  0.87428892  0.01122568  0.23696898  1
  O  O280  1  0.86884388  0.00523592  0.75935535  1
  O  O281  1  0.86810492  0.50431493  0.25344675  1
  O  O282  1  0.86831554  0.51067442  0.75195195  1
  O  O283  1  0.11137008  0.37139443  0.37188072  1
  O  O284  1  0.11547759  0.37322971  0.86749181  1
  O  O285  1  0.11632022  0.86285139  0.38238729  1
  O  O286  1  0.12386351  0.86898994  0.86769770  1
  O  O287  1  0.60814568  0.37728180  0.37748793  1
  O  O288  1  0.60984171  0.37460562  0.87861700  1
  O  O289  1  0.61668263  0.87550922  0.36053110  1
  O  O290  1  0.62215400  0.85845742  0.87378712  1
  O  O291  1  0.37939247  0.13699696  0.11664450  1
  O  O292  1  0.37210697  0.13226443  0.64469030  1
  O  O293  1  0.36799223  0.64027616  0.12709010  1
  O  O294  1  0.38101183  0.63351917  0.63386543  1
  O  O295  1  0.88071138  0.13678432  0.13569698  1
  O  O296  1  0.87923721  0.12030778  0.64057449  1
  O  O297  1  0.87829089  0.62674151  0.13311217  1
  O  O298  1  0.88220206  0.62072896  0.62907329  1
  O  O299  1  0.25442330  0.25796883  0.12270398  1
  O  O300  1  0.25341641  0.25382959  0.61632256  1
  O  O301  1  0.25511051  0.75805704  0.12060014  1
  O  O302  1  0.25738188  0.76113927  0.61290784  1
  O  O303  1  0.75772919  0.25783841  0.11965755  1
  O  O304  1  0.73897117  0.25873675  0.62961282  1
  O  O305  1  0.76217994  0.75085746  0.11571393  1
  O  O306  1  0.74438746  0.76439967  0.63720352  1
  O  O307  1  0.22960655  0.27284167  0.39824389  1
  O  O308  1  0.24605112  0.24227282  0.88266609  1
  O  O309  1  0.24516389  0.75842652  0.38472563  1
  O  O310  1  0.24794324  0.74324069  0.88154228  1
  O  O311  1  0.73519758  0.23803329  0.36865034  1
  O  O312  1  0.75715062  0.23731761  0.88795585  1
  O  O313  1  0.79402423  0.74408257  0.38049070  1
  O  O314  1  0.73853678  0.74778616  0.87952411  1
  O  O315  1  0.01411090  0.12388832  -0.00869156  1
  O  O316  1  0.00693114  0.12335102  0.50783904  1
  O  O317  1  0.00938740  0.61382795  -0.00086250  1
  O  O318  1  0.00645395  0.62357321  0.51115548  1
  O  O319  1  0.49745977  0.11735140  0.00830261  1
  O  O320  1  0.48184193  0.12699582  0.50603839  1
  O  O321  1  0.50466001  0.61639062  -0.00224784  1
  O  O322  1  0.50674803  0.62186652  0.50744413  1
  O  O323  1  0.48481521  0.38550271  0.49343281  1
  O  O324  1  0.48932796  0.38282527  0.99605420  1
  O  O325  1  0.49794108  0.87122619  0.48343304  1
  O  O326  1  0.48498795  0.88044590  1.00599170  1
  O  O327  1  0.99254760  0.38559963  0.49670156  1
  O  O328  1  0.99742918  0.37927741  0.99325035  1
  O  O329  1  0.99877472  0.87358042  0.48542737  1
  O  O330  1  1.00875909  0.87379890  0.98333488  1
  O  O331  1  0.49056105  0.49483617  0.38017169  1
  O  O332  1  0.50032920  0.48789462  0.89044476  1
  O  O333  1  0.50549085  0.98899429  0.36762102  1
  O  O334  1  0.48389998  1.00457108  0.88864701  1
  O  O335  1  0.99231715  0.49371256  0.38296704  1
  O  O336  1  0.99817303  0.48778459  0.88115479  1
  O  O337  1  1.01160687  0.98747836  0.37463168  1
  O  O338  1  0.99483806  0.98812890  0.86994104  1
  O  O339  1  0.01654162  -0.00729955  0.12035435  1
  O  O340  1  0.01059245  0.00471175  0.62653566  1
  O  O341  1  -0.00103649  0.49654007  0.11306335  1
  O  O342  1  0.01377605  0.49957480  0.61995805  1
  O  O343  1  0.49072295  0.00775024  0.11135868  1
  O  O344  1  0.52026154  -0.00667773  0.63426878  1
  O  O345  1  0.49830643  0.49400844  0.11174443  1
  O  O346  1  0.51012098  0.50663231  0.62302379  1
  O  O347  1  0.24209297  0.37835847  0.24507336  1
  O  O348  1  0.24524546  0.38347299  0.75165440  1
  O  O349  1  0.25452746  0.88236491  0.23860311  1
  O  O350  1  0.24388536  0.86606847  0.73558604  1
  O  O351  1  0.74884917  0.38386109  0.24323398  1
  O  O352  1  0.74985971  0.38892019  0.75610824  1
  O  O353  1  0.73634243  0.87718199  0.24148938  1
  O  O354  1  0.75442085  0.88617981  0.74964161  1
  O  O355  1  0.24831044  0.11064474  0.24664194  1
  O  O356  1  0.24829303  0.12911159  0.76317431  1
  O  O357  1  0.25100583  0.60628122  0.24702147  1
  O  O358  1  0.25795326  0.62069264  0.75276895  1
  O  O359  1  0.76053995  0.12376183  0.24322035  1
  O  O360  1  0.75827524  0.11346273  0.76108404  1
  O  O361  1  0.75744193  0.61979895  0.25081910  1
  O  O362  1  0.75859852  0.61567652  0.75153467  1
  O  O363  1  0.34685147  0.18270353  0.36067254  1
  O  O364  1  0.36751547  0.12141078  0.86652202  1
  O  O365  1  0.37894018  0.61304551  0.37751022  1
  O  O366  1  0.36993530  0.62988872  0.86220298  1
  O  O367  1  0.88771138  0.11544234  0.34838126  1
  O  O368  1  0.86794016  0.11701703  0.86857152  1
  O  O369  1  0.88334868  0.60895883  0.35905120  1
  O  O370  1  0.87233300  0.62233292  0.86632569  1
  O  O371  1  0.13319020  0.37004365  0.13647495  1
  O  O372  1  0.12629187  0.38511999  0.63212144  1
  O  O373  1  0.13763202  0.88794750  0.11724261  1
  O  O374  1  0.13457535  0.88314189  0.62596391  1
  O  O375  1  0.63771411  0.37911094  0.12433486  1
  O  O376  1  0.62691536  0.38249698  0.62665977  1
  O  O377  1  0.62639520  0.87031147  0.13864245  1
  O  O378  1  0.64005178  0.88652635  0.62826451  1
  O  O379  1  0.11922565  0.25874372  0.25664140  1
  O  O380  1  0.11497315  0.25850705  0.75159368  1
  O  O381  1  0.13015752  0.73892242  0.26524911  1
  O  O382  1  0.12058397  0.75082274  0.75492956  1
  O  O383  1  0.60867626  0.25790390  0.24379266  1
  O  O384  1  0.63188406  0.25160163  0.76678214  1
  O  O385  1  0.61592292  0.75065009  0.24836115  1
  O  O386  1  0.61517323  0.74166843  0.76521061  1
  O  O387  1  0.38756309  0.26551622  0.23082794  1
  O  O388  1  0.37040964  0.23699607  0.74693424  1
  O  O389  1  0.38249676  0.74801957  0.24443114  1
  O  O390  1  0.38264552  0.74307714  0.74414335  1
  O  O391  1  0.88120654  0.24411386  0.24412224  1
  O  O392  1  0.88130264  0.23938191  0.75459670  1
  O  O393  1  0.88038538  0.74212743  0.23494510  1
  O  O394  1  0.88374351  0.73661443  0.75073270  1
  O  O395  1  0.37711404  0.49665456  0.49719622  1
  O  O396  1  0.37874719  0.49258274  1.00242155  1
  O  O397  1  0.37196089  0.99041159  0.50127750  1
  O  O398  1  0.37583822  0.99175520  0.99382382  1
  O  O399  1  0.87683655  0.49774281  0.49115053  1
  O  O400  1  0.88321856  0.49377045  0.99929282  1
  O  O401  1  0.88561170  0.98539983  0.49519435  1
  O  O402  1  0.88407297  1.00277369  0.98262275  1
  O  O403  1  0.12626170  0.00661835  0.00787663  1
  O  O404  1  0.12776497  0.01140346  0.50906461  1
  O  O405  1  0.11678300  0.50721175  -0.00549160  1
  O  O406  1  0.12361705  0.50737942  0.50610484  1
  O  O407  1  0.61225832  -0.00637564  -0.00900806  1
  O  O408  1  0.62660967  -0.00853017  0.51446646  1
  O  O409  1  0.61547968  0.50977453  0.00474390  1
  O  O410  1  0.61796216  0.50693242  0.50921653  1
  O  O411  1  0.36523929  0.36941798  0.11324251  1
  O  O412  1  0.37409095  0.36995688  0.62168251  1
  O  O413  1  0.36802196  0.86442236  0.11854059  1
  O  O414  1  0.37154397  0.87343558  0.61742618  1
  O  O415  1  0.86320333  0.36969213  0.12092852  1
  O  O416  1  0.87384944  0.38763341  0.61288080  1
  O  O417  1  0.87220925  0.86731192  0.12660495  1
  O  O418  1  0.85854765  0.87649121  0.62884584  1
  O  O419  1  0.13115653  0.13187999  0.38502211  1
  O  O420  1  0.13171997  0.12402405  0.88073570  1
  O  O421  1  0.11784324  0.63208976  0.39146428  1
  O  O422  1  0.13200432  0.63032888  0.88381353  1
  O  O423  1  0.61414073  0.12567921  0.38518953  1
  O  O424  1  0.64032472  0.11879111  0.88431939  1
  O  O425  1  0.62465855  0.62494550  0.39108262  1
  O  O426  1  0.62462080  0.63254593  0.88779295  1
