# generated using pymatgen
data_V85Zn86O256
_symmetry_space_group_name_H-M   'P 1'
_cell_length_a   16.97794714
_cell_length_b   16.96194489
_cell_length_c   16.95920211
_cell_angle_alpha   90.07874225
_cell_angle_beta   90.02915569
_cell_angle_gamma   89.90263499
_symmetry_Int_Tables_number   1
_chemical_formula_structural   V85Zn86O256
_chemical_formula_sum   'V85 Zn86 O256'
_cell_volume   4883.88183676
_cell_formula_units_Z   1
loop_
 _symmetry_equiv_pos_site_id
 _symmetry_equiv_pos_as_xyz
  1  'x, y, z'
loop_
 _atom_site_type_symbol
 _atom_site_label
 _atom_site_symmetry_multiplicity
 _atom_site_fract_x
 _atom_site_fract_y
 _atom_site_fract_z
 _atom_site_occupancy
  V  V0  1  0.37530259  0.12293863  0.24593976  1
  V  V1  1  0.74868490  0.49490570  0.23537142  1
  V  V2  1  0.12218090  0.37645979  0.75002299  1
  V  V3  1  0.12139748  0.87981156  0.24868981  1
  V  V4  1  0.37511615  0.87233551  0.00106164  1
  V  V5  1  0.87108164  0.00625063  0.87707442  1
  V  V6  1  0.87061656  0.74387629  0.62479695  1
  V  V7  1  0.63114445  0.24463375  0.87292163  1
  V  V8  1  0.12853997  0.75399866  0.37229121  1
  V  V9  1  0.50851555  0.12373294  0.61719597  1
  V  V10  1  0.49852862  0.86501241  0.37199113  1
  V  V11  1  0.87806259  0.62036060  0.26085348  1
  V  V12  1  0.50416100  0.37339345  0.37382508  1
  V  V13  1  0.00149689  0.25871610  0.25326978  1
  V  V14  1  0.24804052  0.37684442  0.62463316  1
  V  V15  1  0.24891027  0.12456679  0.37466398  1
  V  V16  1  0.12721664  0.25033493  0.88597098  1
  V  V17  1  0.74856971  0.37420201  0.61647493  1
  V  V18  1  0.24772808  0.24945357  0.50015737  1
  V  V19  1  0.24868116  0.87627873  0.62680593  1
  V  V20  1  0.49671624  0.12560815  0.12162566  1
  V  V21  1  0.24851779  0.74821113  0.49612283  1
  V  V22  1  0.37265391  0.87547622  0.49846003  1
  V  V23  1  0.75244674  0.26334768  -0.00104783  1
  V  V24  1  0.24767989  0.12499542  0.87431842  1
  V  V25  1  0.50096768  0.37742842  0.87573631  1
  V  V26  1  0.62906799  0.24267673  0.38622569  1
  V  V27  1  0.24774389  0.87579667  0.12215146  1
  V  V28  1  0.24524810  -0.00001246  0.24525684  1
  V  V29  1  0.12477915  0.62157656  0.00166979  1
  V  V30  1  0.75210726  0.00321713  0.25171319  1
  V  V31  1  0.62530452  0.61952380  0.01713511  1
  V  V32  1  0.62708151  0.87150516  0.25752399  1
  V  V33  1  0.75500727  0.13079558  0.39175576  1
  V  V34  1  0.00575591  0.11995020  0.12392920  1
  V  V35  1  0.87329636  0.25791225  0.12465657  1
  V  V36  1  0.13262831  0.00027800  0.62961046  1
  V  V37  1  0.50139774  0.00098932  -0.00163800  1
  V  V38  1  0.75202018  0.61347786  0.37793763  1
  V  V39  1  0.38178177  -0.00000272  0.37600186  1
  V  V40  1  -0.00200757  0.75563483  0.25887403  1
  V  V41  1  0.62520383  0.00514619  0.12963523  1
  V  V42  1  0.12368684  0.25883688  0.37417302  1
  V  V43  1  0.62826511  0.37555451  0.75039439  1
  V  V44  1  0.37659339  0.62278510  0.74774049  1
  V  V45  1  0.12323776  0.74947640  0.87642119  1
  V  V46  1  0.87253764  0.25154143  0.61817538  1
  V  V47  1  0.87446297  0.75107700  0.12860534  1
  V  V48  1  0.37457689  0.37656677  0.49994334  1
  V  V49  1  0.24849577  0.50213403  0.74944541  1
  V  V50  1  0.63644467  0.12317325  -0.00277114  1
  V  V51  1  0.74934557  0.87553578  0.12104387  1
  V  V52  1  0.00015360  0.62486316  0.12214778  1
  V  V53  1  0.36176827  0.25197892  0.11845647  1
  V  V54  1  -0.00790143  0.38441549  0.88091379  1
  V  V55  1  0.49998133  0.50187364  0.01604582  1
  V  V56  1  0.62613092  0.73926770  0.87355710  1
  V  V57  1  0.87842977  -0.00725482  0.37531233  1
  V  V58  1  0.37685245  0.74465433  0.62340741  1
  V  V59  1  0.37460655  0.49981873  0.37208414  1
  V  V60  1  0.24625719  0.48426849  0.24296456  1
  V  V61  1  0.86983904  0.12912428  0.24975370  1
  V  V62  1  0.00293630  0.12397918  0.62480535  1
  V  V63  1  0.13001047  0.87935964  0.75173635  1
  V  V64  1  0.49941316  0.50584808  0.50262322  1
  V  V65  1  0.86325559  0.88636967  0.52350433  1
  V  V66  1  0.50262096  0.87316300  0.87309024  1
  V  V67  1  0.50265509  0.24885526  0.24567424  1
  V  V68  1  0.11308767  0.50899122  0.61973889  1
  V  V69  1  -0.00055409  0.24891269  0.75104866  1
  V  V70  1  0.00341130  0.74899096  0.73458113  1
  V  V71  1  0.25031719  0.62439496  0.36600907  1
  V  V72  1  0.12222026  0.48567864  0.12329542  1
  V  V73  1  0.74868383  0.75312561  0.49548997  1
  V  V74  1  0.00410773  -0.01600736  0.49741846  1
  V  V75  1  0.62243467  0.50731846  0.62607151  1
  V  V76  1  0.88428404  0.38874554  0.49677007  1
  V  V77  1  0.75062264  0.74563968  -0.00453854  1
  V  V78  1  0.36853163  -0.00138786  0.86726030  1
  V  V79  1  0.37298374  0.24859344  0.62902541  1
  V  V80  1  0.50315074  0.74166869  0.23869176  1
  V  V81  1  0.36242981  0.37352699  0.00031296  1
  V  V82  1  0.87210348  0.62683079  0.75897583  1
  V  V83  1  0.50240752  0.74336554  0.74763697  1
  V  V84  1  0.62424295  0.62741239  0.49509958  1
  Zn  Zn85  1  0.13669057  0.12159669  0.00991155  1
  Zn  Zn86  1  0.11534559  0.62078848  0.49627128  1
  Zn  Zn87  1  0.74824628  0.50890106  0.75483910  1
  Zn  Zn88  1  0.38043328  0.61866447  0.23729475  1
  Zn  Zn89  1  0.00873632  -0.00580548  0.00051406  1
  Zn  Zn90  1  0.87489420  0.39041697  0.01011837  1
  Zn  Zn91  1  0.74458765  0.00142364  0.72561188  1
  Zn  Zn92  1  0.62800019  0.88078742  0.71849509  1
  Zn  Zn93  1  0.00011269  0.87664071  0.87854563  1
  Zn  Zn94  1  0.25055340  0.74682034  0.00017742  1
  Zn  Zn95  1  0.00333680  0.39229022  0.37558473  1
  Zn  Zn96  1  0.37803134  0.73997843  0.11871190  1
  Zn  Zn97  1  0.86582757  0.51407371  0.89106589  1
  Zn  Zn98  1  0.24933923  0.62406925  0.87589746  1
  Zn  Zn99  1  0.37241758  0.11795390  0.74620613  1
  Zn  Zn100  1  0.86492852  0.12750078  0.75623627  1
  Zn  Zn101  1  0.37524339  0.50030136  0.87590936  1
  Zn  Zn102  1  0.87972264  0.87788932  0.00010100  1
  Zn  Zn103  1  0.62489794  0.38573314  0.23933786  1
  Zn  Zn104  1  0.49877640  0.24885989  0.75059558  1
  Zn  Zn105  1  0.12400915  0.12328176  0.49854368  1
  Zn  Zn106  1  0.53351739  -0.02858136  0.53654924  1
  Zn  Zn107  1  0.18448029  0.19119105  0.19268709  1
  Zn  Zn108  1  0.18846946  0.18580256  0.69423401  1
  Zn  Zn109  1  0.19021369  0.68869247  0.18523259  1
  Zn  Zn110  1  0.18876039  0.68832668  0.68653136  1
  Zn  Zn111  1  0.67231546  0.22043350  0.17261419  1
  Zn  Zn112  1  0.68945270  0.18645809  0.68630742  1
  Zn  Zn113  1  0.68899706  0.68738723  0.19212372  1
  Zn  Zn114  1  0.69019985  0.69037753  0.68344568  1
  Zn  Zn115  1  0.31555226  0.30964075  0.31208844  1
  Zn  Zn116  1  0.30983045  0.31360079  0.81525785  1
  Zn  Zn117  1  0.31644848  0.81108612  0.30459450  1
  Zn  Zn118  1  0.31010826  0.80994546  0.81383658  1
  Zn  Zn119  1  0.81270313  0.31555796  0.31521305  1
  Zn  Zn120  1  0.81082290  0.31494562  0.80977750  1
  Zn  Zn121  1  0.81022154  0.81142031  0.31906481  1
  Zn  Zn122  1  0.81389352  0.82013049  0.81138216  1
  Zn  Zn123  1  0.18642781  0.43985394  0.43734341  1
  Zn  Zn124  1  0.18153273  0.44011440  0.93527421  1
  Zn  Zn125  1  0.18924813  0.93707775  0.43534873  1
  Zn  Zn126  1  0.18460992  0.94130728  0.93993695  1
  Zn  Zn127  1  0.68703079  0.43413082  0.43549596  1
  Zn  Zn128  1  0.68860905  0.44362660  0.93655178  1
  Zn  Zn129  1  0.68794803  0.94509202  0.54257411  1
  Zn  Zn130  1  0.68542149  0.93782470  0.86433170  1
  Zn  Zn131  1  0.30916809  0.05977930  0.05588997  1
  Zn  Zn132  1  0.31566387  0.06299569  0.55965969  1
  Zn  Zn133  1  0.31048557  0.56001311  0.06390955  1
  Zn  Zn134  1  0.30699653  0.56480671  0.56068982  1
  Zn  Zn135  1  0.81746377  0.06374550  0.05931425  1
  Zn  Zn136  1  0.81746059  0.06988210  0.56780746  1
  Zn  Zn137  1  0.81355565  0.56555873  0.06469059  1
  Zn  Zn138  1  0.80880284  0.56382017  0.57110985  1
  Zn  Zn139  1  0.43194364  0.43250621  0.18658659  1
  Zn  Zn140  1  0.43912956  0.43678429  0.68692869  1
  Zn  Zn141  1  0.43701472  0.93573173  0.18703198  1
  Zn  Zn142  1  0.43905183  0.93254841  0.68942427  1
  Zn  Zn143  1  0.93839989  0.44164873  0.19200715  1
  Zn  Zn144  1  0.93588923  0.43911894  0.68987173  1
  Zn  Zn145  1  0.93686486  0.93868822  0.18720052  1
  Zn  Zn146  1  0.94146203  0.94044137  0.69609817  1
  Zn  Zn147  1  0.06050154  0.06824568  0.31300524  1
  Zn  Zn148  1  0.05941360  0.06214303  0.81652650  1
  Zn  Zn149  1  0.06772298  0.56422734  0.30579503  1
  Zn  Zn150  1  0.05789271  0.56673752  0.80773513  1
  Zn  Zn151  1  0.59930709  0.02518908  0.36668962  1
  Zn  Zn152  1  0.55748361  0.06651969  0.80441930  1
  Zn  Zn153  1  0.56743647  0.56258811  0.31362354  1
  Zn  Zn154  1  0.56146218  0.56184185  0.81555893  1
  Zn  Zn155  1  0.43699525  0.18733535  0.43917168  1
  Zn  Zn156  1  0.43639977  0.18942739  0.93545790  1
  Zn  Zn157  1  0.43619735  0.68581336  0.43170753  1
  Zn  Zn158  1  0.43852347  0.68246006  0.93740127  1
  Zn  Zn159  1  0.93989102  0.18751750  0.44113243  1
  Zn  Zn160  1  0.93769970  0.18921982  0.93905513  1
  Zn  Zn161  1  0.94647052  0.56803130  0.44369025  1
  Zn  Zn162  1  0.94186145  0.69389148  0.93834814  1
  Zn  Zn163  1  0.05600709  0.30752265  0.06132843  1
  Zn  Zn164  1  0.06257579  0.31469167  0.56228184  1
  Zn  Zn165  1  0.06377014  0.81145020  0.06591730  1
  Zn  Zn166  1  -0.00968085  0.75641497  0.48559507  1
  Zn  Zn167  1  0.55914126  0.31470982  0.06011758  1
  Zn  Zn168  1  0.55900857  0.31355271  0.56459084  1
  Zn  Zn169  1  0.56750486  0.81502214  0.06121713  1
  Zn  Zn170  1  0.55808244  0.80088816  0.55811752  1
  O  O171  1  0.10981737  0.13244669  0.12920397  1
  O  O172  1  0.12121972  0.11769626  0.62470465  1
  O  O173  1  0.11929029  0.62212017  0.11838978  1
  O  O174  1  0.13127148  0.61182581  0.62268701  1
  O  O175  1  0.61557868  0.12498016  0.11773107  1
  O  O176  1  0.60719042  0.13243172  0.62431086  1
  O  O177  1  0.62217611  0.62853391  0.11493587  1
  O  O178  1  0.62950796  0.61316762  0.61504889  1
  O  O179  1  0.38399670  0.37913887  0.38002611  1
  O  O180  1  0.38424725  0.37580537  0.88130030  1
  O  O181  1  0.37847924  0.87995680  0.37704149  1
  O  O182  1  0.38226064  0.87754858  0.88008847  1
  O  O183  1  0.87488994  0.37071628  0.39602742  1
  O  O184  1  0.88817786  0.37374062  0.87296873  1
  O  O185  1  0.86972496  0.89118110  0.38003530  1
  O  O186  1  0.87945107  0.88570110  0.87999948  1
  O  O187  1  0.26060544  0.00422145  0.36697012  1
  O  O188  1  0.25999180  0.00694334  0.87779006  1
  O  O189  1  0.25101155  0.50542118  0.36353863  1
  O  O190  1  0.24924675  0.50080193  0.86009260  1
  O  O191  1  0.76373499  0.01751633  0.36577440  1
  O  O192  1  0.77134218  0.00287953  0.89522334  1
  O  O193  1  0.75022994  0.51072952  0.37534610  1
  O  O194  1  0.75707219  0.49195066  0.86543502  1
  O  O195  1  0.23850476  0.49796298  0.13514031  1
  O  O196  1  0.24615955  0.49482631  0.63400510  1
  O  O197  1  0.25624423  0.98829420  0.13310442  1
  O  O198  1  0.23910533  0.99655773  0.61840789  1
  O  O199  1  0.74697673  0.50372523  0.13705954  1
  O  O200  1  0.73943441  0.49324531  0.63227635  1
  O  O201  1  0.74674316  0.99386103  0.13096273  1
  O  O202  1  0.76590570  0.98450132  0.61299247  1
  O  O203  1  -0.00872300  0.36202681  0.25788214  1
  O  O204  1  0.00385367  0.36841343  0.75624276  1
  O  O205  1  0.00994827  0.86946006  0.24400995  1
  O  O206  1  0.01500022  0.86653237  0.75104851  1
  O  O207  1  0.49915817  0.36725856  0.25932035  1
  O  O208  1  0.51126785  0.37435590  0.75565027  1
  O  O209  1  0.50587173  0.86624002  0.25224343  1
  O  O210  1  0.50153544  0.86067793  0.75781160  1
  O  O211  1  0.49044986  0.12963816  0.23324921  1
  O  O212  1  0.49058194  0.13162399  0.73902894  1
  O  O213  1  0.50296404  0.63907867  0.25634230  1
  O  O214  1  0.49283772  0.63491592  0.75241383  1
  O  O215  1  0.99008604  0.13453470  0.24427849  1
  O  O216  1  1.00142576  0.13323589  0.73907918  1
  O  O217  1  0.99396241  0.63549315  0.24413676  1
  O  O218  1  0.98847423  0.63814181  0.74947595  1
  O  O219  1  0.37930894  0.26165971  0.00631715  1
  O  O220  1  0.36761382  0.25682182  0.50803183  1
  O  O221  1  0.37399551  0.76038282  -0.00376624  1
  O  O222  1  0.36938116  0.75129804  0.50593145  1
  O  O223  1  0.86794179  0.25400688  0.00636665  1
  O  O224  1  0.88383789  0.26203287  0.51458670  1
  O  O225  1  0.86471119  0.74839148  0.00797523  1
  O  O226  1  0.87212475  0.76725590  0.51117821  1
  O  O227  1  0.13147839  0.24774722  0.49501491  1
  O  O228  1  0.12089341  0.24550019  0.98871288  1
  O  O229  1  0.13164945  0.75650427  0.47937322  1
  O  O230  1  0.12660036  0.74091205  0.99265466  1
  O  O231  1  0.61788332  0.25518828  0.48431185  1
  O  O232  1  0.63307650  0.24447564  0.99132609  1
  O  O233  1  0.63440568  0.73775365  0.50281650  1
  O  O234  1  0.62781852  0.73744090  0.99644693  1
  O  O235  1  0.48779685  0.24189437  0.13023180  1
  O  O236  1  0.48906289  0.24386370  0.62494536  1
  O  O237  1  0.50131351  0.75508224  0.13626548  1
  O  O238  1  0.48480631  0.74964821  0.63208456  1
  O  O239  1  0.99339982  0.24339072  0.13539772  1
  O  O240  1  0.99839617  0.24374499  0.63129182  1
  O  O241  1  0.99592391  0.74359518  0.13852725  1
  O  O242  1  0.99002687  0.75532829  0.63408531  1
  O  O243  1  0.00901599  0.24809507  0.36988329  1
  O  O244  1  0.00622635  0.25608540  0.86671546  1
  O  O245  1  0.01174119  0.75698186  0.36365350  1
  O  O246  1  0.01268820  0.75294861  0.86618604  1
  O  O247  1  0.50415933  0.25579186  0.37102019  1
  O  O248  1  0.50824176  0.26292812  0.87525130  1
  O  O249  1  0.49444324  0.76038255  0.36342837  1
  O  O250  1  0.50394962  0.75291452  0.86710716  1
  O  O251  1  0.24953382  0.13211629  0.49085844  1
  O  O252  1  0.25226150  0.12671145  0.98365324  1
  O  O253  1  0.24627367  0.63062032  0.48457680  1
  O  O254  1  0.23787384  0.62453956  0.99717335  1
  O  O255  1  0.76430791  0.13489853  0.49041580  1
  O  O256  1  0.73816598  0.13225292  1.00461111  1
  O  O257  1  0.74495113  0.62837507  0.49547247  1
  O  O258  1  0.73481354  0.63223298  1.00650108  1
  O  O259  1  0.26409916  0.38330379  -0.00852241  1
  O  O260  1  0.25639434  0.37082621  0.50399585  1
  O  O261  1  0.25729390  0.87366395  0.00651237  1
  O  O262  1  0.25506976  0.86695993  0.50437374  1
  O  O263  1  0.75057713  0.36584305  0.00096497  1
  O  O264  1  0.75923566  0.38235001  0.51121756  1
  O  O265  1  0.74802453  0.86366743  0.01709833  1
  O  O266  1  0.75930712  0.86566164  0.49264203  1
  O  O267  1  0.13819248  0.50153948  0.23717459  1
  O  O268  1  0.13137172  0.49846080  0.74156887  1
  O  O269  1  0.13707202  0.99568990  0.25656615  1
  O  O270  1  0.12101164  0.99169557  0.74132761  1
  O  O271  1  0.64193854  0.50095812  0.25379448  1
  O  O272  1  0.62203120  0.49527053  0.74112739  1
  O  O273  1  0.63502954  0.99380438  0.25205990  1
  O  O274  1  0.62916102  0.98859560  0.77393475  1
  O  O275  1  0.36498795  0.00371985  0.25400330  1
  O  O276  1  0.37689270  -0.00549904  0.76446023  1
  O  O277  1  0.36339270  0.49813195  0.25346881  1
  O  O278  1  0.36881675  0.50654604  0.74842829  1
  O  O279  1  0.87317378  0.00823733  0.25745308  1
  O  O280  1  0.87412851  0.00132979  0.76512255  1
  O  O281  1  0.86306761  0.51105602  0.24514520  1
  O  O282  1  0.87674174  0.52073737  0.74552634  1
  O  O283  1  0.12199102  0.36291958  0.38256401  1
  O  O284  1  0.11493899  0.36925973  0.86978504  1
  O  O285  1  0.13559187  0.86901542  0.35790751  1
  O  O286  1  0.12760496  0.86678485  0.86739123  1
  O  O287  1  0.61847759  0.36374796  0.36878507  1
  O  O288  1  0.61991161  0.36919088  0.86707924  1
  O  O289  1  0.61237448  0.87815960  0.35991754  1
  O  O290  1  0.60704183  0.85773657  0.88981851  1
  O  O291  1  0.37956829  0.12831487  0.12381060  1
  O  O292  1  0.37228359  0.13690836  0.62676030  1
  O  O293  1  0.37479893  0.62659022  0.12445709  1
  O  O294  1  0.36793276  0.63213797  0.63558212  1
  O  O295  1  0.88420937  0.13388335  0.13288126  1
  O  O296  1  0.88774836  0.13675506  0.62824956  1
  O  O297  1  0.88313811  0.63320587  0.13658619  1
  O  O298  1  0.87340647  0.63977372  0.63264213  1
  O  O299  1  0.26302269  0.24503841  0.13192673  1
  O  O300  1  0.25335241  0.25676829  0.62107407  1
  O  O301  1  0.25397232  0.76341153  0.12335450  1
  O  O302  1  0.25866501  0.75450806  0.61846307  1
  O  O303  1  0.76603578  0.24124283  0.11242034  1
  O  O304  1  0.76083379  0.26137509  0.62794084  1
  O  O305  1  0.75455372  0.75559017  0.12199507  1
  O  O306  1  0.75727589  0.74969702  0.61021278  1
  O  O307  1  0.24420999  0.24504144  0.37802018  1
  O  O308  1  0.23608445  0.24573045  0.86990339  1
  O  O309  1  0.24822582  0.74265451  0.37217589  1
  O  O310  1  0.23595598  0.74512044  0.87505120  1
  O  O311  1  0.73595287  0.24599430  0.36898050  1
  O  O312  1  0.74055122  0.25485330  0.88144434  1
  O  O313  1  0.75758202  0.73638495  0.38938475  1
  O  O314  1  0.74110772  0.75622645  0.88968138  1
  O  O315  1  0.00017979  0.13144462  0.01961021  1
  O  O316  1  0.00263224  0.11709139  0.51332130  1
  O  O317  1  0.00724803  0.63369729  0.01547226  1
  O  O318  1  0.00523424  0.64559125  0.49693110  1
  O  O319  1  0.50343181  0.12297176  0.00856385  1
  O  O320  1  0.49134387  0.12531779  0.51619765  1
  O  O321  1  0.50881957  0.61006727  -0.00316176  1
  O  O322  1  0.50779758  0.61500044  0.49124135  1
  O  O323  1  0.49528915  0.38329958  0.49073066  1
  O  O324  1  0.49818187  0.38561745  0.99315291  1
  O  O325  1  0.48886704  0.86964317  0.48763552  1
  O  O326  1  0.49236737  0.87856970  0.99532082  1
  O  O327  1  0.98742875  0.37840549  0.50068105  1
  O  O328  1  0.99738661  0.37025815  0.98329204  1
  O  O329  1  0.98447869  0.88208118  0.50027620  1
  O  O330  1  0.99813118  0.87333191  1.00058100  1
  O  O331  1  0.49762859  0.49062250  0.37940541  1
  O  O332  1  0.49979310  0.48787952  0.88043318  1
  O  O333  1  0.48553315  0.98640158  0.36310150  1
  O  O334  1  0.49223639  0.98989940  0.88083878  1
  O  O335  1  0.99965668  0.50426401  0.36800170  1
  O  O336  1  0.99775656  0.48581049  0.86710786  1
  O  O337  1  0.99221364  1.00904063  0.38696682  1
  O  O338  1  0.99204588  0.99584600  0.87774135  1
  O  O339  1  -0.00345589  0.01790492  0.12987653  1
  O  O340  1  0.00973228  0.00523666  0.61886614  1
  O  O341  1  0.01510905  0.51140235  0.13747980  1
  O  O342  1  0.01533035  0.49857103  0.63030793  1
  O  O343  1  0.50431517  0.00721508  0.12103470  1
  O  O344  1  0.48625721  0.01743999  0.62850160  1
  O  O345  1  0.50217857  0.49095375  0.11455166  1
  O  O346  1  0.50720699  0.49452152  0.61156164  1
  O  O347  1  0.25130693  0.38618728  0.25432530  1
  O  O348  1  0.24263593  0.38326898  0.74517984  1
  O  O349  1  0.24693646  0.88288775  0.24201313  1
  O  O350  1  0.23840233  0.86764281  0.74338285  1
  O  O351  1  0.75347829  0.39272961  0.25460193  1
  O  O352  1  0.73767768  0.37511030  0.73919655  1
  O  O353  1  0.74325004  0.87673048  0.24460636  1
  O  O354  1  0.73505256  0.88481747  0.76603809  1
  O  O355  1  0.25458979  0.11743182  0.25463860  1
  O  O356  1  0.25708346  0.12887553  0.76546041  1
  O  O357  1  0.25172148  0.61825602  0.25708459  1
  O  O358  1  0.25724868  0.61752583  0.75061700  1
  O  O359  1  0.76429907  0.12545205  0.25026919  1
  O  O360  1  0.75364528  0.11532343  0.74006903  1
  O  O361  1  0.75717421  0.61950219  0.25854278  1
  O  O362  1  0.76707327  0.63100128  0.74714275  1
  O  O363  1  0.37109283  0.11737873  0.36856444  1
  O  O364  1  0.37161395  0.11463684  0.87406203  1
  O  O365  1  0.36780777  0.61577158  0.36822354  1
  O  O366  1  0.37233390  0.62194022  0.86194218  1
  O  O367  1  0.87211233  0.12470872  0.36848882  1
  O  O368  1  0.88602426  0.11299111  0.87281436  1
  O  O369  1  0.86947128  0.62473377  0.36541206  1
  O  O370  1  0.88038178  0.63033763  0.86269532  1
  O  O371  1  0.11595877  0.38736200  0.11969582  1
  O  O372  1  0.13041583  0.38413738  0.63022368  1
  O  O373  1  0.13512750  0.87115385  0.13809791  1
  O  O374  1  0.13575126  0.88469257  0.63359182  1
  O  O375  1  0.62816282  0.32727627  0.14440098  1
  O  O376  1  0.62964780  0.38219826  0.62909514  1
  O  O377  1  0.63074352  0.88498450  0.13414546  1
  O  O378  1  0.60484660  0.89026133  0.60810260  1
  O  O379  1  0.11422032  0.24848581  0.26158874  1
  O  O380  1  0.11366192  0.25721874  0.75340893  1
  O  O381  1  0.12018274  0.75702005  0.25535138  1
  O  O382  1  0.11906277  0.75320740  0.75368117  1
  O  O383  1  0.60522859  0.23608784  0.26685101  1
  O  O384  1  0.62326038  0.25844091  0.75673400  1
  O  O385  1  0.61466978  0.75768596  0.24665583  1
  O  O386  1  0.61760414  0.74876284  0.75457361  1
  O  O387  1  0.38453952  0.24343195  0.24517339  1
  O  O388  1  0.37510573  0.25810607  0.73628718  1
  O  O389  1  0.39146297  0.74900750  0.24414501  1
  O  O390  1  0.37967560  0.74249802  0.74355015  1
  O  O391  1  0.87844943  0.24580090  0.24498236  1
  O  O392  1  0.88683405  0.25268279  0.74131260  1
  O  O393  1  0.88220017  0.74644806  0.25015046  1
  O  O394  1  0.88026396  0.74662721  0.74515773  1
  O  O395  1  0.38099882  0.49832731  0.49363445  1
  O  O396  1  0.38650529  0.49306721  0.99825054  1
  O  O397  1  0.37121548  0.99068087  0.48787412  1
  O  O398  1  0.38089639  0.98798538  0.99163695  1
  O  O399  1  0.87663742  0.49329815  0.50738122  1
  O  O400  1  0.87952133  0.50302672  1.00273526  1
  O  O401  1  0.88474047  0.99723366  0.49475331  1
  O  O402  1  0.88657587  1.00052275  0.99464945  1
  O  O403  1  0.12155793  0.00954696  -0.00028003  1
  O  O404  1  0.11810650  -0.00222275  0.50575991  1
  O  O405  1  0.12692370  0.50698309  0.01394667  1
  O  O406  1  0.12976151  0.50154643  0.51510303  1
  O  O407  1  0.61601022  0.01139200  0.00874268  1
  O  O408  1  0.62007820  0.00265707  0.47508007  1
  O  O409  1  0.61643750  0.51155550  -0.00053911  1
  O  O410  1  0.61740785  0.50386750  0.50517783  1
  O  O411  1  0.37687279  0.36488618  0.11269662  1
  O  O412  1  0.36939788  0.37044788  0.61816781  1
  O  O413  1  0.36954187  0.87295673  0.11439474  1
  O  O414  1  0.36848008  0.86742904  0.62001680  1
  O  O415  1  0.88512622  0.36222698  0.12549972  1
  O  O416  1  0.86843002  0.37339740  0.61867505  1
  O  O417  1  0.86565866  0.86920610  0.12700457  1
  O  O418  1  0.88031275  0.86841154  0.62414881  1
  O  O419  1  0.13352973  0.13399853  0.37704395  1
  O  O420  1  0.13175201  0.13528979  0.87181010  1
  O  O421  1  0.13561407  0.63575957  0.37023873  1
  O  O422  1  0.12132948  0.62882720  0.88493326  1
  O  O423  1  0.63983930  0.13595434  0.37674553  1
  O  O424  1  0.61250699  0.13827167  0.88464812  1
  O  O425  1  0.63472209  0.62153600  0.38814137  1
  O  O426  1  0.62041714  0.63647016  0.88256909  1
