# generated using pymatgen
data_V85Zn86O256
_symmetry_space_group_name_H-M   'P 1'
_cell_length_a   16.93577745
_cell_length_b   16.93119908
_cell_length_c   16.92920441
_cell_angle_alpha   89.92561029
_cell_angle_beta   90.00988583
_cell_angle_gamma   90.06223066
_symmetry_Int_Tables_number   1
_chemical_formula_structural   V85Zn86O256
_chemical_formula_sum   'V85 Zn86 O256'
_cell_volume   4854.32416318
_cell_formula_units_Z   1
loop_
 _symmetry_equiv_pos_site_id
 _symmetry_equiv_pos_as_xyz
  1  'x, y, z'
loop_
 _atom_site_type_symbol
 _atom_site_label
 _atom_site_symmetry_multiplicity
 _atom_site_fract_x
 _atom_site_fract_y
 _atom_site_fract_z
 _atom_site_occupancy
  V  V0  1  0.75595893  0.25640584  0.49828628  1
  V  V1  1  0.49549783  0.87885150  0.36796498  1
  V  V2  1  0.87928084  0.00065992  0.37819634  1
  V  V3  1  -0.01433098  0.38041190  0.37794513  1
  V  V4  1  0.62420088  0.87352656  0.24642741  1
  V  V5  1  0.12285072  0.12077328  0.50058164  1
  V  V6  1  0.37169998  0.63067462  0.74449675  1
  V  V7  1  0.87818476  0.62680342  0.75288883  1
  V  V8  1  0.88157478  0.87380361  0.49535555  1
  V  V9  1  0.12419399  0.25278242  0.37585459  1
  V  V10  1  0.00757409  0.76018226  0.75052724  1
  V  V11  1  0.61097976  0.73691576  0.38300808  1
  V  V12  1  0.24889219  0.87373733  0.12625040  1
  V  V13  1  0.75705475  0.12714369  0.87472848  1
  V  V14  1  0.25041540  0.50364822  0.75884954  1
  V  V15  1  0.12497458  0.37570514  0.74981578  1
  V  V16  1  0.87834508  0.61954195  0.24480687  1
  V  V17  1  0.24906499  0.87005180  0.62659326  1
  V  V18  1  0.12531050  0.75104156  0.36666498  1
  V  V19  1  0.87687255  0.26114523  0.62437711  1
  V  V20  1  0.25126985  0.38779906  0.12510073  1
  V  V21  1  0.75046063  0.87668642  0.62279788  1
  V  V22  1  0.25306527  0.74986637  0.49740326  1
  V  V23  1  0.49688844  0.74908385  0.73466719  1
  V  V24  1  0.88142564  0.49681516  0.88596248  1
  V  V25  1  0.74660094  -0.00173462  0.24727756  1
  V  V26  1  0.75072190  0.61735832  0.37156848  1
  V  V27  1  0.37284865  -0.00362873  0.88153903  1
  V  V28  1  0.11033831  0.50729131  0.12467665  1
  V  V29  1  0.74654513  0.74680388  0.49462744  1
  V  V30  1  0.49415474  0.87248105  0.88154567  1
  V  V31  1  0.49598333  0.37689828  0.39173397  1
  V  V32  1  0.00235365  0.62468117  0.62374338  1
  V  V33  1  -0.00284982  0.25196290  0.24291478  1
  V  V34  1  0.49887611  -0.00304050  0.50068443  1
  V  V35  1  0.49903254  0.12090464  0.62666854  1
  V  V36  1  0.12944241  0.75700137  0.87497196  1
  V  V37  1  0.62375614  0.87700334  0.74997273  1
  V  V38  1  0.74977401  0.62338167  0.87686406  1
  V  V39  1  0.76021142  -0.00105973  0.75640668  1
  V  V40  1  0.12017997  -0.00553187  0.62493426  1
  V  V41  1  0.00479414  0.87641872  0.36785346  1
  V  V42  1  0.12392390  0.25032406  0.87484105  1
  V  V43  1  0.87612796  0.75437641  0.12012421  1
  V  V44  1  0.50121722  0.49901499  -0.00356218  1
  V  V45  1  0.25686093  0.37769148  0.62385382  1
  V  V46  1  0.61529335  0.24686101  0.37053596  1
  V  V47  1  -0.01271888  0.87774507  0.87798609  1
  V  V48  1  0.12508489  0.12093916  0.00121914  1
  V  V49  1  0.50561134  0.36743134  0.87578900  1
  V  V50  1  0.37236994  0.12470419  0.74933853  1
  V  V51  1  0.75443477  0.25401202  -0.00439549  1
  V  V52  1  0.62615982  0.12260483  0.49916005  1
  V  V53  1  0.24928206  0.12484774  0.37019506  1
  V  V54  1  0.62409759  0.13076925  -0.00561749  1
  V  V55  1  0.50394693  -0.00026661  0.00556775  1
  V  V56  1  0.12258149  -0.00546759  0.12912146  1
  V  V57  1  0.61370871  0.36921292  0.24725311  1
  V  V58  1  0.87624486  0.75240624  0.62382183  1
  V  V59  1  0.75536397  0.36910930  0.12576482  1
  V  V60  1  -0.01291550  -0.00291245  -0.00288403  1
  V  V61  1  0.25369928  0.74616994  -0.00255466  1
  V  V62  1  0.62315102  0.75222099  0.87757509  1
  V  V63  1  0.50359058  0.12785530  0.12980774  1
  V  V64  1  0.25144913  0.25077079  0.00187435  1
  V  V65  1  0.37666729  0.25113837  0.13388967  1
  V  V66  1  0.62740568  0.49865040  0.13051237  1
  V  V67  1  0.11400952  0.62190533  -0.00595759  1
  V  V68  1  0.62706915  -0.00297235  0.62555222  1
  V  V69  1  0.37796289  0.87368258  0.50301664  1
  V  V70  1  0.51275761  0.24166534  0.75607501  1
  V  V71  1  0.37613377  0.75473364  0.12337976  1
  V  V72  1  0.00077961  0.75031072  0.24518552  1
  V  V73  1  0.25730160  0.25302281  0.50179908  1
  V  V74  1  0.75049109  0.87839208  0.11721138  1
  V  V75  1  0.12703691  0.62300831  0.49983772  1
  V  V76  1  0.37034370  0.49486779  0.39565150  1
  V  V77  1  0.60941311  0.40664108  0.73213899  1
  V  V78  1  0.12959712  0.38152410  0.25193778  1
  V  V79  1  0.37290443  0.60601478  0.24278072  1
  V  V80  1  0.24406992  -0.00631931  0.75157199  1
  V  V81  1  0.74995373  0.12387486  0.37463097  1
  V  V82  1  0.62672205  0.62612305  0.00367160  1
  V  V83  1  -0.00209608  0.12506091  0.62329317  1
  V  V84  1  0.87407228  0.12882954  0.24351784  1
  Zn  Zn85  1  -0.01345294  0.48730716  0.50321770  1
  Zn  Zn86  1  0.75451192  0.50215294  0.74101809  1
  Zn  Zn87  1  0.24517019  0.61542280  0.36462904  1
  Zn  Zn88  1  0.74960190  0.38157871  0.62349788  1
  Zn  Zn89  1  -0.00319916  0.25148709  0.75188165  1
  Zn  Zn90  1  0.75477825  0.75663098  -0.00133354  1
  Zn  Zn91  1  0.37558010  0.37698797  -0.00280321  1
  Zn  Zn92  1  0.62303014  0.52716034  0.59855245  1
  Zn  Zn93  1  0.37474376  0.50434692  0.87593057  1
  Zn  Zn94  1  0.00403763  0.38164100  0.88094771  1
  Zn  Zn95  1  0.49912954  0.62484345  0.12558255  1
  Zn  Zn96  1  0.37941397  0.25545068  0.62566613  1
  Zn  Zn97  1  0.24591098  -0.00644055  0.25120652  1
  Zn  Zn98  1  0.87860819  0.12561020  0.75283448  1
  Zn  Zn99  1  0.36949781  0.00003179  0.37108546  1
  Zn  Zn100  1  0.88519940  0.37202563  0.01130783  1
  Zn  Zn101  1  0.37790405  0.12416226  0.25082133  1
  Zn  Zn102  1  0.49816465  0.74729689  0.24294838  1
  Zn  Zn103  1  -0.00394494  0.12795412  0.12156201  1
  Zn  Zn104  1  0.12465173  0.49923916  0.62480400  1
  Zn  Zn105  1  0.75370727  0.49487364  0.25251131  1
  Zn  Zn106  1  0.24930244  0.12264436  0.87522477  1
  Zn  Zn107  1  0.18393952  0.19174717  0.18532822  1
  Zn  Zn108  1  0.18841176  0.18711573  0.68727420  1
  Zn  Zn109  1  0.19063589  0.68372875  0.18530550  1
  Zn  Zn110  1  0.18878105  0.68919213  0.68847279  1
  Zn  Zn111  1  0.68505878  0.18723385  0.18320156  1
  Zn  Zn112  1  0.69250202  0.18575964  0.68488710  1
  Zn  Zn113  1  0.68822826  0.68989719  0.19075643  1
  Zn  Zn114  1  0.69027275  0.68944750  0.69062672  1
  Zn  Zn115  1  0.31147029  0.31690340  0.31324021  1
  Zn  Zn116  1  0.31584694  0.31365807  0.81383936  1
  Zn  Zn117  1  0.31045939  0.81123758  0.30688041  1
  Zn  Zn118  1  0.31369135  0.81139484  0.81264946  1
  Zn  Zn119  1  0.80783600  0.31035523  0.30917296  1
  Zn  Zn120  1  0.80182368  0.31495100  0.80705903  1
  Zn  Zn121  1  0.81191462  0.80780048  0.31037707  1
  Zn  Zn122  1  0.81250583  0.81077403  0.81294609  1
  Zn  Zn123  1  0.18578600  0.43841104  0.43957897  1
  Zn  Zn124  1  0.18544951  0.43862184  0.93978107  1
  Zn  Zn125  1  0.18505110  0.93755102  0.43849008  1
  Zn  Zn126  1  0.18490891  0.93157885  0.94226601  1
  Zn  Zn127  1  0.68793098  0.43321944  0.43571027  1
  Zn  Zn128  1  0.68580414  0.43613808  0.93083594  1
  Zn  Zn129  1  0.68621820  0.93119629  0.43442024  1
  Zn  Zn130  1  0.68319034  0.94397746  0.93694589  1
  Zn  Zn131  1  0.31287844  0.06261306  0.06444291  1
  Zn  Zn132  1  0.30983086  0.05977124  0.56123240  1
  Zn  Zn133  1  0.31038348  0.56681768  0.05646179  1
  Zn  Zn134  1  0.31200243  0.56729726  0.57123847  1
  Zn  Zn135  1  0.80822510  0.06419741  0.06359701  1
  Zn  Zn136  1  0.81572942  0.06394752  0.56134881  1
  Zn  Zn137  1  0.81215130  0.56295612  0.06558273  1
  Zn  Zn138  1  0.81195382  0.55937695  0.55925120  1
  Zn  Zn139  1  0.44151418  0.43563586  0.18439808  1
  Zn  Zn140  1  0.43682643  0.44122044  0.68743935  1
  Zn  Zn141  1  0.42932228  0.94043169  0.18492022  1
  Zn  Zn142  1  0.43356929  0.93430845  0.68924737  1
  Zn  Zn143  1  0.93896268  0.43662011  0.19000079  1
  Zn  Zn144  1  0.93955283  0.43997874  0.69263130  1
  Zn  Zn145  1  0.93522040  0.93805633  0.18673767  1
  Zn  Zn146  1  0.94009344  0.93744750  0.68647777  1
  Zn  Zn147  1  0.06131424  0.06355825  0.31184053  1
  Zn  Zn148  1  0.06207848  0.06177945  0.81267978  1
  Zn  Zn149  1  0.06030758  0.56276152  0.31087258  1
  Zn  Zn150  1  0.06429692  0.56632573  0.81287033  1
  Zn  Zn151  1  0.56289108  0.05967503  0.30951014  1
  Zn  Zn152  1  0.56573457  0.06141410  0.81643481  1
  Zn  Zn153  1  0.56029142  0.56045286  0.42110904  1
  Zn  Zn154  1  0.55786277  0.56860454  0.81118034  1
  Zn  Zn155  1  0.43614742  0.18564055  0.43786008  1
  Zn  Zn156  1  0.43402491  0.18567767  0.93829597  1
  Zn  Zn157  1  0.42455218  0.69114243  0.42155903  1
  Zn  Zn158  1  0.43482318  0.68390981  0.93465379  1
  Zn  Zn159  1  0.93939492  0.18962621  0.43600306  1
  Zn  Zn160  1  0.93677349  0.18946024  0.93887728  1
  Zn  Zn161  1  0.92230622  0.65716953  0.44831457  1
  Zn  Zn162  1  0.94014220  0.68966797  0.93834931  1
  Zn  Zn163  1  0.06385300  0.31640347  0.06154759  1
  Zn  Zn164  1  0.06573972  0.31057815  0.56175698  1
  Zn  Zn165  1  0.06310927  0.81333841  0.06036170  1
  Zn  Zn166  1  0.06408028  0.81008523  0.55641827  1
  Zn  Zn167  1  0.56581879  0.30861849  0.06010973  1
  Zn  Zn168  1  0.56412368  0.30714719  0.56490050  1
  Zn  Zn169  1  0.56342935  0.81395313  0.06312941  1
  Zn  Zn170  1  0.56015719  0.70323041  0.55994830  1
  O  O171  1  0.12275443  0.12057752  0.11306192  1
  O  O172  1  0.12029797  0.11891878  0.61888196  1
  O  O173  1  0.12743420  0.61250532  0.11799973  1
  O  O174  1  0.11934137  0.62503523  0.61942894  1
  O  O175  1  0.61447722  0.12915709  0.11217913  1
  O  O176  1  0.62089626  0.11542689  0.61874644  1
  O  O177  1  0.62534254  0.61762375  0.11959476  1
  O  O178  1  0.61927871  0.63625741  0.62618035  1
  O  O179  1  0.38075822  0.38534358  0.37354361  1
  O  O180  1  0.38901386  0.37959430  0.87578716  1
  O  O181  1  0.37948290  0.87704469  0.37784452  1
  O  O182  1  0.38555399  0.88179535  0.87274681  1
  O  O183  1  0.88685214  0.37262595  0.36940023  1
  O  O184  1  0.87205941  0.39278464  0.86996867  1
  O  O185  1  0.88005414  0.88023365  0.37795168  1
  O  O186  1  0.88738868  0.86893398  0.87632585  1
  O  O187  1  0.24532445  0.01012674  0.37266726  1
  O  O188  1  0.25472711  -0.00530736  0.86937889  1
  O  O189  1  0.26418232  0.49702685  0.37909888  1
  O  O190  1  0.25154241  0.49546370  0.86257177  1
  O  O191  1  0.75662806  0.00407356  0.36864136  1
  O  O192  1  0.74745019  0.00754644  0.86560745  1
  O  O193  1  0.74684322  0.51341454  0.37296882  1
  O  O194  1  0.76155647  0.51434506  0.87788282  1
  O  O195  1  0.24385696  0.48974081  0.11712805  1
  O  O196  1  0.24614858  0.49327463  0.63486221  1
  O  O197  1  0.24130212  0.99132969  0.12070239  1
  O  O198  1  0.24141359  0.99203428  0.63156968  1
  O  O199  1  0.74170823  0.49000993  0.12384915  1
  O  O200  1  0.74200318  0.50056856  0.62181938  1
  O  O201  1  0.75445342  0.99250591  0.13631226  1
  O  O202  1  0.74647657  0.99591223  0.63028829  1
  O  O203  1  0.00758451  0.36990363  0.25767666  1
  O  O204  1  0.01356094  0.37419772  0.75496485  1
  O  O205  1  -0.00487607  0.86838057  0.26038842  1
  O  O206  1  -0.00198210  0.86651527  0.75734312  1
  O  O207  1  0.51104346  0.37427152  0.25398784  1
  O  O208  1  0.50471155  0.35853380  0.75633942  1
  O  O209  1  0.50727309  0.88204115  0.25236280  1
  O  O210  1  0.50099879  0.86673776  0.75869043  1
  O  O211  1  0.50143772  0.11982698  0.23395447  1
  O  O212  1  0.49154823  0.12306544  0.74807305  1
  O  O213  1  0.47740254  0.62743550  0.24525349  1
  O  O214  1  0.49532116  0.64357525  0.75065658  1
  O  O215  1  0.99158069  0.13406019  0.24999665  1
  O  O216  1  1.00105221  0.12689998  0.73788847  1
  O  O217  1  0.98640234  0.63378373  0.25402170  1
  O  O218  1  0.99772225  0.63505045  0.74123167  1
  O  O219  1  0.36172721  0.24998335  0.00517337  1
  O  O220  1  0.36091643  0.24309351  0.50504449  1
  O  O221  1  0.36651263  0.73912162  0.01026046  1
  O  O222  1  0.36082094  0.75657228  0.49259155  1
  O  O223  1  0.86044659  0.25127609  -0.00109107  1
  O  O224  1  0.86621271  0.24220397  0.50775315  1
  O  O225  1  0.87492823  0.74462008  0.01521774  1
  O  O226  1  0.86792727  0.75543743  0.50280374  1
  O  O227  1  0.13431588  0.23868372  0.49725947  1
  O  O228  1  0.13437295  0.24291542  0.99611182  1
  O  O229  1  0.13549650  0.74506398  0.48844649  1
  O  O230  1  0.12881946  0.74079152  0.99459987  1
  O  O231  1  0.63272386  0.24051793  0.49170753  1
  O  O232  1  0.63641283  0.24050181  0.99861500  1
  O  O233  1  0.63618350  0.76609233  0.48801790  1
  O  O234  1  0.62732431  0.74195600  0.99565371  1
  O  O235  1  0.48849540  0.24125461  0.11559328  1
  O  O236  1  0.49709914  0.23707517  0.63422569  1
  O  O237  1  0.49090164  0.74767142  0.12263216  1
  O  O238  1  0.49836418  0.76482025  0.63746645  1
  O  O239  1  1.00601589  0.24918587  0.13912097  1
  O  O240  1  0.99343937  0.24391906  0.62601284  1
  O  O241  1  0.99464431  0.76024335  0.13756927  1
  O  O242  1  0.99689170  0.75030894  0.63394687  1
  O  O243  1  0.00603385  0.25894852  0.36683769  1
  O  O244  1  0.01462574  0.24700725  0.87288843  1
  O  O245  1  0.00724141  0.75728493  0.36292393  1
  O  O246  1  0.00591896  0.75716580  0.86894168  1
  O  O247  1  0.50969036  0.25201988  0.37712315  1
  O  O248  1  0.49559335  0.25458487  0.86893448  1
  O  O249  1  0.49891220  0.76718022  0.36206526  1
  O  O250  1  0.50431572  0.75936258  0.87505875  1
  O  O251  1  0.24333026  0.13058117  0.49166989  1
  O  O252  1  0.24259875  0.13174313  0.99857130  1
  O  O253  1  0.24305659  0.63352549  0.50137629  1
  O  O254  1  0.23699312  0.63893963  1.00324717  1
  O  O255  1  0.74422296  0.12848360  0.49247707  1
  O  O256  1  0.74382547  0.12988762  0.99462681  1
  O  O257  1  0.75223170  0.64016545  0.48771163  1
  O  O258  1  0.74039433  0.62731810  0.99554746  1
  O  O259  1  0.25022352  0.36782123  0.00738686  1
  O  O260  1  0.24053686  0.36533184  0.51164216  1
  O  O261  1  0.24399591  0.85828941  0.01050794  1
  O  O262  1  0.25791063  0.86997795  0.50335601  1
  O  O263  1  0.74952525  0.36857398  0.00515225  1
  O  O264  1  0.74923132  0.35987297  0.50028099  1
  O  O265  1  0.74066644  0.87809457  0.01339467  1
  O  O266  1  0.76227587  0.86778731  0.49997128  1
  O  O267  1  0.12204338  0.49582724  0.23646470  1
  O  O268  1  0.13172191  0.49457562  0.75034915  1
  O  O269  1  0.12499370  1.00859382  0.23297358  1
  O  O270  1  0.13693976  1.00298100  0.74273762  1
  O  O271  1  0.62611014  0.49030931  0.23443515  1
  O  O272  1  0.64062064  0.50327175  0.76878340  1
  O  O273  1  0.63915426  0.99101099  0.25673350  1
  O  O274  1  0.63293127  0.99514712  0.74502163  1
  O  O275  1  0.36462580  0.00635058  0.25175419  1
  O  O276  1  0.36555626  0.00372483  0.75948238  1
  O  O277  1  0.37197952  0.50481441  0.24465900  1
  O  O278  1  0.36790670  0.50960712  0.75118884  1
  O  O279  1  0.86661526  0.00495349  0.26013289  1
  O  O280  1  0.86332581  0.00128518  0.74438166  1
  O  O281  1  0.87510757  0.51570875  0.24600494  1
  O  O282  1  0.87464566  0.51477435  0.75688060  1
  O  O283  1  0.12288847  0.37113746  0.36611788  1
  O  O284  1  0.12651315  0.36752847  0.86826990  1
  O  O285  1  0.11554559  0.86607405  0.37960087  1
  O  O286  1  0.11373572  0.86157709  0.88125612  1
  O  O287  1  0.61596769  0.36593680  0.36668559  1
  O  O288  1  0.61049548  0.38007369  0.85959577  1
  O  O289  1  0.61498470  0.86764560  0.36550660  1
  O  O290  1  0.61608617  0.87257548  0.86927456  1
  O  O291  1  0.38210562  0.13433589  0.12465725  1
  O  O292  1  0.37952984  0.11866906  0.63619994  1
  O  O293  1  0.37409604  0.62871041  0.13140116  1
  O  O294  1  0.38393140  0.62092735  0.64290765  1
  O  O295  1  0.87587799  0.12075775  0.13959480  1
  O  O296  1  0.88552168  0.13006206  0.62558562  1
  O  O297  1  0.86881563  0.63484973  0.13788058  1
  O  O298  1  0.88300113  0.63434904  0.63569648  1
  O  O299  1  0.25426910  0.25855550  0.11784931  1
  O  O300  1  0.25156406  0.25725957  0.61900754  1
  O  O301  1  0.25494149  0.75482934  0.11780428  1
  O  O302  1  0.24229008  0.76258303  0.61509638  1
  O  O303  1  0.74403109  0.26017139  0.11491117  1
  O  O304  1  0.76166610  0.24532735  0.61487219  1
  O  O305  1  0.75726409  0.76057442  0.12493629  1
  O  O306  1  0.75776158  0.75833158  0.61760968  1
  O  O307  1  0.24386536  0.24700344  0.38309232  1
  O  O308  1  0.24132768  0.24957676  0.88266943  1
  O  O309  1  0.24147540  0.74841942  0.37914210  1
  O  O310  1  0.24195494  0.75681266  0.88288034  1
  O  O311  1  0.74234659  0.24246371  0.38085215  1
  O  O312  1  0.74973010  0.24129936  0.88144995  1
  O  O313  1  0.73900141  0.74636313  0.37935148  1
  O  O314  1  0.74478235  0.74142445  0.87838595  1
  O  O315  1  0.00627921  0.11574265  0.00046510  1
  O  O316  1  0.00947296  0.12993558  0.51137138  1
  O  O317  1  0.01557321  0.63091669  0.00362398  1
  O  O318  1  0.01561929  0.64800324  0.51673951  1
  O  O319  1  0.50647020  0.12002965  0.00256250  1
  O  O320  1  0.50521113  0.11745960  0.50589348  1
  O  O321  1  0.51248872  0.61770725  -0.00048398  1
  O  O322  1  0.52340593  0.65947457  0.46312261  1
  O  O323  1  0.49768888  0.36318289  0.49081369  1
  O  O324  1  0.50241096  0.38063547  0.99274622  1
  O  O325  1  0.48552018  0.87798279  0.48864335  1
  O  O326  1  0.50687361  0.88549414  0.99166374  1
  O  O327  1  1.00377948  0.37233271  0.48418658  1
  O  O328  1  0.99612743  0.36961923  0.99325028  1
  O  O329  1  0.98775660  0.86705603  0.48760452  1
  O  O330  1  1.00117655  0.88919100  0.99440360  1
  O  O331  1  0.48179015  0.48880204  0.37389816  1
  O  O332  1  0.50225650  0.49471389  0.88558899  1
  O  O333  1  0.49939167  0.99137725  0.38009257  1
  O  O334  1  0.49228349  0.99287216  0.88123014  1
  O  O335  1  1.00407430  0.48235045  0.37280041  1
  O  O336  1  0.98470905  0.50414861  0.87111208  1
  O  O337  1  0.99164557  0.99113231  0.36969558  1
  O  O338  1  1.00469625  0.99312122  0.88719944  1
  O  O339  1  0.00504651  0.00056783  0.11452718  1
  O  O340  1  0.01241972  0.00624562  0.62846375  1
  O  O341  1  0.01214150  0.49747062  0.12310977  1
  O  O342  1  0.00226365  0.51120838  0.62310267  1
  O  O343  1  0.48957490  0.00969425  0.11072000  1
  O  O344  1  0.50600021  0.00092733  0.62136282  1
  O  O345  1  0.50911157  0.49914864  0.11199594  1
  O  O346  1  0.54204687  0.47176872  0.66734205  1
  O  O347  1  0.23667816  0.37015476  0.24075606  1
  O  O348  1  0.24268306  0.38139766  0.74547221  1
  O  O349  1  0.24762869  0.87385500  0.23303260  1
  O  O350  1  0.25559096  0.88103115  0.73845006  1
  O  O351  1  0.73911594  0.37573997  0.24319301  1
  O  O352  1  0.73406606  0.38332867  0.74589788  1
  O  O353  1  0.74353622  0.88099569  0.24565410  1
  O  O354  1  0.74664599  0.88100780  0.74645463  1
  O  O355  1  0.24392107  0.13061661  0.26387910  1
  O  O356  1  0.25632425  0.11496217  0.75128251  1
  O  O357  1  0.26730775  0.62951465  0.25031476  1
  O  O358  1  0.26166903  0.62002797  0.74528945  1
  O  O359  1  0.75443518  0.11835352  0.25395948  1
  O  O360  1  0.75086442  0.11567926  0.75799712  1
  O  O361  1  0.75880896  0.62192291  0.25345444  1
  O  O362  1  0.76280342  0.63052650  0.76012692  1
  O  O363  1  0.36412907  0.12433866  0.37238236  1
  O  O364  1  0.37146984  0.11571122  0.86502394  1
  O  O365  1  0.37041642  0.60752068  0.36325931  1
  O  O366  1  0.38313789  0.62075486  0.85486365  1
  O  O367  1  0.87203647  0.11698769  0.36828870  1
  O  O368  1  0.86253986  0.12667177  0.87354272  1
  O  O369  1  0.86079692  0.64301080  0.35310650  1
  O  O370  1  0.87090851  0.62169149  0.87173334  1
  O  O371  1  0.13096603  0.38653208  0.13031340  1
  O  O372  1  0.13260508  0.37541778  0.63427680  1
  O  O373  1  0.13133608  0.88515755  0.11951940  1
  O  O374  1  0.13232052  0.88522162  0.61442192  1
  O  O375  1  0.63067075  0.37816598  0.12991886  1
  O  O376  1  0.63305762  0.35368039  0.64159388  1
  O  O377  1  0.63257081  0.86936113  0.13941741  1
  O  O378  1  0.63521437  0.88411622  0.63304341  1
  O  O379  1  0.11724153  0.25950043  0.25536639  1
  O  O380  1  0.12769195  0.25734558  0.75884615  1
  O  O381  1  0.11808415  0.74065774  0.25866218  1
  O  O382  1  0.11747587  0.74490951  0.76049838  1
  O  O383  1  0.63026830  0.25541298  0.26009509  1
  O  O384  1  0.61191284  0.23064679  0.75314353  1
  O  O385  1  0.61978024  0.75720705  0.25932402  1
  O  O386  1  0.61351738  0.75785952  0.75761771  1
  O  O387  1  0.36926866  0.24827649  0.23711753  1
  O  O388  1  0.37942542  0.23709758  0.74931825  1
  O  O389  1  0.37485538  0.74775089  0.23414705  1
  O  O390  1  0.38535204  0.74350672  0.75109919  1
  O  O391  1  0.88273814  0.24015421  0.25644493  1
  O  O392  1  0.87514183  0.24772207  0.74007385  1
  O  O393  1  0.88211577  0.74565124  0.23955997  1
  O  O394  1  0.88463671  0.74239669  0.74752094  1
  O  O395  1  0.37485048  0.50592743  0.49389576  1
  O  O396  1  0.38569485  0.50065776  0.99764202  1
  O  O397  1  0.37998438  0.99212393  0.49613312  1
  O  O398  1  0.38085632  1.00738098  0.98607315  1
  O  O399  1  0.89458481  0.54915071  0.48793579  1
  O  O400  1  0.87307260  0.50041631  0.98849597  1
  O  O401  1  0.87064543  0.99118782  0.48633095  1
  O  O402  1  0.88886394  1.00564908  1.00317678  1
  O  O403  1  0.11886427  0.00699580  0.00684219  1
  O  O404  1  0.13017428  0.01294319  0.50939122  1
  O  O405  1  0.12807509  0.51382597  0.00695256  1
  O  O406  1  0.11902317  0.51439629  0.50064152  1
  O  O407  1  0.61276923  0.01168290  -0.00103060  1
  O  O408  1  0.61967818  0.00081531  0.50449861  1
  O  O409  1  0.62175562  0.50627424  0.00580936  1
  O  O410  1  0.61364878  0.49281493  0.49216192  1
  O  O411  1  0.36814214  0.36884936  0.12152278  1
  O  O412  1  0.36191739  0.37433878  0.63115546  1
  O  O413  1  0.36566982  0.86595708  0.12122476  1
  O  O414  1  0.36362815  0.88053395  0.61340819  1
  O  O415  1  0.86040680  0.38007939  0.12827457  1
  O  O416  1  0.87511802  0.36534563  0.62831014  1
  O  O417  1  0.86299595  0.86772023  0.13033098  1
  O  O418  1  0.87267026  0.87215662  0.61483860  1
  O  O419  1  0.12723350  0.13091384  0.38314858  1
  O  O420  1  0.12798444  0.13018499  0.88488775  1
  O  O421  1  0.12626784  0.63101699  0.38169887  1
  O  O422  1  0.12093587  0.63469550  0.88726158  1
  O  O423  1  0.62803010  0.12970658  0.37788193  1
  O  O424  1  0.63569085  0.11975506  0.88706857  1
  O  O425  1  0.63613431  0.63578434  0.36071318  1
  O  O426  1  0.63302885  0.63123868  0.88257484  1
