# generated using pymatgen
data_V85Zn86O256
_symmetry_space_group_name_H-M   'P 1'
_cell_length_a   16.93443732
_cell_length_b   16.92737181
_cell_length_c   16.94827758
_cell_angle_alpha   89.96804777
_cell_angle_beta   89.95754874
_cell_angle_gamma   89.97090771
_symmetry_Int_Tables_number   1
_chemical_formula_structural   V85Zn86O256
_chemical_formula_sum   'V85 Zn86 O256'
_cell_volume   4858.31455655
_cell_formula_units_Z   1
loop_
 _symmetry_equiv_pos_site_id
 _symmetry_equiv_pos_as_xyz
  1  'x, y, z'
loop_
 _atom_site_type_symbol
 _atom_site_label
 _atom_site_symmetry_multiplicity
 _atom_site_fract_x
 _atom_site_fract_y
 _atom_site_fract_z
 _atom_site_occupancy
  V  V0  1  0.51280712  0.12577820  0.62841620  1
  V  V1  1  0.50471388  -0.00377879  -0.00459041  1
  V  V2  1  0.86805718  0.50549785  0.37454412  1
  V  V3  1  0.74843220  -0.00239641  0.25365128  1
  V  V4  1  0.49888928  0.24059821  0.25636095  1
  V  V5  1  0.25406847  0.38105394  0.63144633  1
  V  V6  1  0.38716058  0.87054990  0.50083289  1
  V  V7  1  0.87678221  0.25239965  0.12429625  1
  V  V8  1  0.62640659  0.36801415  0.25079211  1
  V  V9  1  0.87490787  0.37241454  -0.00121771  1
  V  V10  1  0.49523061  0.37713986  0.87525917  1
  V  V11  1  0.37538359  0.23836590  0.63235604  1
  V  V12  1  0.37697919  0.37303078  0.50279076  1
  V  V13  1  0.13285920  0.75184582  0.37406758  1
  V  V14  1  0.87662620  0.12793175  0.25180195  1
  V  V15  1  0.75011019  0.49738268  0.74540446  1
  V  V16  1  0.12882977  0.62948397  0.50029036  1
  V  V17  1  0.86705957  0.37485117  0.50433473  1
  V  V18  1  0.75046915  0.75021390  -0.00084837  1
  V  V19  1  0.74387253  0.50918955  0.25258251  1
  V  V20  1  0.87044831  0.63184786  0.74693561  1
  V  V21  1  0.74902107  0.87493994  0.12476369  1
  V  V22  1  -0.00324007  0.88781454  0.88184350  1
  V  V23  1  0.37526372  0.87422934  0.01138269  1
  V  V24  1  -0.00133390  0.74780766  0.24654808  1
  V  V25  1  0.12841911  0.12789286  0.49797202  1
  V  V26  1  0.37021671  0.50019610  0.37055087  1
  V  V27  1  0.25133512  0.37991650  0.12813436  1
  V  V28  1  0.24835227  0.61226645  0.87052068  1
  V  V29  1  0.25201125  0.00155331  0.24101200  1
  V  V30  1  0.49244763  0.74177150  0.24997657  1
  V  V31  1  0.74562608  0.24789284  0.00175267  1
  V  V32  1  0.24989382  0.24980649  -0.00012353  1
  V  V33  1  0.38010716  -0.01007765  0.87249827  1
  V  V34  1  0.25915220  0.00426570  0.74769011  1
  V  V35  1  0.12267521  0.11804069  -0.00151658  1
  V  V36  1  0.87351454  0.25115044  0.62851829  1
  V  V37  1  -0.00079033  0.50100266  0.50104033  1
  V  V38  1  0.62925033  0.37045372  0.74931433  1
  V  V39  1  0.37419494  0.61011298  0.75490542  1
  V  V40  1  0.25465606  0.75288519  0.50635331  1
  V  V41  1  0.87858922  0.12645516  0.75486140  1
  V  V42  1  0.50541097  0.36902692  0.37641674  1
  V  V43  1  -0.00052286  0.37733668  0.37564960  1
  V  V44  1  0.12818993  0.50351143  0.63071153  1
  V  V45  1  0.00082391  0.25133828  0.24826566  1
  V  V46  1  0.73794596  0.12870081  0.37829780  1
  V  V47  1  -0.00300014  0.63612162  0.62305543  1
  V  V48  1  0.26166728  0.12763679  0.87122457  1
  V  V49  1  0.11578842  0.24840216  0.87120429  1
  V  V50  1  0.12287647  0.50610037  0.12351741  1
  V  V51  1  0.00370841  0.00011922  0.49831553  1
  V  V52  1  0.24731119  0.75394611  0.00219764  1
  V  V53  1  0.51050320  0.00229737  0.49453622  1
  V  V54  1  0.37384087  0.24526492  0.13012704  1
  V  V55  1  0.12488424  0.37393419  0.74924134  1
  V  V56  1  0.74935753  -0.00420435  0.75216886  1
  V  V57  1  0.87217887  0.50012731  0.87380990  1
  V  V58  1  0.49136499  0.76153321  0.75216810  1
  V  V59  1  0.74201176  0.24112703  0.50053157  1
  V  V60  1  0.63163299  0.62965971  0.49188423  1
  V  V61  1  0.49054411  0.50327713  -0.00247619  1
  V  V62  1  0.00032996  0.11392806  0.12128912  1
  V  V63  1  0.50067602  0.49927874  0.50058370  1
  V  V64  1  0.61907864  0.50170972  0.12305607  1
  V  V65  1  0.62580287  0.49644589  0.62545671  1
  V  V66  1  0.75269960  0.12098354  0.87817577  1
  V  V67  1  0.25192293  0.25043501  0.50177120  1
  V  V68  1  0.00153487  0.87378698  0.37511541  1
  V  V69  1  0.61914015  0.76310643  0.86957902  1
  V  V70  1  0.61883005  0.62776438  0.00032184  1
  V  V71  1  0.87827479  -0.00048447  0.37472559  1
  V  V72  1  0.62499986  0.00649163  0.12232041  1
  V  V73  1  -0.00445799  0.75530489  0.75201653  1
  V  V74  1  -0.00107013  0.37375777  0.86790673  1
  V  V75  1  0.12846995  0.38094015  0.24948734  1
  V  V76  1  0.13131648  0.00215344  0.62354783  1
  V  V77  1  0.37666758  0.00398019  0.37117170  1
  V  V78  1  0.62924191  -0.01313245  0.62920949  1
  V  V79  1  0.50033069  0.12497947  0.12103373  1
  V  V80  1  0.62348373  0.24374718  0.87861350  1
  V  V81  1  0.00194325  0.13446347  0.63065878  1
  V  V82  1  0.49399809  0.62719649  0.62699465  1
  V  V83  1  0.12925329  0.87535733  0.74706054  1
  V  V84  1  0.12620958  0.25271285  0.37409508  1
  Zn  Zn85  1  0.62386127  0.76790042  0.37449856  1
  Zn  Zn86  1  0.13605264  0.87230291  0.24056311  1
  Zn  Zn87  1  0.12003838  0.62491881  -0.00662991  1
  Zn  Zn88  1  0.37454904  0.37299250  -0.00488021  1
  Zn  Zn89  1  0.77797998  0.84376320  0.64325423  1
  Zn  Zn90  1  0.86623217  0.63085460  0.24970677  1
  Zn  Zn91  1  0.12778458  0.75045072  0.87230511  1
  Zn  Zn92  1  0.87256882  0.74907509  0.12462648  1
  Zn  Zn93  1  0.60884845  0.87790340  0.25819299  1
  Zn  Zn94  1  0.25759500  0.87171714  0.62711438  1
  Zn  Zn95  1  0.33835708  0.58961646  0.21812018  1
  Zn  Zn96  1  -0.00289347  0.50315295  -0.00083459  1
  Zn  Zn97  1  0.25680342  0.62854294  0.37239213  1
  Zn  Zn98  1  0.74584828  0.62580677  0.87354069  1
  Zn  Zn99  1  -0.00853706  0.62564967  0.11887978  1
  Zn  Zn100  1  0.25750818  0.13004986  0.36861780  1
  Zn  Zn101  1  0.87526736  0.88999154  -0.00065417  1
  Zn  Zn102  1  0.75011561  0.37576818  0.12598013  1
  Zn  Zn103  1  0.76883542  0.76200505  0.49986514  1
  Zn  Zn104  1  0.49642518  0.24384140  0.75539128  1
  Zn  Zn105  1  0.12928021  -0.00889569  0.11665641  1
  Zn  Zn106  1  0.38323148  0.72871694  0.12187669  1
  Zn  Zn107  1  0.18829656  0.18340176  0.18818636  1
  Zn  Zn108  1  0.19060442  0.18917980  0.68965068  1
  Zn  Zn109  1  0.18980625  0.68855397  0.18922044  1
  Zn  Zn110  1  0.18929051  0.68913686  0.68892449  1
  Zn  Zn111  1  0.68698198  0.18637254  0.18869299  1
  Zn  Zn112  1  0.69251155  0.18619945  0.68734411  1
  Zn  Zn113  1  0.67488859  0.68990467  0.18698883  1
  Zn  Zn114  1  0.68068955  0.68631717  0.68541822  1
  Zn  Zn115  1  0.31520880  0.31455324  0.31235137  1
  Zn  Zn116  1  0.31127137  0.31366154  0.81033465  1
  Zn  Zn117  1  0.32345865  0.81715925  0.31174028  1
  Zn  Zn118  1  0.31391784  0.80935698  0.81632784  1
  Zn  Zn119  1  0.81062487  0.31592069  0.31638488  1
  Zn  Zn120  1  0.81124481  0.30938869  0.81284981  1
  Zn  Zn121  1  0.80903803  0.81110825  0.31956017  1
  Zn  Zn122  1  0.81414074  0.81326870  0.82067489  1
  Zn  Zn123  1  0.18801360  0.43751322  0.44373795  1
  Zn  Zn124  1  0.18525775  0.43654089  0.94034759  1
  Zn  Zn125  1  0.19448134  0.93468907  0.43324504  1
  Zn  Zn126  1  0.19031598  0.93484675  0.93274169  1
  Zn  Zn127  1  0.68697785  0.43553860  0.43816747  1
  Zn  Zn128  1  0.68445575  0.43624787  0.93548453  1
  Zn  Zn129  1  0.69198585  0.92532911  0.44216775  1
  Zn  Zn130  1  0.68675855  0.93865893  0.93893390  1
  Zn  Zn131  1  0.31710116  0.06496515  0.05960058  1
  Zn  Zn132  1  0.31864274  0.06061432  0.55827992  1
  Zn  Zn133  1  0.30848714  0.56047634  0.04886318  1
  Zn  Zn134  1  0.31527246  0.56438941  0.56133866  1
  Zn  Zn135  1  0.80988028  0.06601386  0.06544631  1
  Zn  Zn136  1  0.81916462  -0.02565540  0.56108047  1
  Zn  Zn137  1  0.80772808  0.56387981  0.06495664  1
  Zn  Zn138  1  0.81116840  0.56718980  0.56485396  1
  Zn  Zn139  1  0.44112484  0.43202883  0.18568006  1
  Zn  Zn140  1  0.44142741  0.43439632  0.68987695  1
  Zn  Zn141  1  0.43605617  0.93461593  0.19023666  1
  Zn  Zn142  1  0.43777531  0.93978067  0.68201768  1
  Zn  Zn143  1  0.93673867  0.44107316  0.18851132  1
  Zn  Zn144  1  0.93846347  0.43937919  0.68635434  1
  Zn  Zn145  1  0.93632035  0.93214757  0.18883994  1
  Zn  Zn146  1  0.94597927  0.95148021  0.69746705  1
  Zn  Zn147  1  0.06962292  0.06380924  0.30865963  1
  Zn  Zn148  1  0.07116205  0.06536229  0.80841124  1
  Zn  Zn149  1  0.06592631  0.56590040  0.31163676  1
  Zn  Zn150  1  0.05977171  0.56270634  0.81104065  1
  Zn  Zn151  1  0.56254403  0.05865029  0.31218051  1
  Zn  Zn152  1  0.56330136  0.06274616  0.80978286  1
  Zn  Zn153  1  0.55545684  0.56197737  0.31100156  1
  Zn  Zn154  1  0.56210610  0.56487501  0.81577165  1
  Zn  Zn155  1  0.44209684  0.18363370  0.44356085  1
  Zn  Zn156  1  0.43884578  0.18587025  0.94128748  1
  Zn  Zn157  1  0.44450130  0.68758557  0.43279797  1
  Zn  Zn158  1  0.43477648  0.68758197  0.93429139  1
  Zn  Zn159  1  0.93606935  0.18742798  0.43969743  1
  Zn  Zn160  1  0.93718831  0.06693430  0.93577310  1
  Zn  Zn161  1  0.93845058  0.68609050  0.43174422  1
  Zn  Zn162  1  0.93641107  0.68972532  0.93492599  1
  Zn  Zn163  1  0.06148304  0.31151537  0.05910701  1
  Zn  Zn164  1  0.06148839  0.31518816  0.56310819  1
  Zn  Zn165  1  0.06638234  0.81234566  0.06344176  1
  Zn  Zn166  1  -0.05705979  0.81890362  0.56039579  1
  Zn  Zn167  1  0.56247837  0.31441412  0.06303943  1
  Zn  Zn168  1  0.56420901  0.31105629  0.56540240  1
  Zn  Zn169  1  0.56052233  0.81456666  0.07013324  1
  Zn  Zn170  1  0.56476063  0.80955213  0.56740470  1
  O  O171  1  0.11709354  0.12365603  0.11506949  1
  O  O172  1  0.12221136  0.12414248  0.61879002  1
  O  O173  1  0.12486468  0.61129736  0.12531460  1
  O  O174  1  0.11872743  0.62055230  0.62245604  1
  O  O175  1  0.61829657  0.11471584  0.12717742  1
  O  O176  1  0.61520085  0.12217527  0.62646525  1
  O  O177  1  0.62699752  0.61592462  0.10980394  1
  O  O178  1  0.61232498  0.61140425  0.62042965  1
  O  O179  1  0.38503251  0.37989864  0.38207494  1
  O  O180  1  0.39078418  0.36692342  0.87340815  1
  O  O181  1  0.37439859  0.89144311  0.38986765  1
  O  O182  1  0.37327829  0.88716133  0.88279019  1
  O  O183  1  0.88125123  0.38411085  0.38331904  1
  O  O184  1  0.88131692  0.37665075  0.87876171  1
  O  O185  1  0.88511403  0.89225525  0.37043006  1
  O  O186  1  0.89305752  0.87746900  0.87487508  1
  O  O187  1  0.26299719  0.00637291  0.37222506  1
  O  O188  1  0.25962018  0.00778125  0.86772559  1
  O  O189  1  0.26826583  0.49281999  0.38291677  1
  O  O190  1  0.24662858  0.51236346  0.87696676  1
  O  O191  1  0.76119746  0.00853283  0.37006695  1
  O  O192  1  0.74057208  0.01343771  0.86878535  1
  O  O193  1  0.75668111  0.49303558  0.36627589  1
  O  O194  1  0.75368354  0.50028851  0.86323022  1
  O  O195  1  0.24220070  0.48564155  0.11639467  1
  O  O196  1  0.24139305  0.49262852  0.61823585  1
  O  O197  1  0.25511321  1.00731884  0.13780623  1
  O  O198  1  0.24890744  1.00247935  0.63206221  1
  O  O199  1  0.73647240  0.49581107  0.13233340  1
  O  O200  1  0.74223762  0.50185736  0.63712835  1
  O  O201  1  0.74237824  0.99912547  0.13343299  1
  O  O202  1  0.73594683  1.01032394  0.63532065  1
  O  O203  1  0.00609228  0.36975077  0.25551862  1
  O  O204  1  0.00423406  0.37743783  0.76104914  1
  O  O205  1  0.00232232  0.86754196  0.26157278  1
  O  O206  1  0.00775877  0.87247090  0.75703873  1
  O  O207  1  0.50669979  0.36332560  0.25721411  1
  O  O208  1  0.51229404  0.37161292  0.75753595  1
  O  O209  1  0.49558619  0.85874686  0.24470653  1
  O  O210  1  0.49236402  0.86048352  0.74658918  1
  O  O211  1  0.50605278  0.13513677  0.24033919  1
  O  O212  1  0.49994005  0.12589247  0.73402017  1
  O  O213  1  0.50368561  0.63779894  0.24731779  1
  O  O214  1  0.48900320  0.62676586  0.74753061  1
  O  O215  1  0.99821228  0.13287980  0.24287165  1
  O  O216  1  0.99486948  0.12174239  0.74178059  1
  O  O217  1  1.00011204  0.63954575  0.25023762  1
  O  O218  1  0.99286848  0.63536199  0.74464733  1
  O  O219  1  0.36664129  0.25122221  0.00792652  1
  O  O220  1  0.37204165  0.25542854  0.50992099  1
  O  O221  1  0.36879419  0.75758602  -0.00115393  1
  O  O222  1  0.37312454  0.76336027  0.49066059  1
  O  O223  1  0.86596304  0.26435856  0.00600786  1
  O  O224  1  0.87124762  0.25686930  0.50800301  1
  O  O225  1  0.85840296  0.75346033  -0.00417689  1
  O  O226  1  0.88274559  0.74250845  0.50728404  1
  O  O227  1  0.13052145  0.24644429  0.49576541  1
  O  O228  1  0.13272630  0.24216781  0.99320415  1
  O  O229  1  0.13785622  0.74264490  0.49044211  1
  O  O230  1  0.13616142  0.74700448  0.99399616  1
  O  O231  1  0.64355420  0.25678607  0.50391437  1
  O  O232  1  0.63386938  0.25500652  0.99243487  1
  O  O233  1  0.61199984  0.73323332  0.49652264  1
  O  O234  1  0.62796376  0.74597629  0.99266802  1
  O  O235  1  0.49360888  0.24368109  0.12926885  1
  O  O236  1  0.49547736  0.23875933  0.62459467  1
  O  O237  1  0.49766556  0.74950103  0.13611231  1
  O  O238  1  0.50852613  0.73884619  0.64292520  1
  O  O239  1  0.99468890  0.24434009  0.12875159  1
  O  O240  1  0.99530996  0.24103006  0.62086826  1
  O  O241  1  0.99588798  0.74994746  0.13349142  1
  O  O242  1  1.00203022  0.74152302  0.63582424  1
  O  O243  1  0.00568151  0.25730652  0.37056411  1
  O  O244  1  0.01505857  0.25783018  0.87677776  1
  O  O245  1  0.00882494  0.75902557  0.37035885  1
  O  O246  1  0.00324136  0.75875029  0.86277513  1
  O  O247  1  0.49424476  0.25508021  0.36800762  1
  O  O248  1  0.50774469  0.25215004  0.87586589  1
  O  O249  1  0.50466763  0.74724189  0.35973340  1
  O  O250  1  0.50885952  0.74777208  0.86502570  1
  O  O251  1  0.23995901  0.13076686  0.50171628  1
  O  O252  1  0.24608033  0.13479067  0.99403144  1
  O  O253  1  0.24802113  0.63266837  0.49524807  1
  O  O254  1  0.24620071  0.63098337  0.98234480  1
  O  O255  1  0.75406940  0.13794837  0.49042149  1
  O  O256  1  0.75407352  0.13952619  0.99269113  1
  O  O257  1  0.73223541  0.62074211  0.50350824  1
  O  O258  1  0.74060410  0.63409599  0.99676918  1
  O  O259  1  0.24935717  0.36314630  0.00555331  1
  O  O260  1  0.25485361  0.36885331  0.51257014  1
  O  O261  1  0.25722650  0.86073382  -0.00862954  1
  O  O262  1  0.26124253  0.86898477  0.50247472  1
  O  O263  1  0.75516768  0.36565987  -0.00124964  1
  O  O264  1  0.76293679  0.36555090  0.49478614  1
  O  O265  1  0.74979783  0.86903577  0.00719982  1
  O  O266  1  0.75972608  0.88506265  0.51947979  1
  O  O267  1  0.11829482  0.48661841  0.24335764  1
  O  O268  1  0.11896125  0.49446074  0.73628966  1
  O  O269  1  0.14108092  0.99805131  0.24903172  1
  O  O270  1  0.14074254  0.99656136  0.74635176  1
  O  O271  1  0.62560057  0.49143904  0.24374492  1
  O  O272  1  0.63099578  0.49537229  0.74526510  1
  O  O273  1  0.63328722  1.00020820  0.24154922  1
  O  O274  1  0.63370984  1.00417082  0.73928872  1
  O  O275  1  0.37091509  0.00043402  0.26347659  1
  O  O276  1  0.36720017  -0.00415652  0.75583449  1
  O  O277  1  0.38122326  0.49081311  0.26582743  1
  O  O278  1  0.37752238  0.51097898  0.74963004  1
  O  O279  1  0.86967579  0.00756814  0.25533678  1
  O  O280  1  0.86615044  0.01907543  0.74644902  1
  O  O281  1  0.86173535  0.49755136  0.25773586  1
  O  O282  1  0.86682484  0.50443046  0.75345172  1
  O  O283  1  0.12203652  0.37299225  0.36868368  1
  O  O284  1  0.11920740  0.37058950  0.86989469  1
  O  O285  1  0.12014540  0.86517129  0.37396070  1
  O  O286  1  0.11655231  0.87673247  0.86336482  1
  O  O287  1  0.61269719  0.37835448  0.36783046  1
  O  O288  1  0.61820833  0.36357550  0.86854617  1
  O  O289  1  0.62003660  0.88663059  0.37166273  1
  O  O290  1  0.62391426  0.86168102  0.87710927  1
  O  O291  1  0.38274454  0.13743872  0.12350652  1
  O  O292  1  0.38513915  0.13309689  0.61973985  1
  O  O293  1  0.37651934  0.61324382  0.11890651  1
  O  O294  1  0.38558036  0.62073922  0.63625839  1
  O  O295  1  0.88272090  0.13348493  0.13219091  1
  O  O296  1  0.88827862  0.13737285  0.63276861  1
  O  O297  1  0.87343260  0.62873301  0.13093648  1
  O  O298  1  0.88524306  0.61690141  0.63844774  1
  O  O299  1  0.25523094  0.25451409  0.11956087  1
  O  O300  1  0.25874763  0.25572905  0.62077087  1
  O  O301  1  0.25380128  0.73758792  0.10454879  1
  O  O302  1  0.24817212  0.75041056  0.61061126  1
  O  O303  1  0.75633371  0.25047442  0.11824282  1
  O  O304  1  0.76128932  0.24389005  0.61228560  1
  O  O305  1  0.74526205  0.75985945  0.11737829  1
  O  O306  1  0.73731038  0.74688410  0.61324011  1
  O  O307  1  0.24605684  0.25122820  0.38279501  1
  O  O308  1  0.24633862  0.24505570  0.88152455  1
  O  O309  1  0.24616159  0.75320308  0.38216249  1
  O  O310  1  0.24939789  0.74057324  0.88331072  1
  O  O311  1  0.75887005  0.24115375  0.38767305  1
  O  O312  1  0.74368652  0.24247524  0.88214133  1
  O  O313  1  0.73988019  0.76082733  0.38871648  1
  O  O314  1  0.73675796  0.75035769  0.88045654  1
  O  O315  1  0.01063103  0.12599714  0.00760494  1
  O  O316  1  0.01390234  0.12418648  0.50551012  1
  O  O317  1  0.00206170  0.62318803  -0.00079137  1
  O  O318  1  0.00797787  0.62060690  0.50866123  1
  O  O319  1  0.49625407  0.11456441  0.01372012  1
  O  O320  1  0.50021998  0.11387472  0.51441693  1
  O  O321  1  0.50583559  0.61484858  -0.00918950  1
  O  O322  1  0.50159569  0.61759012  0.51097661  1
  O  O323  1  0.49778082  0.37660783  0.49387949  1
  O  O324  1  0.50055674  0.38120463  0.99143253  1
  O  O325  1  0.49295328  0.88222143  0.50678289  1
  O  O326  1  0.49288405  0.88837228  1.00480217  1
  O  O327  1  0.99203002  0.38201026  0.49544590  1
  O  O328  1  0.99158344  0.37517220  0.98715301  1
  O  O329  1  1.00450200  0.88824199  0.48657738  1
  O  O330  1  1.00107830  0.86975304  0.98305024  1
  O  O331  1  0.49262642  0.48894057  0.38143772  1
  O  O332  1  0.51026430  0.48793981  0.88472321  1
  O  O333  1  0.49110738  1.00789032  0.38418955  1
  O  O334  1  0.49252745  1.00966022  0.88364813  1
  O  O335  1  0.99490254  0.49523846  0.38126415  1
  O  O336  1  0.99034155  0.49209475  0.87460068  1
  O  O337  1  0.99983643  0.99708026  0.37814227  1
  O  O338  1  1.00509388  0.99258473  0.87136202  1
  O  O339  1  0.00130545  0.01202291  0.13329612  1
  O  O340  1  0.01117736  0.01378766  0.61581316  1
  O  O341  1  0.00828859  0.50077834  0.12198082  1
  O  O342  1  0.00699557  0.51007091  0.61965854  1
  O  O343  1  0.50507173  0.00726997  0.12191119  1
  O  O344  1  0.51155606  0.00826474  0.62298132  1
  O  O345  1  0.51194552  0.49033680  0.11447773  1
  O  O346  1  0.50584370  0.50437551  0.62070210  1
  O  O347  1  0.24085871  0.36952704  0.24003187  1
  O  O348  1  0.24516709  0.37472553  0.73765316  1
  O  O349  1  0.25378568  0.89543608  0.25946181  1
  O  O350  1  0.24674768  0.88125243  0.74988133  1
  O  O351  1  0.73951344  0.38011943  0.25035494  1
  O  O352  1  0.73763609  0.38120097  0.75507671  1
  O  O353  1  0.75333609  0.88942741  0.24373599  1
  O  O354  1  0.76079163  0.89124848  0.75237639  1
  O  O355  1  0.24808194  0.11194244  0.25433139  1
  O  O356  1  0.24876055  0.11736953  0.75967030  1
  O  O357  1  0.24157441  0.61934199  0.26117244  1
  O  O358  1  0.26357634  0.63000088  0.75718785  1
  O  O359  1  0.75649142  0.11747537  0.25581006  1
  O  O360  1  0.75773628  0.12080174  0.75967863  1
  O  O361  1  0.74275388  0.61216724  0.24732781  1
  O  O362  1  0.75565794  0.61771580  0.75018225  1
  O  O363  1  0.37375857  0.10967554  0.38605327  1
  O  O364  1  0.36521887  0.11790603  0.88076749  1
  O  O365  1  0.37772568  0.60435921  0.38226194  1
  O  O366  1  0.36484315  0.62312491  0.86336881  1
  O  O367  1  0.87527316  0.11807056  0.36693573  1
  O  O368  1  0.86656678  0.13061793  0.86673421  1
  O  O369  1  0.87959054  0.60876067  0.37015905  1
  O  O370  1  0.87190563  0.61974461  0.86187544  1
  O  O371  1  0.13023026  0.38037465  0.13103356  1
  O  O372  1  0.13182994  0.38275625  0.62830627  1
  O  O373  1  0.12512749  0.87987348  0.12758712  1
  O  O374  1  0.12972067  0.88741999  0.64023577  1
  O  O375  1  0.62673588  0.38095974  0.13403840  1
  O  O376  1  0.61891771  0.38694252  0.63456369  1
  O  O377  1  0.63618665  0.88817964  0.12703518  1
  O  O378  1  0.62312637  0.88734518  0.63079312  1
  O  O379  1  0.12066883  0.25973258  0.25343387  1
  O  O380  1  0.13164232  0.25954832  0.75929243  1
  O  O381  1  0.11967403  0.75329632  0.25808445  1
  O  O382  1  0.11768359  0.75998305  0.74912145  1
  O  O383  1  0.61705538  0.26029790  0.24495627  1
  O  O384  1  0.62564283  0.25649771  0.75595430  1
  O  O385  1  0.61480204  0.75712344  0.25171729  1
  O  O386  1  0.61402092  0.74267714  0.76492166  1
  O  O387  1  0.38590927  0.25447338  0.24207690  1
  O  O388  1  0.37800251  0.25498632  0.73623119  1
  O  O389  1  0.38198637  0.74531980  0.24617876  1
  O  O390  1  0.38824193  0.74096488  0.75607993  1
  O  O391  1  0.87996761  0.24829145  0.24549953  1
  O  O392  1  0.86753864  0.24204583  0.73892543  1
  O  O393  1  0.88330304  0.75080285  0.25209219  1
  O  O394  1  0.88101878  0.74436011  0.75214945  1
  O  O395  1  0.38258212  0.49059071  0.49542227  1
  O  O396  1  0.38747996  0.49182491  0.99663847  1
  O  O397  1  0.38754716  0.99242279  0.49401919  1
  O  O398  1  0.38052430  0.99362507  0.99260333  1
  O  O399  1  0.87622470  0.49404787  0.49588744  1
  O  O400  1  0.86917731  0.48823387  0.99293294  1
  O  O401  1  0.89592276  1.01573135  0.48850822  1
  O  O402  1  0.87385981  1.00327050  1.00120325  1
  O  O403  1  0.13616278  0.01421560  -0.00263822  1
  O  O404  1  0.12121886  0.00882314  0.49974721  1
  O  O405  1  0.12021381  0.50077724  0.00951295  1
  O  O406  1  0.12041460  0.50710285  0.50940076  1
  O  O407  1  0.61606396  -0.00121380  0.00803343  1
  O  O408  1  0.61605399  -0.00261522  0.51468794  1
  O  O409  1  0.62020120  0.50627328  0.00573692  1
  O  O410  1  0.61997780  0.50147422  0.50910422  1
  O  O411  1  0.36677532  0.36505679  0.12311179  1
  O  O412  1  0.37005886  0.37048001  0.62167162  1
  O  O413  1  0.37100727  0.87701769  0.11172992  1
  O  O414  1  0.37386292  0.88058452  0.60624897  1
  O  O415  1  0.87394656  0.37136546  0.11666394  1
  O  O416  1  0.88334250  0.36488260  0.61676743  1
  O  O417  1  0.86138357  0.87367635  0.12199207  1
  O  O418  1  0.88245460  0.89326926  0.62428829  1
  O  O419  1  0.12691945  0.13513692  0.38329318  1
  O  O420  1  0.13486145  0.13259237  0.87985889  1
  O  O421  1  0.12341760  0.63675911  0.38333884  1
  O  O422  1  0.13715778  0.62704897  0.86715872  1
  O  O423  1  0.63893749  0.12333978  0.37031957  1
  O  O424  1  0.63281240  0.13764249  0.86991710  1
  O  O425  1  0.61874825  0.61424349  0.39341052  1
  O  O426  1  0.62642598  0.63213428  0.88617103  1
