# generated using pymatgen
data_V85Zn86O256
_symmetry_space_group_name_H-M   'P 1'
_cell_length_a   16.96876238
_cell_length_b   16.95734983
_cell_length_c   16.94969542
_cell_angle_alpha   89.89105423
_cell_angle_beta   90.00383520
_cell_angle_gamma   89.95155847
_symmetry_Int_Tables_number   1
_chemical_formula_structural   V85Zn86O256
_chemical_formula_sum   'V85 Zn86 O256'
_cell_volume   4877.18360292
_cell_formula_units_Z   1
loop_
 _symmetry_equiv_pos_site_id
 _symmetry_equiv_pos_as_xyz
  1  'x, y, z'
loop_
 _atom_site_type_symbol
 _atom_site_label
 _atom_site_symmetry_multiplicity
 _atom_site_fract_x
 _atom_site_fract_y
 _atom_site_fract_z
 _atom_site_occupancy
  V  V0  1  0.74951394  0.74922946  0.49096588  1
  V  V1  1  -0.00155946  0.49860824  -0.00041828  1
  V  V2  1  0.62488183  0.87061368  0.75133373  1
  V  V3  1  0.75042725  0.74041851  -0.00557343  1
  V  V4  1  0.12142059  0.37206700  0.26699134  1
  V  V5  1  -0.00162722  0.00272306  0.00531834  1
  V  V6  1  0.49754879  0.62347348  0.62532325  1
  V  V7  1  0.62219980  0.49278832  0.12770304  1
  V  V8  1  0.87482609  0.74960214  0.12266830  1
  V  V9  1  0.74778701  0.61968688  0.37420703  1
  V  V10  1  0.87498546  0.87488100  0.49794734  1
  V  V11  1  0.12979667  0.75766280  0.36703483  1
  V  V12  1  0.37423805  0.25279661  0.62758088  1
  V  V13  1  0.61972658  0.37046563  0.76721349  1
  V  V14  1  0.00437890  0.75632266  0.24724180  1
  V  V15  1  0.24082617  0.38284621  0.62395258  1
  V  V16  1  0.74945664  0.87404770  0.62516802  1
  V  V17  1  0.25038494  0.50318682  0.25190573  1
  V  V18  1  0.62104864  0.61365023  -0.00261634  1
  V  V19  1  0.87698890  0.25010968  0.63905684  1
  V  V20  1  0.37924596  0.50064638  0.37322889  1
  V  V21  1  0.50017011  0.12725937  0.62548278  1
  V  V22  1  0.49698810  0.74706444  0.75136791  1
  V  V23  1  0.25374280  0.76401097  0.00155215  1
  V  V24  1  0.02136481  0.25495405  0.75511745  1
  V  V25  1  0.30315229  0.02895400  0.30420471  1
  V  V26  1  0.62623624  0.00230237  0.62725186  1
  V  V27  1  -0.00186237  0.01583377  0.49554941  1
  V  V28  1  0.57646217  0.18301619  -0.06432148  1
  V  V29  1  0.74575881  0.87084515  0.11876707  1
  V  V30  1  0.18893218  0.44295218  0.79861779  1
  V  V31  1  0.37577726  0.76801126  0.12264521  1
  V  V32  1  0.37052985  -0.00404636  0.87965532  1
  V  V33  1  0.39341146  0.49332572  0.87535483  1
  V  V34  1  0.24816232  0.88034657  0.62292934  1
  V  V35  1  0.87092504  0.12246840  0.23285165  1
  V  V36  1  -0.00169058  0.87628562  0.37349169  1
  V  V37  1  0.38258071  0.37783680  0.00377654  1
  V  V38  1  0.49387335  0.61772287  0.12263293  1
  V  V39  1  0.12335145  0.50134350  0.13259274  1
  V  V40  1  0.13807715  -0.01318158  0.13370714  1
  V  V41  1  0.76252636  0.13277635  0.87218330  1
  V  V42  1  0.37334206  0.75140628  0.62612240  1
  V  V43  1  0.37404249  0.12504568  0.74813517  1
  V  V44  1  0.74668595  0.49563668  0.25024853  1
  V  V45  1  0.88027998  0.36712343  0.00425762  1
  V  V46  1  0.74373539  0.24281111  0.51232563  1
  V  V47  1  0.37589991  0.37187498  0.49981430  1
  V  V48  1  0.86791447  0.00634776  0.37403133  1
  V  V49  1  0.24142520  0.12927883  0.87363616  1
  V  V50  1  0.50260000  0.13071747  0.14305391  1
  V  V51  1  0.87485683  0.61972909  0.25131565  1
  V  V52  1  0.74845847  -0.01049082  0.25038787  1
  V  V53  1  0.25420725  0.63141705  0.37416453  1
  V  V54  1  0.50062921  0.49785922  0.49820707  1
  V  V55  1  0.72886396  0.15673607  0.34267882  1
  V  V56  1  -0.00191841  0.12811855  0.63005235  1
  V  V57  1  0.62590065  0.86160210  0.25512588  1
  V  V58  1  0.75623041  0.37899566  0.62754178  1
  V  V59  1  0.49319649  0.87058564  0.88059161  1
  V  V60  1  0.51229308  0.35741912  0.36519251  1
  V  V61  1  0.86832407  0.62178988  0.75704064  1
  V  V62  1  0.12360991  0.87721357  0.74722173  1
  V  V63  1  0.24807272  0.62466772  0.87421044  1
  V  V64  1  0.75685872  0.24585393  0.00163073  1
  V  V65  1  0.50673654  -0.00237108  -0.00174615  1
  V  V66  1  0.24215812  0.25115491  0.00214263  1
  V  V67  1  0.62523726  0.62634832  0.49651401  1
  V  V68  1  0.24452964  0.24438615  0.49960437  1
  V  V69  1  0.49947738  -0.00154138  0.49939739  1
  V  V70  1  0.12110762  0.62708801  0.50185528  1
  V  V71  1  0.75859706  0.00231531  0.75213108  1
  V  V72  1  0.62682737  0.74250379  0.87487875  1
  V  V73  1  -0.03124563  0.26575783  0.26400848  1
  V  V74  1  -0.00043215  0.87856333  0.87591628  1
  V  V75  1  0.12376869  0.00312905  0.61531050  1
  V  V76  1  0.62503540  0.49596458  0.62809018  1
  V  V77  1  0.87339682  0.74418180  0.62045275  1
  V  V78  1  0.50118925  0.86580255  0.37966575  1
  V  V79  1  -0.00042653  0.75163833  0.74838942  1
  V  V80  1  0.12619114  0.22739424  0.37594700  1
  V  V81  1  0.12544584  0.12703572  0.00691880  1
  V  V82  1  0.00120609  0.62640516  0.12475378  1
  V  V83  1  0.24991622  0.36993185  0.13359349  1
  V  V84  1  0.25174680  0.75461371  0.49762541  1
  Zn  Zn85  1  0.74426397  0.50357369  0.75976467  1
  Zn  Zn86  1  0.00612436  0.37460668  0.87022635  1
  Zn  Zn87  1  0.37074180  0.88358007  0.49529003  1
  Zn  Zn88  1  0.12690780  0.62848589  0.00184519  1
  Zn  Zn89  1  0.62347593  0.12793508  0.49397261  1
  Zn  Zn90  1  0.00119121  0.61972532  0.62607382  1
  Zn  Zn91  1  0.75159244  0.37060613  0.12458626  1
  Zn  Zn92  1  0.50114802  0.25245081  0.76246382  1
  Zn  Zn93  1  0.24721685  0.00127210  0.74995013  1
  Zn  Zn94  1  0.36844885  0.61238538  0.74677071  1
  Zn  Zn95  1  0.87306946  0.87507337  -0.00378326  1
  Zn  Zn96  1  0.12696556  0.75137598  0.87676768  1
  Zn  Zn97  1  0.88041333  0.36708657  0.46685433  1
  Zn  Zn98  1  0.50086372  0.74680484  0.25272257  1
  Zn  Zn99  1  0.00118520  0.13871239  0.12904756  1
  Zn  Zn100  1  0.87232743  0.49866504  0.87732727  1
  Zn  Zn101  1  0.62591101  0.00060886  0.11847777  1
  Zn  Zn102  1  -0.01700072  0.48616884  0.49201877  1
  Zn  Zn103  1  0.37454154  0.63098444  0.24745808  1
  Zn  Zn104  1  0.87898453  0.00216828  0.87171071  1
  Zn  Zn105  1  0.12253746  0.50194223  0.62326921  1
  Zn  Zn106  1  0.37624322  0.24376550  0.13791651  1
  Zn  Zn107  1  0.19464437  0.17864674  0.19523606  1
  Zn  Zn108  1  0.18860687  0.18397027  0.67755043  1
  Zn  Zn109  1  0.19076922  0.69190008  0.18461652  1
  Zn  Zn110  1  0.18881290  0.68811589  0.68960168  1
  Zn  Zn111  1  0.68280474  0.18232756  0.17493874  1
  Zn  Zn112  1  0.68571549  0.18972263  0.69523683  1
  Zn  Zn113  1  0.68600314  0.68108570  0.18211851  1
  Zn  Zn114  1  0.68770074  0.68544992  0.68394874  1
  Zn  Zn115  1  0.31009464  0.31357044  0.31847631  1
  Zn  Zn116  1  0.31620069  0.30904858  0.81811567  1
  Zn  Zn117  1  0.31336175  0.83183168  0.30400278  1
  Zn  Zn118  1  0.31038135  0.81132156  0.81104279  1
  Zn  Zn119  1  0.79185417  0.30262776  0.30325316  1
  Zn  Zn120  1  0.81455052  0.31907742  0.81499546  1
  Zn  Zn121  1  0.81614207  0.80836768  0.31243949  1
  Zn  Zn122  1  0.81327998  0.81068114  0.81244006  1
  Zn  Zn123  1  0.18926023  0.44181612  0.44041863  1
  Zn  Zn124  1  0.18845069  0.44084828  0.95890318  1
  Zn  Zn125  1  0.18846127  0.93837205  0.42296682  1
  Zn  Zn126  1  0.18278854  0.94172202  0.93930936  1
  Zn  Zn127  1  0.69308783  0.43574234  0.44112143  1
  Zn  Zn128  1  0.69691964  0.43784524  0.93725456  1
  Zn  Zn129  1  0.68239466  0.93632425  0.43698550  1
  Zn  Zn130  1  0.68749336  0.93436711  0.93265946  1
  Zn  Zn131  1  0.31798043  0.05931430  0.06777810  1
  Zn  Zn132  1  0.33209012  0.08209725  0.46962444  1
  Zn  Zn133  1  0.31147461  0.56254360  0.06064417  1
  Zn  Zn134  1  0.30947919  0.56278350  0.56027280  1
  Zn  Zn135  1  0.80887962  0.05802119  0.05457540  1
  Zn  Zn136  1  0.81704986  0.06530216  0.56729977  1
  Zn  Zn137  1  0.81190558  0.56029096  0.06218683  1
  Zn  Zn138  1  0.81621208  0.55358434  0.55927017  1
  Zn  Zn139  1  0.43866874  0.43393727  0.19166747  1
  Zn  Zn140  1  0.43825277  0.43436856  0.69029260  1
  Zn  Zn141  1  0.44547332  0.93726136  0.18665299  1
  Zn  Zn142  1  0.43524841  0.93760721  0.69018190  1
  Zn  Zn143  1  0.93546208  0.43629269  0.18833223  1
  Zn  Zn144  1  0.94581798  0.43780156  0.68143250  1
  Zn  Zn145  1  0.93690219  0.93712254  0.18296223  1
  Zn  Zn146  1  0.93757910  0.93635566  0.68299681  1
  Zn  Zn147  1  0.05721763  0.06518805  0.30680614  1
  Zn  Zn148  1  0.06254411  0.06526149  0.80999813  1
  Zn  Zn149  1  0.06383839  0.56393709  0.31679063  1
  Zn  Zn150  1  0.05517070  0.57084424  0.81766579  1
  Zn  Zn151  1  0.56398305  0.04867943  0.31191505  1
  Zn  Zn152  1  0.56082711  0.05534368  0.80590507  1
  Zn  Zn153  1  0.56236991  0.56408070  0.30994509  1
  Zn  Zn154  1  0.56082983  0.56150685  0.81088214  1
  Zn  Zn155  1  0.42900561  0.18466267  0.31799091  1
  Zn  Zn156  1  0.41319544  0.18395545  0.94631251  1
  Zn  Zn157  1  0.43817163  0.69039625  0.43897995  1
  Zn  Zn158  1  0.43362074  0.68142537  0.94103697  1
  Zn  Zn159  1  0.91694837  0.20820365  0.42434454  1
  Zn  Zn160  1  0.94193167  0.18985160  0.93221479  1
  Zn  Zn161  1  0.95159390  0.65899065  0.42281091  1
  Zn  Zn162  1  0.94034307  0.68897014  0.93684853  1
  Zn  Zn163  1  0.05969074  0.31234415  0.07668112  1
  Zn  Zn164  1  0.05861804  0.31406616  0.55584333  1
  Zn  Zn165  1  0.06693235  0.81483249  0.06081170  1
  Zn  Zn166  1  0.06042965  0.81067480  0.55680894  1
  Zn  Zn167  1  0.56333905  0.31244435  0.06791522  1
  Zn  Zn168  1  0.56049147  0.31383479  0.56409249  1
  Zn  Zn169  1  0.56116042  0.80808869  0.06065323  1
  Zn  Zn170  1  0.56436669  0.80990570  0.56320352  1
  O  O171  1  0.12314872  0.12176601  0.11593471  1
  O  O172  1  0.11299815  0.11465067  0.62290605  1
  O  O173  1  0.11787614  0.62020600  0.12714684  1
  O  O174  1  0.12891495  0.62573684  0.61637143  1
  O  O175  1  0.60812770  0.11806796  0.12126496  1
  O  O176  1  0.61645938  0.11514592  0.63594060  1
  O  O177  1  0.61517625  0.61765430  0.11570968  1
  O  O178  1  0.61990008  0.61321747  0.62129061  1
  O  O179  1  0.38292092  0.38368910  0.38425376  1
  O  O180  1  0.37097819  0.38424667  0.88865151  1
  O  O181  1  0.39666830  0.87077710  0.38007128  1
  O  O182  1  0.38235976  0.88301166  0.86774965  1
  O  O183  1  0.89110828  0.30939498  0.35901546  1
  O  O184  1  0.88302605  0.37703256  0.88820298  1
  O  O185  1  0.87945926  0.88076138  0.37995308  1
  O  O186  1  0.88836907  0.87601986  0.87360113  1
  O  O187  1  0.25949118  0.02018254  0.40695076  1
  O  O188  1  0.25565753  0.00619135  0.87384452  1
  O  O189  1  0.26233548  0.50738407  0.37279850  1
  O  O190  1  0.24365029  0.50163510  0.86801274  1
  O  O191  1  0.75477557  -0.01196604  0.36168889  1
  O  O192  1  0.75204712  0.00735802  0.86807624  1
  O  O193  1  0.74379634  0.50869843  0.36551251  1
  O  O194  1  0.75893627  0.50218563  0.87147180  1
  O  O195  1  0.24286440  0.49402734  0.13200371  1
  O  O196  1  0.24883170  0.48857483  0.62423589  1
  O  O197  1  0.23759201  0.99973370  0.11815093  1
  O  O198  1  0.23896264  0.98708781  0.62580064  1
  O  O199  1  0.74029413  0.50363386  0.13223872  1
  O  O200  1  0.74134622  0.49423066  0.63247892  1
  O  O201  1  0.74720759  0.98622060  0.12614902  1
  O  O202  1  0.74513386  0.99576616  0.63212179  1
  O  O203  1  0.00737414  0.37103174  0.25381748  1
  O  O204  1  0.00147502  0.36002305  0.74902001  1
  O  O205  1  -0.01005471  0.86205452  0.25481125  1
  O  O206  1  0.00347914  0.87182158  0.75522582  1
  O  O207  1  0.50186517  0.37663010  0.26612193  1
  O  O208  1  0.51446925  0.37213140  0.74927458  1
  O  O209  1  0.50937846  0.87046179  0.26124022  1
  O  O210  1  0.50509809  0.86757101  0.75916783  1
  O  O211  1  0.50929963  0.12627926  0.24628937  1
  O  O212  1  0.49276636  0.12604139  0.74367119  1
  O  O213  1  0.49696479  0.63023555  0.23931029  1
  O  O214  1  0.49371444  0.62988625  0.74286184  1
  O  O215  1  0.98052221  0.13513775  0.25421129  1
  O  O216  1  1.00538765  0.13916427  0.74218320  1
  O  O217  1  0.99246193  0.63614158  0.24397799  1
  O  O218  1  0.99149847  0.63710079  0.74526338  1
  O  O219  1  0.35967202  0.26199482  0.00885116  1
  O  O220  1  0.36190124  0.26501983  0.50565022  1
  O  O221  1  0.36448712  0.74705674  0.01038782  1
  O  O222  1  0.37009563  0.75352488  0.51186122  1
  O  O223  1  0.87034104  0.25404432  -0.00311631  1
  O  O224  1  0.86151847  0.25142151  0.51960521  1
  O  O225  1  0.86684977  0.75018258  0.00308555  1
  O  O226  1  0.86645488  0.75286423  0.50663153  1
  O  O227  1  0.13522911  0.25114664  0.48862212  1
  O  O228  1  0.13376485  0.24473357  1.00866871  1
  O  O229  1  0.13706007  0.75026705  0.49110969  1
  O  O230  1  0.14040890  0.74907451  1.00002644  1
  O  O231  1  0.63828249  0.24386435  0.51956219  1
  O  O232  1  0.63016638  0.24948914  0.99300290  1
  O  O233  1  0.63506998  0.73385386  0.51155361  1
  O  O234  1  0.63046340  0.74005689  0.99259191  1
  O  O235  1  0.50239905  0.23427810  0.12555892  1
  O  O236  1  0.49082383  0.24137694  0.62494563  1
  O  O237  1  0.48606629  0.74362675  0.12365062  1
  O  O238  1  0.49184411  0.74487968  0.62916939  1
  O  O239  1  1.00485163  0.25327973  0.15810450  1
  O  O240  1  0.99727396  0.24492559  0.63265509  1
  O  O241  1  0.99673533  0.74768481  0.12885479  1
  O  O242  1  0.98884965  0.75883024  0.63727126  1
  O  O243  1  0.02078666  0.23878395  0.36585551  1
  O  O244  1  0.00651083  0.25131936  0.85970329  1
  O  O245  1  0.00884519  0.75261745  0.36455026  1
  O  O246  1  0.00164883  0.75892334  0.86445357  1
  O  O247  1  0.50175499  0.25804629  0.37581038  1
  O  O248  1  0.50515866  0.23534869  0.88399349  1
  O  O249  1  0.50458127  0.76015133  0.37576052  1
  O  O250  1  0.50104783  0.75358200  0.87248692  1
  O  O251  1  0.25507665  0.14836248  0.52283331  1
  O  O252  1  0.24555882  0.13225563  0.99616423  1
  O  O253  1  0.24618048  0.63712195  0.49366241  1
  O  O254  1  0.24864357  0.62979886  0.98913891  1
  O  O255  1  0.74467865  0.13618301  0.51444765  1
  O  O256  1  0.75033410  0.12865739  0.98327941  1
  O  O257  1  0.74527291  0.62895136  0.49315539  1
  O  O258  1  0.74133826  0.63531446  1.00444684  1
  O  O259  1  0.25259763  0.36757459  0.01458240  1
  O  O260  1  0.25567720  0.37220303  0.50829556  1
  O  O261  1  0.25057770  0.86234021  -0.00914081  1
  O  O262  1  0.25181078  0.87055842  0.50652143  1
  O  O263  1  0.76088821  0.36316421  -0.00079374  1
  O  O264  1  0.74687058  0.36303763  0.51540605  1
  O  O265  1  0.74857346  0.86286439  0.00383753  1
  O  O266  1  0.75259503  0.86697233  0.50485118  1
  O  O267  1  0.12785345  0.49367340  0.25209703  1
  O  O268  1  0.12385056  0.50304393  0.74732880  1
  O  O269  1  0.11298734  1.00452222  0.23024460  1
  O  O270  1  0.12254108  0.99347045  0.73630087  1
  O  O271  1  0.63467587  0.50863660  0.23912716  1
  O  O272  1  0.62305438  0.49177560  0.74365469  1
  O  O273  1  0.63373169  0.98226066  0.24382930  1
  O  O274  1  0.63464117  0.99075705  0.74317469  1
  O  O275  1  0.38875295  0.00533743  0.25237254  1
  O  O276  1  0.37257967  0.00815370  0.76040537  1
  O  O277  1  0.36913612  0.50202490  0.25968803  1
  O  O278  1  0.37906994  0.49529632  0.76931822  1
  O  O279  1  0.86857915  0.00248284  0.25427360  1
  O  O280  1  0.86179000  -0.00559354  0.74868152  1
  O  O281  1  0.86957506  0.51476538  0.24550072  1
  O  O282  1  0.88100308  0.51674416  0.74668633  1
  O  O283  1  0.12996047  0.37498540  0.36807012  1
  O  O284  1  0.13447978  0.38884309  0.86530176  1
  O  O285  1  0.11492517  0.86440033  0.37838937  1
  O  O286  1  0.11442459  0.87563487  0.86787138  1
  O  O287  1  0.60886802  0.37890500  0.38596230  1
  O  O288  1  0.62535739  0.37901971  0.86526403  1
  O  O289  1  0.61761517  0.87180686  0.36697358  1
  O  O290  1  0.61632283  0.86116440  0.86999414  1
  O  O291  1  0.39854852  0.12629415  0.11511105  1
  O  O292  1  0.38223113  0.13084861  0.63984415  1
  O  O293  1  0.38342478  0.62565536  0.12473258  1
  O  O294  1  0.37787862  0.63183610  0.62593843  1
  O  O295  1  0.87841285  0.11178442  0.13049541  1
  O  O296  1  0.88970577  0.13201545  0.62713389  1
  O  O297  1  0.88090054  0.63101270  0.13066783  1
  O  O298  1  0.87532606  0.63500195  0.62873200  1
  O  O299  1  0.24986355  0.25654795  0.12400695  1
  O  O300  1  0.25379387  0.26429071  0.62030446  1
  O  O301  1  0.26256103  0.74889478  0.11286597  1
  O  O302  1  0.25569302  0.76029324  0.62063608  1
  O  O303  1  0.74377602  0.24875581  0.10497855  1
  O  O304  1  0.75667834  0.25578906  0.62876109  1
  O  O305  1  0.75346587  0.75294855  0.11531271  1
  O  O306  1  0.75666154  0.75368634  0.61682268  1
  O  O307  1  0.24212777  0.25214215  0.39211281  1
  O  O308  1  0.25320399  0.24079879  0.88763972  1
  O  O309  1  0.24695491  0.75452024  0.37549717  1
  O  O310  1  0.25376085  0.74305883  0.88666235  1
  O  O311  1  0.74858317  0.24855269  0.40698776  1
  O  O312  1  0.75330892  0.23797472  0.87875409  1
  O  O313  1  0.74871505  0.74682889  0.38695127  1
  O  O314  1  0.73891635  0.75344582  0.88169645  1
  O  O315  1  0.00842308  0.12139220  0.00252574  1
  O  O316  1  -0.01043860  0.11730317  0.50233945  1
  O  O317  1  0.00133703  0.61875941  0.00710462  1
  O  O318  1  0.01945707  0.65910276  0.51573499  1
  O  O319  1  0.50947068  0.12158388  -0.01086289  1
  O  O320  1  0.50779725  0.11327950  0.51744309  1
  O  O321  1  0.50898958  0.62767124  0.01027741  1
  O  O322  1  0.50774154  0.61990323  0.50509539  1
  O  O323  1  0.49096394  0.38017427  0.49632272  1
  O  O324  1  0.48081239  0.36937093  1.01001397  1
  O  O325  1  0.50484233  0.87765776  0.49300454  1
  O  O326  1  0.50181676  0.87973675  0.98790078  1
  O  O327  1  0.99308616  0.37276491  0.49158404  1
  O  O328  1  0.99945240  0.38046053  1.00088596  1
  O  O329  1  0.99068437  0.88247932  0.49327317  1
  O  O330  1  1.00022350  0.88230128  0.99111286  1
  O  O331  1  0.48985771  0.50298294  0.38055689  1
  O  O332  1  0.49106174  0.50036124  0.88158872  1
  O  O333  1  0.51287136  0.98513199  0.39125663  1
  O  O334  1  0.49409203  0.98980301  0.87730971  1
  O  O335  1  0.99333858  0.55267540  0.39934336  1
  O  O336  1  0.99788899  0.49728132  0.88617858  1
  O  O337  1  0.99077038  0.99926176  0.37989991  1
  O  O338  1  1.00144862  0.99565768  0.88323895  1
  O  O339  1  0.00392090  0.00030040  0.11202958  1
  O  O340  1  0.00277760  0.00757003  0.61758746  1
  O  O341  1  0.00529878  0.50590208  0.12273625  1
  O  O342  1  0.00464116  0.50473588  0.61158411  1
  O  O343  1  0.50268975  0.00896216  0.11336719  1
  O  O344  1  0.51065629  0.00258850  0.62708994  1
  O  O345  1  0.50705446  0.50733535  0.13047920  1
  O  O346  1  0.50502988  0.50347381  0.61855170  1
  O  O347  1  0.24298602  0.38374439  0.24874302  1
  O  O348  1  0.24960485  0.37728220  0.74453747  1
  O  O349  1  0.25951388  0.92904570  0.29301184  1
  O  O350  1  0.24057256  0.87575154  0.74219840  1
  O  O351  1  0.75826757  0.39303713  0.24327026  1
  O  O352  1  0.73698776  0.37654001  0.74424469  1
  O  O353  1  0.74726528  0.87451729  0.24134340  1
  O  O354  1  0.74419188  0.87966412  0.74577349  1
  O  O355  1  0.25289463  0.10007229  0.25163469  1
  O  O356  1  0.25512833  0.12501238  0.75586354  1
  O  O357  1  0.25198225  0.62067835  0.25661967  1
  O  O358  1  0.25463227  0.63459414  0.76730863  1
  O  O359  1  0.75181884  0.10168210  0.23936894  1
  O  O360  1  0.74526001  0.11641882  0.76326239  1
  O  O361  1  0.75483196  0.61991967  0.25505628  1
  O  O362  1  0.76530707  0.62628798  0.74516238  1
  O  O363  1  0.37271470  0.10174356  0.36680248  1
  O  O364  1  0.36252166  0.11831278  0.86629815  1
  O  O365  1  0.37137608  0.62029221  0.37415313  1
  O  O366  1  0.36781613  0.60548259  0.87884458  1
  O  O367  1  0.84481817  0.12610961  0.36004779  1
  O  O368  1  0.86523951  0.12210050  0.87250403  1
  O  O369  1  0.85546702  0.63800790  0.36275517  1
  O  O370  1  0.88053094  0.62794413  0.85884105  1
  O  O371  1  0.13534729  0.38025649  0.13903273  1
  O  O372  1  0.13806036  0.37760439  0.61849653  1
  O  O373  1  0.12564076  0.88739472  0.12391235  1
  O  O374  1  0.12914456  0.87862096  0.62737186  1
  O  O375  1  0.62903978  0.38882337  0.11957950  1
  O  O376  1  0.62970021  0.38689999  0.62741210  1
  O  O377  1  0.63428181  0.87170369  0.12815988  1
  O  O378  1  0.63069427  0.87967577  0.63180849  1
  O  O379  1  0.13867978  0.25493098  0.26860062  1
  O  O380  1  0.11958611  0.24985136  0.74486643  1
  O  O381  1  0.11744729  0.74912136  0.25511463  1
  O  O382  1  0.11474317  0.75868712  0.75006407  1
  O  O383  1  0.69509537  0.23395440  0.27472888  1
  O  O384  1  0.62031058  0.26574895  0.75058957  1
  O  O385  1  0.62524141  0.75845436  0.24228174  1
  O  O386  1  0.61892215  0.74922725  0.75595113  1
  O  O387  1  0.37157052  0.25382564  0.25007621  1
  O  O388  1  0.38029764  0.24338647  0.74894476  1
  O  O389  1  0.37130377  0.75499690  0.23437892  1
  O  O390  1  0.37883197  0.74899228  0.73834787  1
  O  O391  1  0.86762788  0.23578420  0.23310250  1
  O  O392  1  0.87869285  0.25193821  0.74179829  1
  O  O393  1  0.88067774  0.74085187  0.24194534  1
  O  O394  1  0.87875670  0.74279915  0.74204646  1
  O  O395  1  0.37814320  0.49201439  0.49369673  1
  O  O396  1  0.36504263  0.48576831  0.98982619  1
  O  O397  1  0.39664145  0.99678562  0.51720712  1
  O  O398  1  0.38771146  1.00827858  0.98487057  1
  O  O399  1  0.86404079  0.47853718  0.49505265  1
  O  O400  1  0.88796890  0.49605902  1.00221211  1
  O  O401  1  0.87814069  0.99641884  0.49346529  1
  O  O402  1  0.88424876  0.99520364  0.99417089  1
  O  O403  1  0.11778417  0.00861860  0.00884763  1
  O  O404  1  0.11112701  -0.00831466  0.50952579  1
  O  O405  1  0.11261617  0.50398648  0.01284912  1
  O  O406  1  0.13039479  0.52058687  0.49784087  1
  O  O407  1  0.61146083  -0.00636889  -0.00457676  1
  O  O408  1  0.62228016  0.00000909  0.51555158  1
  O  O409  1  0.63149274  0.51041973  0.00559052  1
  O  O410  1  0.62302736  0.50950829  0.50823997  1
  O  O411  1  0.36295007  0.37865654  0.12006800  1
  O  O412  1  0.36810164  0.37264016  0.61953756  1
  O  O413  1  0.38246531  0.86627595  0.12000888  1
  O  O414  1  0.36529944  0.86888193  0.62597588  1
  O  O415  1  0.87301193  0.38006012  0.10954648  1
  O  O416  1  0.86255772  0.36954350  0.63595348  1
  O  O417  1  0.86204009  0.86752968  0.12163632  1
  O  O418  1  0.86791509  0.86538941  0.61920415  1
  O  O419  1  0.12817592  0.12918049  0.37423393  1
  O  O420  1  0.13640557  0.11698382  0.88713560  1
  O  O421  1  0.13586891  0.64242681  0.38073820  1
  O  O422  1  0.13266710  0.63067913  0.87849636  1
  O  O423  1  0.64196334  0.11160527  0.37710878  1
  O  O424  1  0.63129043  0.12497369  0.87164412  1
  O  O425  1  0.63438578  0.62347813  0.38427599  1
  O  O426  1  0.61633672  0.63483451  0.88137755  1
