# generated using pymatgen
data_V85Zn86O256
_symmetry_space_group_name_H-M   'P 1'
_cell_length_a   17.01035130
_cell_length_b   16.98931543
_cell_length_c   16.99114190
_cell_angle_alpha   89.94098714
_cell_angle_beta   90.12514669
_cell_angle_gamma   90.00343823
_symmetry_Int_Tables_number   1
_chemical_formula_structural   V85Zn86O256
_chemical_formula_sum   'V85 Zn86 O256'
_cell_volume   4910.32753751
_cell_formula_units_Z   1
loop_
 _symmetry_equiv_pos_site_id
 _symmetry_equiv_pos_as_xyz
  1  'x, y, z'
loop_
 _atom_site_type_symbol
 _atom_site_label
 _atom_site_symmetry_multiplicity
 _atom_site_fract_x
 _atom_site_fract_y
 _atom_site_fract_z
 _atom_site_occupancy
  V  V0  1  0.36228405  0.26218515  0.62362406  1
  V  V1  1  0.26433939  0.50488731  0.25034387  1
  V  V2  1  0.76283190  0.87522316  0.12495420  1
  V  V3  1  0.75185656  -0.00010649  0.75067723  1
  V  V4  1  0.25171632  -0.00378231  0.75068007  1
  V  V5  1  0.87436368  0.24872721  0.11871919  1
  V  V6  1  0.49791230  0.62324193  0.13549471  1
  V  V7  1  0.37446648  0.62515622  0.74127623  1
  V  V8  1  -0.00911556  0.88503178  0.38436056  1
  V  V9  1  0.12747831  0.11733772  0.51581966  1
  V  V10  1  0.00075301  -0.00281625  0.00347471  1
  V  V11  1  0.50169231  0.37514543  0.87625703  1
  V  V12  1  0.12630301  0.25220810  0.87549625  1
  V  V13  1  0.00529665  0.62646571  0.62418894  1
  V  V14  1  0.62384497  0.36042481  0.26017425  1
  V  V15  1  0.25283094  0.87344361  0.11402678  1
  V  V16  1  0.25072364  0.74602826  0.50131925  1
  V  V17  1  0.87863556  0.24308309  0.62617057  1
  V  V18  1  0.37024316  0.74738238  0.11181724  1
  V  V19  1  0.74881181  0.12888609  0.38235224  1
  V  V20  1  0.56446494  -0.04873972  0.06495786  1
  V  V21  1  0.26234379  0.62224030  0.36932321  1
  V  V22  1  0.00423131  0.74933756  0.74852432  1
  V  V23  1  0.37264080  0.50166262  0.87563007  1
  V  V24  1  0.24925345  0.62714450  0.88951499  1
  V  V25  1  0.87031949  0.62991526  0.23987340  1
  V  V26  1  0.50196273  0.12867553  0.62514880  1
  V  V27  1  0.75009398  0.37438671  0.62661965  1
  V  V28  1  0.00278034  0.49866528  0.50218369  1
  V  V29  1  0.87381469  0.12207482  0.25250503  1
  V  V30  1  0.24927000  0.87196623  0.62631695  1
  V  V31  1  0.37217901  0.11941434  0.25422675  1
  V  V32  1  0.37127894  0.88046323  0.49607664  1
  V  V33  1  0.24978974  0.37837473  0.12214048  1
  V  V34  1  0.49010097  0.74757081  0.25575749  1
  V  V35  1  0.50375981  0.13001232  0.12817800  1
  V  V36  1  0.62338548  0.00610652  0.62193196  1
  V  V37  1  0.77636332  0.66373389  0.41691601  1
  V  V38  1  0.87870551  0.62473513  0.74579640  1
  V  V39  1  -0.00497361  0.75398533  0.24690596  1
  V  V40  1  0.49850710  0.74867987  0.74798991  1
  V  V41  1  0.87241139  0.37153487  0.49885211  1
  V  V42  1  0.49966917  0.50144342  0.00188825  1
  V  V43  1  0.24342570  0.50085220  0.74441039  1
  V  V44  1  0.00734134  0.50335195  0.00060195  1
  V  V45  1  0.25445345  0.12342211  0.87855283  1
  V  V46  1  0.37991967  0.25034244  0.12960149  1
  V  V47  1  0.62671889  0.62142256  0.00146623  1
  V  V48  1  0.87306486  0.37205028  -0.00220778  1
  V  V49  1  0.63150815  0.25140988  0.88025343  1
  V  V50  1  0.87273207  0.49792244  0.86953435  1
  V  V51  1  0.74805824  0.37149002  0.12059452  1
  V  V52  1  0.25207050  0.25028655  0.00010184  1
  V  V53  1  0.76243460  0.87362916  0.61037263  1
  V  V54  1  0.62213047  0.87870811  0.75254975  1
  V  V55  1  0.62362642  0.12896265  0.00395363  1
  V  V56  1  0.00068501  0.24809652  0.25162096  1
  V  V57  1  0.37688520  0.12439546  0.74987754  1
  V  V58  1  0.49618054  0.87595108  0.37813479  1
  V  V59  1  0.62944364  0.37688772  0.74813541  1
  V  V60  1  0.00317207  0.37447547  0.87255499  1
  V  V61  1  0.12568893  0.12391356  0.00274592  1
  V  V62  1  -0.00109279  0.37395016  0.37222405  1
  V  V63  1  0.00458954  0.62973812  0.12140944  1
  V  V64  1  0.69745415  0.54126130  0.69312885  1
  V  V65  1  0.49905024  0.50862129  0.51053893  1
  V  V66  1  0.12725274  0.37754765  0.73599404  1
  V  V67  1  0.57312930  0.18088810  0.44488347  1
  V  V68  1  0.12805980  0.74574311  0.89221990  1
  V  V69  1  0.75263763  0.12705416  0.88065309  1
  V  V70  1  0.87727016  -0.00355562  0.87884486  1
  V  V71  1  0.74846125  0.00205843  0.25140115  1
  V  V72  1  0.12771852  0.87611226  0.25340875  1
  V  V73  1  0.74678678  0.50100009  0.24880447  1
  V  V74  1  0.50065673  0.25148961  0.75131777  1
  V  V75  1  0.13566680  0.24528494  0.38052787  1
  V  V76  1  0.12651607  0.62051322  0.49812582  1
  V  V77  1  0.62136902  0.87853414  0.25247263  1
  V  V78  1  0.37699102  0.37346338  -0.00066180  1
  V  V79  1  0.75057899  0.62446018  0.87507440  1
  V  V80  1  0.62444158  0.74705548  0.38759403  1
  V  V81  1  0.49756134  0.00168130  0.49525182  1
  V  V82  1  0.38103283  -0.00824086  0.88857615  1
  V  V83  1  0.87007858  0.49813609  0.37074597  1
  V  V84  1  0.12312904  0.38032890  0.24595554  1
  Zn  Zn85  1  0.00546536  0.24603087  0.74250663  1
  Zn  Zn86  1  0.12368580  0.75011757  0.37445249  1
  Zn  Zn87  1  0.49939511  0.87566579  0.88272906  1
  Zn  Zn88  1  0.62616501  0.75186917  0.87648852  1
  Zn  Zn89  1  -0.01820663  -0.00264305  0.51847715  1
  Zn  Zn90  1  0.62197447  0.62070582  0.52397428  1
  Zn  Zn91  1  0.75796540  0.74208355  0.01282470  1
  Zn  Zn92  1  0.49742968  0.38987014  0.37336414  1
  Zn  Zn93  1  0.88822421  0.11952637  0.74698621  1
  Zn  Zn94  1  0.12941912  -0.00061249  0.12628365  1
  Zn  Zn95  1  0.37028158  0.38581281  0.48950151  1
  Zn  Zn96  1  0.11867521  -0.00067358  0.63382116  1
  Zn  Zn97  1  0.38140286  0.74461901  0.62144015  1
  Zn  Zn98  1  0.00066963  0.12391280  0.12585006  1
  Zn  Zn99  1  0.88185037  0.86399859  0.00303064  1
  Zn  Zn100  1  0.12861330  0.50717099  0.12092447  1
  Zn  Zn101  1  0.74148640  0.25331977  0.49442053  1
  Zn  Zn102  1  0.25399189  0.11516322  0.38391019  1
  Zn  Zn103  1  0.00355863  0.87103633  0.87721034  1
  Zn  Zn104  1  0.12692455  0.86908697  0.75286093  1
  Zn  Zn105  1  0.25403396  -0.00737148  0.25791153  1
  Zn  Zn106  1  0.62412317  0.49802406  0.12896239  1
  Zn  Zn107  1  0.19002183  0.19034054  0.18730413  1
  Zn  Zn108  1  0.18840579  0.18749384  0.69392522  1
  Zn  Zn109  1  0.18558860  0.69145273  0.18799113  1
  Zn  Zn110  1  0.18838474  0.68200704  0.68710806  1
  Zn  Zn111  1  0.69055642  0.18849678  0.18548599  1
  Zn  Zn112  1  0.69094901  0.18818570  0.69045513  1
  Zn  Zn113  1  0.68232293  0.69088213  0.19427549  1
  Zn  Zn114  1  0.69461426  0.70832798  0.69139575  1
  Zn  Zn115  1  0.31036870  0.31780543  0.30310237  1
  Zn  Zn116  1  0.31141578  0.31449623  0.80882110  1
  Zn  Zn117  1  0.31030608  0.80981257  0.31493936  1
  Zn  Zn118  1  0.31303798  0.81011420  0.81774199  1
  Zn  Zn119  1  0.80925534  0.30808340  0.31070068  1
  Zn  Zn120  1  0.81204549  0.31184900  0.80855784  1
  Zn  Zn121  1  0.81516166  0.81799744  0.31012785  1
  Zn  Zn122  1  0.81577417  0.81094377  0.81203945  1
  Zn  Zn123  1  0.18765478  0.43391891  0.43229125  1
  Zn  Zn124  1  0.18795705  0.43942882  0.93416843  1
  Zn  Zn125  1  0.18413500  0.93990762  0.43482375  1
  Zn  Zn126  1  0.18736183  0.93571208  0.93552803  1
  Zn  Zn127  1  0.68253816  0.44426409  0.44096731  1
  Zn  Zn128  1  0.69045994  0.44023912  0.93735662  1
  Zn  Zn129  1  0.68482077  0.94327158  0.43471335  1
  Zn  Zn130  1  0.69445181  0.93475469  0.93532673  1
  Zn  Zn131  1  0.31288857  0.06034492  0.06855685  1
  Zn  Zn132  1  0.30933477  0.06568756  0.56266483  1
  Zn  Zn133  1  0.31664481  0.56328283  0.06691110  1
  Zn  Zn134  1  0.29309125  0.52563812  0.54378166  1
  Zn  Zn135  1  0.80970753  0.05854843  0.06512056  1
  Zn  Zn136  1  0.80836879  0.05928564  0.56140677  1
  Zn  Zn137  1  0.81736139  0.55773220  0.06124944  1
  Zn  Zn138  1  0.82394407  0.57466530  0.55510730  1
  Zn  Zn139  1  0.44248721  0.43440092  0.18930551  1
  Zn  Zn140  1  0.43889404  0.44312435  0.68845915  1
  Zn  Zn141  1  0.42933380  0.93258848  0.19106769  1
  Zn  Zn142  1  0.43583947  0.93642061  0.68581491  1
  Zn  Zn143  1  0.93677289  0.43911004  0.18367851  1
  Zn  Zn144  1  0.93931077  0.43693956  0.68542222  1
  Zn  Zn145  1  0.93950882  0.94214954  0.19225695  1
  Zn  Zn146  1  0.93965592  0.93555292  0.69214228  1
  Zn  Zn147  1  0.06412207  0.06067783  0.31418432  1
  Zn  Zn148  1  0.06429793  0.06151787  0.81441186  1
  Zn  Zn149  1  0.06193127  0.56406496  0.31201735  1
  Zn  Zn150  1  0.06587595  0.56437203  0.81631633  1
  Zn  Zn151  1  0.55732869  0.05894181  0.30604326  1
  Zn  Zn152  1  0.56168452  0.06196866  0.81575174  1
  Zn  Zn153  1  0.56906712  0.56501969  0.32403673  1
  Zn  Zn154  1  0.55673876  0.56652428  0.81528998  1
  Zn  Zn155  1  0.40274979  0.23349053  0.41463092  1
  Zn  Zn156  1  0.44171122  0.18445544  0.93984045  1
  Zn  Zn157  1  0.43843475  0.68000454  0.44404723  1
  Zn  Zn158  1  0.44054705  0.68733885  0.93278194  1
  Zn  Zn159  1  0.92195275  0.15591449  0.45716408  1
  Zn  Zn160  1  0.94081124  0.18486503  0.93366197  1
  Zn  Zn161  1  0.94589715  0.68831552  0.43004795  1
  Zn  Zn162  1  0.93745863  0.68822162  0.93739884  1
  Zn  Zn163  1  0.06075652  0.31292393  0.06259173  1
  Zn  Zn164  1  0.06039438  0.30821679  0.55728674  1
  Zn  Zn165  1  0.06297227  0.81333568  0.06736058  1
  Zn  Zn166  1  0.06397612  0.81204250  0.56358188  1
  Zn  Zn167  1  0.56575456  0.31196174  0.06436731  1
  Zn  Zn168  1  0.55290322  0.32663934  0.56682508  1
  Zn  Zn169  1  0.56792107  0.78947393  0.06666487  1
  Zn  Zn170  1  0.56481459  0.81668006  0.56732422  1
  O  O171  1  0.12685894  0.12454751  0.11360243  1
  O  O172  1  0.12976595  0.12497171  0.61911260  1
  O  O173  1  0.10944340  0.62394140  0.13196698  1
  O  O174  1  0.11938911  0.62430950  0.60938710  1
  O  O175  1  0.61826273  0.13105813  0.11721594  1
  O  O176  1  0.61898778  0.11406395  0.63504065  1
  O  O177  1  0.61648878  0.62499274  0.11851491  1
  O  O178  1  0.64505933  0.61709349  0.64153884  1
  O  O179  1  0.38746041  0.34376747  0.37846794  1
  O  O180  1  0.38085625  0.38016061  0.88059637  1
  O  O181  1  0.37908842  0.86864401  0.38970062  1
  O  O182  1  0.37645961  0.88765074  0.87702227  1
  O  O183  1  0.87987182  0.37851746  0.37750294  1
  O  O184  1  0.88112527  0.37952213  0.87688105  1
  O  O185  1  0.89244096  0.87509957  0.37073377  1
  O  O186  1  0.87499196  0.88738785  0.87766857  1
  O  O187  1  0.24813458  0.00314750  0.37033455  1
  O  O188  1  0.26148054  0.00320335  0.87081010  1
  O  O189  1  0.24414582  0.51500652  0.36331931  1
  O  O190  1  0.25618057  0.50769223  0.87082448  1
  O  O191  1  0.74202137  0.00962390  0.35967398  1
  O  O192  1  0.75786211  0.00561677  0.87015809  1
  O  O193  1  0.76256396  0.49136612  0.36498587  1
  O  O194  1  0.76114096  0.51054849  0.87743199  1
  O  O195  1  0.24722217  0.49703698  0.13148006  1
  O  O196  1  0.24542083  0.51189941  0.64717802  1
  O  O197  1  0.25218407  0.98390907  0.13094417  1
  O  O198  1  0.24914092  0.99132152  0.63547569  1
  O  O199  1  0.75217948  0.48728449  0.13132814  1
  O  O200  1  0.76120793  0.49122947  0.62594186  1
  O  O201  1  0.74833077  0.98718231  0.13672773  1
  O  O202  1  0.74132980  0.99994896  0.63348559  1
  O  O203  1  0.00607740  0.36980863  0.25050200  1
  O  O204  1  0.00881760  0.37436263  0.75797107  1
  O  O205  1  0.00572259  0.86943631  0.25364608  1
  O  O206  1  0.00340555  0.86217381  0.75644754  1
  O  O207  1  0.51991229  0.38070835  0.25226132  1
  O  O208  1  0.50961749  0.37290626  0.75851549  1
  O  O209  1  0.50295199  0.87067633  0.25828916  1
  O  O210  1  0.50780979  0.87280018  0.75219442  1
  O  O211  1  0.48991261  0.12180811  0.23623164  1
  O  O212  1  0.49303179  0.13027000  0.74816367  1
  O  O213  1  0.50945324  0.63245866  0.24125269  1
  O  O214  1  0.48792907  0.63506480  0.75700256  1
  O  O215  1  0.99256142  0.13111404  0.24834062  1
  O  O216  1  0.99765678  0.13615175  0.76879042  1
  O  O217  1  0.99158167  0.63301699  0.24538277  1
  O  O218  1  0.99777722  0.62576615  0.74261831  1
  O  O219  1  0.37128216  0.25354418  0.00583306  1
  O  O220  1  0.37211394  0.25093060  0.52245231  1
  O  O221  1  0.38243727  0.74910400  0.01406389  1
  O  O222  1  0.36434850  0.75393831  0.50225954  1
  O  O223  1  0.88362841  0.25250761  0.01263675  1
  O  O224  1  0.86953010  0.25235226  0.51100750  1
  O  O225  1  0.86815805  0.75232704  -0.00560570  1
  O  O226  1  0.84953758  0.69448814  0.48684998  1
  O  O227  1  0.12678263  0.25023934  0.48344767  1
  O  O228  1  0.13062057  0.24432090  0.99557047  1
  O  O229  1  0.13784972  0.74175903  0.49965738  1
  O  O230  1  0.12124598  0.74850283  0.99027311  1
  O  O231  1  0.62216780  0.24620134  0.50754541  1
  O  O232  1  0.62440718  0.24422006  0.98818475  1
  O  O233  1  0.61909253  0.74702755  0.49232849  1
  O  O234  1  0.63464562  0.73440765  0.99541388  1
  O  O235  1  0.49188452  0.24119517  0.11837315  1
  O  O236  1  0.49513024  0.24470560  0.63543558  1
  O  O237  1  0.48945869  0.74300311  0.13418197  1
  O  O238  1  0.49870895  0.75752291  0.64183892  1
  O  O239  1  0.99477128  0.24818141  0.13525382  1
  O  O240  1  0.98284031  0.25343758  0.62336931  1
  O  O241  1  1.00084194  0.74449006  0.13714800  1
  O  O242  1  1.00419844  0.73594697  0.63118785  1
  O  O243  1  0.00903407  0.25632440  0.35946473  1
  O  O244  1  0.00571554  0.26528290  0.87986019  1
  O  O245  1  0.00257114  0.75795522  0.36317914  1
  O  O246  1  0.01517557  0.74548132  0.86926510  1
  O  O247  1  0.51588102  0.23780404  0.38765316  1
  O  O248  1  0.50901737  0.25556451  0.87121833  1
  O  O249  1  0.50612577  0.75288866  0.37156765  1
  O  O250  1  0.50359811  0.75687994  0.86615410  1
  O  O251  1  0.23541656  0.12718164  0.49883156  1
  O  O252  1  0.24576466  0.12942552  0.99811002  1
  O  O253  1  0.24403901  0.62433650  0.48961339  1
  O  O254  1  0.25439100  0.61853016  0.98891650  1
  O  O255  1  0.74215533  0.12612688  0.48459735  1
  O  O256  1  0.73832343  0.11754242  0.98988135  1
  O  O257  1  0.73271442  0.60256076  0.48931198  1
  O  O258  1  0.74441120  0.62082801  0.99443605  1
  O  O259  1  0.25636194  0.37162364  0.00392822  1
  O  O260  1  0.26371069  0.41727447  0.50847931  1
  O  O261  1  0.24673650  0.87561412  0.01559058  1
  O  O262  1  0.25383767  0.86610471  0.50495944  1
  O  O263  1  0.75946053  0.38033530  0.00826045  1
  O  O264  1  0.75468700  0.37502878  0.50843544  1
  O  O265  1  0.75075573  0.87756145  0.01738897  1
  O  O266  1  0.74780990  0.88894963  0.51175595  1
  O  O267  1  0.12584970  0.48824459  0.24898014  1
  O  O268  1  0.13596824  0.49333219  0.75841687  1
  O  O269  1  0.12354350  0.98694121  0.24502288  1
  O  O270  1  0.14144135  0.99553559  0.75728817  1
  O  O271  1  0.63983450  0.49991330  0.24936727  1
  O  O272  1  0.62685829  0.49327721  0.75673929  1
  O  O273  1  0.62811654  0.98584277  0.25132013  1
  O  O274  1  0.63114383  0.99632458  0.74678502  1
  O  O275  1  0.37625883  0.01589165  0.24782114  1
  O  O276  1  0.36705425  0.00630009  0.75524220  1
  O  O277  1  0.36310665  0.49388392  0.24614330  1
  O  O278  1  0.36637575  0.50528320  0.75779422  1
  O  O279  1  0.86475350  0.01170060  0.24550441  1
  O  O280  1  0.86731163  0.00175082  0.76067649  1
  O  O281  1  0.86697494  0.50370570  0.25298536  1
  O  O282  1  0.88437519  0.50512533  0.76322357  1
  O  O283  1  0.12007795  0.36598619  0.36570706  1
  O  O284  1  0.11779778  0.37063996  0.87051862  1
  O  O285  1  0.11605862  0.87043316  0.36766798  1
  O  O286  1  0.12762619  0.85869456  0.87355111  1
  O  O287  1  0.62971354  0.37496246  0.36149298  1
  O  O288  1  0.62531168  0.36870456  0.86963693  1
  O  O289  1  0.61816604  0.86758709  0.36880808  1
  O  O290  1  0.62478066  0.87701882  0.86453921  1
  O  O291  1  0.38403359  0.13161884  0.12788143  1
  O  O292  1  0.37990403  0.12972149  0.63830142  1
  O  O293  1  0.38350634  0.63736250  0.12579278  1
  O  O294  1  0.36667905  0.62558551  0.64171535  1
  O  O295  1  0.87292103  0.13310351  0.13242665  1
  O  O296  1  0.85917633  0.14180726  0.63242485  1
  O  O297  1  0.88668353  0.61736565  0.13427061  1
  O  O298  1  0.88364194  0.62079417  0.64049294  1
  O  O299  1  0.25783305  0.25849401  0.11740976  1
  O  O300  1  0.26500522  0.25107027  0.64031006  1
  O  O301  1  0.26349868  0.75403246  0.12786187  1
  O  O302  1  0.25304579  0.75404003  0.61802374  1
  O  O303  1  0.76040227  0.26266395  0.12808374  1
  O  O304  1  0.75572158  0.26241853  0.62504501  1
  O  O305  1  0.73761728  0.77226583  0.12972149  1
  O  O306  1  0.75177602  0.77391522  0.62399729  1
  O  O307  1  0.23607124  0.24908214  0.36501543  1
  O  O308  1  0.24724613  0.24422754  0.88108552  1
  O  O309  1  0.24611578  0.73782050  0.38180435  1
  O  O310  1  0.23778667  0.74132143  0.87322079  1
  O  O311  1  0.74685412  0.23906647  0.37560806  1
  O  O312  1  0.74342058  0.23982153  0.87046993  1
  O  O313  1  0.74246671  0.75639263  0.37541016  1
  O  O314  1  0.74892908  0.73274969  0.86863593  1
  O  O315  1  0.01029315  0.11785296  0.00088991  1
  O  O316  1  0.02915490  0.13331183  0.49333809  1
  O  O317  1  -0.00587976  0.61558484  0.00941580  1
  O  O318  1  0.00692787  0.61950566  0.50470369  1
  O  O319  1  0.51436331  0.12503845  0.00874146  1
  O  O320  1  0.50608518  0.12028243  0.50266688  1
  O  O321  1  0.50813596  0.62169843  0.00800490  1
  O  O322  1  0.50813728  0.61895833  0.50599874  1
  O  O323  1  0.49154137  0.38597768  0.49529568  1
  O  O324  1  0.49767125  0.38058110  0.99530387  1
  O  O325  1  0.49093984  0.88219685  0.49912442  1
  O  O326  1  0.51664133  0.88221129  1.00739809  1
  O  O327  1  0.99334390  0.38158740  0.49311355  1
  O  O328  1  0.99293590  0.38169382  0.99350893  1
  O  O329  1  1.00276370  0.87509579  0.48889767  1
  O  O330  1  1.00065501  0.88321130  0.99922927  1
  O  O331  1  0.50645531  0.50347300  0.38923271  1
  O  O332  1  0.49250543  0.49460555  0.88215260  1
  O  O333  1  0.50369287  0.99327238  0.38700036  1
  O  O334  1  0.48504640  0.99760957  0.87277972  1
  O  O335  1  0.98776874  0.49460639  0.37564964  1
  O  O336  1  0.99662095  0.49105078  0.88051037  1
  O  O337  1  1.00458030  0.98581558  0.37696157  1
  O  O338  1  0.99388427  0.99679145  0.88686066  1
  O  O339  1  0.00312286  0.00268052  0.11447799  1
  O  O340  1  0.00672966  -0.00520394  0.62810113  1
  O  O341  1  0.00160234  0.50713660  0.11595167  1
  O  O342  1  -0.00602136  0.51143128  0.61307734  1
  O  O343  1  0.49725674  0.00389313  0.12157510  1
  O  O344  1  0.50498289  0.00805373  0.61988125  1
  O  O345  1  0.50069198  0.50911168  0.12104330  1
  O  O346  1  0.50122084  0.49562459  0.61276472  1
  O  O347  1  0.24152650  0.38500204  0.24182301  1
  O  O348  1  0.24176575  0.39117788  0.75783208  1
  O  O349  1  0.24220093  0.87111882  0.24470665  1
  O  O350  1  0.25407842  0.87988634  0.74290061  1
  O  O351  1  0.74208364  0.38080724  0.24226192  1
  O  O352  1  0.74194799  0.37838403  0.74275018  1
  O  O353  1  0.74158386  0.88111007  0.24283354  1
  O  O354  1  0.74407348  0.88714999  0.74880948  1
  O  O355  1  0.26610574  0.12198142  0.24031061  1
  O  O356  1  0.25823680  0.11678325  0.75885538  1
  O  O357  1  0.24310673  0.61963015  0.26117079  1
  O  O358  1  0.25419778  0.61633148  0.76213433  1
  O  O359  1  0.75363417  0.11833247  0.25212962  1
  O  O360  1  0.74922514  0.11365016  0.76357209  1
  O  O361  1  0.75833511  0.61537724  0.23666344  1
  O  O362  1  0.75699357  0.61844524  0.75274735  1
  O  O363  1  0.37143728  0.13900508  0.35634171  1
  O  O364  1  0.37380105  0.11895018  0.86663908  1
  O  O365  1  0.36001578  0.63098109  0.37345855  1
  O  O366  1  0.36774800  0.61962567  0.87076741  1
  O  O367  1  0.86337560  0.13805848  0.35614391  1
  O  O368  1  0.86618819  0.11424792  0.87966386  1
  O  O369  1  0.86485625  0.61559865  0.35869685  1
  O  O370  1  0.87067398  0.61612742  0.86537677  1
  O  O371  1  0.13093267  0.37703368  0.13110546  1
  O  O372  1  0.11694436  0.36897762  0.63739111  1
  O  O373  1  0.13929207  0.87223865  0.13227278  1
  O  O374  1  0.14003136  0.87272476  0.62886780  1
  O  O375  1  0.63386402  0.37679513  0.13129197  1
  O  O376  1  0.63328681  0.37225725  0.63991955  1
  O  O377  1  0.61748222  0.88403389  0.12747067  1
  O  O378  1  0.63064013  0.88803519  0.63695159  1
  O  O379  1  0.11923026  0.26000047  0.25145322  1
  O  O380  1  0.12676913  0.26002733  0.75950733  1
  O  O381  1  0.11556222  0.76074357  0.25084254  1
  O  O382  1  0.11501767  0.74523316  0.75320560  1
  O  O383  1  0.62836340  0.26261118  0.24722138  1
  O  O384  1  0.62190318  0.25751458  0.76089386  1
  O  O385  1  0.61201326  0.76369045  0.25348457  1
  O  O386  1  0.61727417  0.76162027  0.75509571  1
  O  O387  1  0.37118975  0.24210411  0.23316423  1
  O  O388  1  0.38211548  0.24185790  0.74982269  1
  O  O389  1  0.38810916  0.75468066  0.24562078  1
  O  O390  1  0.38121432  0.74239971  0.75136010  1
  O  O391  1  0.88321387  0.24742487  0.23821362  1
  O  O392  1  0.87711477  0.25257178  0.73601091  1
  O  O393  1  0.88052925  0.74028335  0.25216736  1
  O  O394  1  0.89192103  0.73738689  0.76016243  1
  O  O395  1  0.39376089  0.50873816  0.49634549  1
  O  O396  1  0.38170364  0.49333220  0.99673468  1
  O  O397  1  0.38519959  0.99277023  0.50812259  1
  O  O398  1  0.37330755  1.00704794  0.98596563  1
  O  O399  1  0.88411329  0.49618157  0.48796173  1
  O  O400  1  0.88528936  0.49383167  0.98752305  1
  O  O401  1  0.88762930  1.04895315  0.48741058  1
  O  O402  1  0.88344658  0.99727250  0.99601094  1
  O  O403  1  0.11971993  0.00717334  0.00063280  1
  O  O404  1  0.12518599  0.01163367  0.50743197  1
  O  O405  1  0.11097292  0.49439772  0.00001324  1
  O  O406  1  0.10808234  0.50534204  0.48845378  1
  O  O407  1  0.62512880  0.00579480  0.00226848  1
  O  O408  1  0.61112143  -0.00494094  0.51185517  1
  O  O409  1  0.61979757  0.50819452  0.00348373  1
  O  O410  1  0.61074531  0.50144621  0.50330856  1
  O  O411  1  0.37330693  0.36766333  0.11901600  1
  O  O412  1  0.37787828  0.36189056  0.63591643  1
  O  O413  1  0.36293026  0.86212363  0.12854935  1
  O  O414  1  0.36479693  0.87229340  0.61455693  1
  O  O415  1  0.86960963  0.36821772  0.11867705  1
  O  O416  1  0.86802525  0.36831511  0.61948781  1
  O  O417  1  0.86422744  0.87670775  0.12868566  1
  O  O418  1  0.86038539  0.88666155  0.62513041  1
  O  O419  1  0.12934508  0.13942096  0.36888663  1
  O  O420  1  0.13492239  0.12975245  0.88773240  1
  O  O421  1  0.12551858  0.62861516  0.38577316  1
  O  O422  1  0.13434992  0.63609703  0.87567839  1
  O  O423  1  0.62705650  0.12429395  0.37594614  1
  O  O424  1  0.63006307  0.13220674  0.88199457  1
  O  O425  1  0.64335795  0.64541194  0.36517267  1
  O  O426  1  0.63397594  0.62159343  0.88358460  1
