# generated using pymatgen
data_V85Zn86O256
_symmetry_space_group_name_H-M   'P 1'
_cell_length_a   16.92782635
_cell_length_b   16.94132086
_cell_length_c   16.93852272
_cell_angle_alpha   89.95065383
_cell_angle_beta   89.98895483
_cell_angle_gamma   90.02872734
_symmetry_Int_Tables_number   1
_chemical_formula_structural   V85Zn86O256
_chemical_formula_sum   'V85 Zn86 O256'
_cell_volume   4857.62259932
_cell_formula_units_Z   1
loop_
 _symmetry_equiv_pos_site_id
 _symmetry_equiv_pos_as_xyz
  1  'x, y, z'
loop_
 _atom_site_type_symbol
 _atom_site_label
 _atom_site_symmetry_multiplicity
 _atom_site_fract_x
 _atom_site_fract_y
 _atom_site_fract_z
 _atom_site_occupancy
  V  V0  1  0.62648049  -0.00024750  0.62459710  1
  V  V1  1  0.49586323  0.74636862  0.25612410  1
  V  V2  1  0.62540117  0.11889815  -0.00418168  1
  V  V3  1  0.62158079  0.62457615  0.00591148  1
  V  V4  1  0.74425042  0.49861409  0.74976844  1
  V  V5  1  0.00283427  0.49825608  -0.00021911  1
  V  V6  1  0.48255352  0.74158764  0.73964672  1
  V  V7  1  0.49765619  0.87321705  0.37461113  1
  V  V8  1  0.39202855  0.87790094  -0.00198405  1
  V  V9  1  0.75426365  0.12635686  0.87539240  1
  V  V10  1  0.49435685  0.49752003  0.50281327  1
  V  V11  1  0.87432082  0.62261622  0.25080048  1
  V  V12  1  0.49743636  0.11809109  0.12188477  1
  V  V13  1  0.00212214  0.23703323  0.74938138  1
  V  V14  1  0.87596785  0.37372500  -0.00057723  1
  V  V15  1  0.74647342  0.25296769  0.49539790  1
  V  V16  1  0.74235143  0.37548639  0.12502851  1
  V  V17  1  0.87145381  0.87951402  0.00398240  1
  V  V18  1  0.74666310  0.74744818  0.49861721  1
  V  V19  1  0.37432965  0.24746639  0.62372883  1
  V  V20  1  0.12574602  0.87834096  0.75109709  1
  V  V21  1  0.24267521  0.61127251  0.36878451  1
  V  V22  1  0.00256601  0.11818114  0.12090944  1
  V  V23  1  0.74942050  -0.00834741  0.24485785  1
  V  V24  1  0.49533665  0.49232410  0.00317818  1
  V  V25  1  0.24541543  0.87797785  0.12312102  1
  V  V26  1  0.87424887  0.62842301  0.74869469  1
  V  V27  1  -0.00234647  0.37552025  0.37364505  1
  V  V28  1  0.26167834  0.62725447  0.86731726  1
  V  V29  1  0.00422620  0.12284868  0.60564563  1
  V  V30  1  0.24512296  0.36748178  0.63870902  1
  V  V31  1  0.00435722  0.37668860  0.86094100  1
  V  V32  1  -0.00273254  0.87580686  0.87644903  1
  V  V33  1  0.37225300  0.87775228  0.50032682  1
  V  V34  1  0.69180687  0.29326846  -0.05725633  1
  V  V35  1  0.25281439  0.87548816  0.62428021  1
  V  V36  1  0.73675168  0.50093000  0.24789333  1
  V  V37  1  0.87738268  0.24630147  0.62831916  1
  V  V38  1  0.36398901  0.36788929  0.49866737  1
  V  V39  1  0.12720330  0.75064883  0.87695980  1
  V  V40  1  0.74800448  0.62930443  0.87581911  1
  V  V41  1  0.12647435  0.74586772  0.38886692  1
  V  V42  1  0.87424350  0.75106204  0.62563569  1
  V  V43  1  0.51350223  0.25612995  0.75700156  1
  V  V44  1  0.12960782  0.62524042  0.00011660  1
  V  V45  1  0.25362748  0.12854778  0.39028766  1
  V  V46  1  0.14055406  0.37382918  0.24890830  1
  V  V47  1  0.37805994  0.49090324  0.87100857  1
  V  V48  1  0.87681702  0.00451023  0.86712466  1
  V  V49  1  0.49711643  0.24058732  0.25451902  1
  V  V50  1  0.74956577  0.75035355  0.01006825  1
  V  V51  1  0.61751084  0.49855054  0.63016471  1
  V  V52  1  0.13061313  0.49887984  0.12992499  1
  V  V53  1  0.86978793  0.25073133  0.11966601  1
  V  V54  1  0.49933179  0.61657215  0.12869308  1
  V  V55  1  0.87614826  0.00292698  0.37805036  1
  V  V56  1  0.75054930  0.87877586  0.62466509  1
  V  V57  1  0.74827549  0.12945232  0.37146109  1
  V  V58  1  0.37219549  0.24433389  0.11128966  1
  V  V59  1  0.74638612  0.37380158  0.62890096  1
  V  V60  1  0.61986063  0.62325336  0.50457481  1
  V  V61  1  0.62526101  -0.00805044  0.12234288  1
  V  V62  1  0.13467007  0.25360715  0.87628334  1
  V  V63  1  0.25416515  0.01187481  0.24111068  1
  V  V64  1  0.12890141  0.24564799  0.38497536  1
  V  V65  1  0.04312099  0.93216413  0.43170456  1
  V  V66  1  0.37738634  0.12388944  0.75239657  1
  V  V67  1  0.37363134  0.74923119  0.12528857  1
  V  V68  1  0.87617136  0.75630355  0.12935798  1
  V  V69  1  0.00194962  0.75525550  0.25812356  1
  V  V70  1  0.00416902  0.25213652  0.24406540  1
  V  V71  1  0.26593789  0.71617446  0.51577476  1
  V  V72  1  0.50705685  0.37095415  0.37524270  1
  V  V73  1  0.87782349  0.50192846  0.87547126  1
  V  V74  1  0.87607515  0.87609987  0.49402482  1
  V  V75  1  0.12370711  0.88107234  0.24862900  1
  V  V76  1  0.62539814  0.12849018  0.49137574  1
  V  V77  1  -0.00432849  0.74939049  0.75263253  1
  V  V78  1  0.50271894  0.12563991  0.62571495  1
  V  V79  1  0.25994294  0.37602094  0.10718919  1
  V  V80  1  0.50026986  0.00068085  0.49759559  1
  V  V81  1  0.39099152  -0.00345767  0.87799541  1
  V  V82  1  0.87416956  0.12617151  0.24789328  1
  V  V83  1  0.13340446  0.12158870  0.00162694  1
  V  V84  1  0.24857176  0.00223795  0.75311451  1
  Zn  Zn85  1  0.61007945  0.75730507  0.87257723  1
  Zn  Zn86  1  0.62281932  0.36992155  0.25005203  1
  Zn  Zn87  1  0.25208191  0.75347391  -0.00157239  1
  Zn  Zn88  1  0.62590771  0.87116513  0.24886617  1
  Zn  Zn89  1  0.38037985  0.01005451  0.36429982  1
  Zn  Zn90  1  0.87172235  0.37990897  0.49804495  1
  Zn  Zn91  1  0.11717196  0.50312992  0.63582944  1
  Zn  Zn92  1  0.36716584  0.61471275  0.24861429  1
  Zn  Zn93  1  0.12255642  0.00469207  0.61006465  1
  Zn  Zn94  1  0.01765101  0.63198723  0.60992806  1
  Zn  Zn95  1  0.00320975  -0.00165974  0.00257049  1
  Zn  Zn96  1  0.00099417  0.51280257  0.50319541  1
  Zn  Zn97  1  0.36770954  0.49135344  0.37030288  1
  Zn  Zn98  1  0.74637750  0.62138707  0.37578599  1
  Zn  Zn99  1  0.61019087  0.87624901  0.76031249  1
  Zn  Zn100  1  0.25602369  0.12818756  0.87991597  1
  Zn  Zn101  1  0.51144467  0.37116985  0.87833088  1
  Zn  Zn102  1  0.00338591  0.62504745  0.12698133  1
  Zn  Zn103  1  0.75213463  0.00699524  0.74760037  1
  Zn  Zn104  1  0.87407536  0.49941284  0.37519655  1
  Zn  Zn105  1  0.61918808  0.74709623  0.37769742  1
  Zn  Zn106  1  0.24664859  0.49888715  0.75060749  1
  Zn  Zn107  1  0.18979494  0.19154935  0.18091248  1
  Zn  Zn108  1  0.18452787  0.18832233  0.68733726  1
  Zn  Zn109  1  0.18603187  0.69153905  0.19142573  1
  Zn  Zn110  1  0.18863137  0.68854615  0.69090364  1
  Zn  Zn111  1  0.68329043  0.18596391  0.18492484  1
  Zn  Zn112  1  0.69119339  0.18447890  0.68721033  1
  Zn  Zn113  1  0.68366386  0.68730071  0.18984678  1
  Zn  Zn114  1  0.67748848  0.68881594  0.68760219  1
  Zn  Zn115  1  0.31850693  0.30541688  0.30905505  1
  Zn  Zn116  1  0.32229243  0.30932735  0.81721198  1
  Zn  Zn117  1  0.31054001  0.80926173  0.31725276  1
  Zn  Zn118  1  0.32149453  0.81196462  0.81294771  1
  Zn  Zn119  1  0.81070106  0.31283679  0.30827836  1
  Zn  Zn120  1  0.82021561  0.31652434  0.80501054  1
  Zn  Zn121  1  0.81226033  0.81255945  0.31674509  1
  Zn  Zn122  1  0.78236210  0.82839760  0.82812411  1
  Zn  Zn123  1  0.17890404  0.43436503  0.44587314  1
  Zn  Zn124  1  0.18801293  0.43953672  0.93263782  1
  Zn  Zn125  1  0.20400832  0.94151560  0.43010366  1
  Zn  Zn126  1  0.19090234  0.94088942  0.93689383  1
  Zn  Zn127  1  0.68631092  0.43877210  0.43677901  1
  Zn  Zn128  1  0.68601636  0.45581885  0.94263055  1
  Zn  Zn129  1  0.68639485  0.93807652  0.43459862  1
  Zn  Zn130  1  0.68860738  0.93855641  0.94016317  1
  Zn  Zn131  1  0.31485523  0.05935847  0.06131090  1
  Zn  Zn132  1  0.31426314  0.05845481  0.56572255  1
  Zn  Zn133  1  0.31428536  0.56033083  0.05915681  1
  Zn  Zn134  1  0.29611314  0.55035555  0.55497586  1
  Zn  Zn135  1  0.80934224  0.06424067  0.05907652  1
  Zn  Zn136  1  0.81700765  0.06674182  0.56009198  1
  Zn  Zn137  1  0.81343786  0.56252821  0.06802484  1
  Zn  Zn138  1  0.81705862  0.56197237  0.56183411  1
  Zn  Zn139  1  0.43190527  0.43395557  0.19234319  1
  Zn  Zn140  1  0.43488102  0.43423735  0.69143797  1
  Zn  Zn141  1  0.43636822  0.93621279  0.18697661  1
  Zn  Zn142  1  0.43884602  0.93231515  0.68934846  1
  Zn  Zn143  1  0.93811833  0.43817393  0.18770049  1
  Zn  Zn144  1  0.93401808  0.44007203  0.68359820  1
  Zn  Zn145  1  0.93772146  0.93766407  0.19096822  1
  Zn  Zn146  1  0.93946283  0.94112984  0.68461884  1
  Zn  Zn147  1  0.06994860  0.06905152  0.30571390  1
  Zn  Zn148  1  0.06412472  0.06456758  0.81595246  1
  Zn  Zn149  1  0.06083260  0.56206584  0.31191448  1
  Zn  Zn150  1  0.07007551  0.56376852  0.80524653  1
  Zn  Zn151  1  0.56305331  0.06199346  0.30897405  1
  Zn  Zn152  1  0.56793348  0.06441429  0.81036189  1
  Zn  Zn153  1  0.55717583  0.56055422  0.31840207  1
  Zn  Zn154  1  0.55783420  0.57164029  0.81455146  1
  Zn  Zn155  1  0.43559878  0.18760483  0.43698573  1
  Zn  Zn156  1  0.44433770  0.18401946  0.93707053  1
  Zn  Zn157  1  0.42256269  0.67589692  0.45779805  1
  Zn  Zn158  1  0.43966901  0.69029211  0.93379567  1
  Zn  Zn159  1  0.93552405  0.19724153  0.43595879  1
  Zn  Zn160  1  0.94058094  0.18843526  0.93766229  1
  Zn  Zn161  1  0.93578376  0.68735991  0.43563258  1
  Zn  Zn162  1  0.93853449  0.68726293  0.94012231  1
  Zn  Zn163  1  0.06565636  0.31187247  0.05776957  1
  Zn  Zn164  1  0.06910825  0.33648658  0.55454350  1
  Zn  Zn165  1  0.06065318  0.81186188  0.06534620  1
  Zn  Zn166  1  0.06950684  0.80746511  0.57075865  1
  Zn  Zn167  1  0.55630652  0.30979638  0.06982725  1
  Zn  Zn168  1  0.56179872  0.31386444  0.56568909  1
  Zn  Zn169  1  0.56317979  0.80661693  0.06732314  1
  Zn  Zn170  1  0.55854718  0.81186607  0.56872001  1
  O  O171  1  0.11753227  0.13475989  0.10976200  1
  O  O172  1  0.11007649  0.12503685  0.62477427  1
  O  O173  1  0.12849068  0.61680007  0.12017314  1
  O  O174  1  0.13004563  0.61913003  0.62861824  1
  O  O175  1  0.61848893  0.11536199  0.11648694  1
  O  O176  1  0.62507277  0.11505022  0.61546183  1
  O  O177  1  0.61072418  0.63259734  0.11882276  1
  O  O178  1  0.63253905  0.61156029  0.61325458  1
  O  O179  1  0.38227201  0.36820196  0.38443383  1
  O  O180  1  0.38162054  0.38735020  0.87818174  1
  O  O181  1  0.38316032  0.88337492  0.37802964  1
  O  O182  1  0.36940411  0.88135184  0.89206144  1
  O  O183  1  0.88465817  0.37611661  0.36808284  1
  O  O184  1  0.88369556  0.38198139  0.88028172  1
  O  O185  1  0.87513647  0.88324584  0.38569553  1
  O  O186  1  0.87600169  0.88295345  0.88508035  1
  O  O187  1  0.25315653  0.01665368  0.36138293  1
  O  O188  1  0.26020847  0.00141228  0.86367070  1
  O  O189  1  0.23804213  0.50737495  0.37818294  1
  O  O190  1  0.26372975  0.50537767  0.87700831  1
  O  O191  1  0.75710727  0.00807622  0.36812634  1
  O  O192  1  0.76055259  0.00959970  0.87522383  1
  O  O193  1  0.75219670  0.49987326  0.36334993  1
  O  O194  1  0.75497838  0.51224135  0.87001686  1
  O  O195  1  0.24601903  0.48524366  0.11992504  1
  O  O196  1  0.24912292  0.47778054  0.62751556  1
  O  O197  1  0.24998186  0.99381773  0.13366126  1
  O  O198  1  0.24467139  0.99698268  0.63677512  1
  O  O199  1  0.75561350  0.48848728  0.13446738  1
  O  O200  1  0.74404608  0.49329548  0.63260644  1
  O  O201  1  0.74143738  1.00606475  0.13466718  1
  O  O202  1  0.74506599  0.99751109  0.62163346  1
  O  O203  1  0.00836274  0.36719651  0.25389132  1
  O  O204  1  -0.00769677  0.36667399  0.75917038  1
  O  O205  1  0.01047486  0.86884995  0.24620118  1
  O  O206  1  0.00267942  0.86691672  0.75453158  1
  O  O207  1  0.50223478  0.36509919  0.25778365  1
  O  O208  1  0.50073691  0.36003301  0.75352045  1
  O  O209  1  0.49813168  0.86618771  0.25808121  1
  O  O210  1  0.49799145  0.86029057  0.74793299  1
  O  O211  1  0.50084506  0.13354177  0.24259199  1
  O  O212  1  0.49577196  0.13036422  0.74400990  1
  O  O213  1  0.49683391  0.63014746  0.24531903  1
  O  O214  1  0.50257599  0.63962848  0.74669050  1
  O  O215  1  0.99780925  0.13368862  0.24002231  1
  O  O216  1  0.99934691  0.13505661  0.74907145  1
  O  O217  1  0.99191139  0.63357079  0.24815415  1
  O  O218  1  0.99342131  0.64035564  0.75838641  1
  O  O219  1  0.38341621  0.24960432  0.01218957  1
  O  O220  1  0.38288300  0.25554914  0.51245399  1
  O  O221  1  0.37399804  0.76128003  0.00814585  1
  O  O222  1  0.36312646  0.77364616  0.48432423  1
  O  O223  1  0.88194302  0.25724422  0.01193524  1
  O  O224  1  0.85997668  0.24940043  0.50951992  1
  O  O225  1  0.87180599  0.75372023  0.01199282  1
  O  O226  1  0.86568688  0.75824245  0.50201474  1
  O  O227  1  0.12328402  0.25420915  0.48237073  1
  O  O228  1  0.11849005  0.23844361  0.98523739  1
  O  O229  1  0.13442679  0.75706633  0.49053196  1
  O  O230  1  0.12622736  0.74222009  0.99627757  1
  O  O231  1  0.63661706  0.24142219  0.50912063  1
  O  O232  1  0.62637376  0.23998998  1.00570507  1
  O  O233  1  0.62885921  0.74090926  0.50329775  1
  O  O234  1  0.63371728  0.74394736  0.99923223  1
  O  O235  1  0.48975077  0.23963033  0.13062874  1
  O  O236  1  0.49354893  0.24473053  0.63453607  1
  O  O237  1  0.48919876  0.74277012  0.13403307  1
  O  O238  1  0.49824321  0.74946307  0.63680763  1
  O  O239  1  0.99474157  0.24644152  0.13138707  1
  O  O240  1  0.99565233  0.24357766  0.63022016  1
  O  O241  1  0.99354903  0.74721456  0.13736654  1
  O  O242  1  0.99331050  0.74947787  0.63576140  1
  O  O243  1  0.01153793  0.24808349  0.35940914  1
  O  O244  1  0.00517654  0.25693305  0.86694424  1
  O  O245  1  0.00794561  0.75029963  0.36410303  1
  O  O246  1  0.00360089  0.75754098  0.87143337  1
  O  O247  1  0.49540426  0.25198261  0.36172312  1
  O  O248  1  0.50060435  0.25085361  0.86201903  1
  O  O249  1  0.49460309  0.75471761  0.37069302  1
  O  O250  1  0.49713924  0.74931098  0.85988610  1
  O  O251  1  0.24888985  0.11776619  0.48860420  1
  O  O252  1  0.23779101  0.12267609  1.00016073  1
  O  O253  1  0.22510553  0.62034499  0.48257138  1
  O  O254  1  0.24005057  0.62697190  0.99531991  1
  O  O255  1  0.74349458  0.13172811  0.49276050  1
  O  O256  1  0.74131176  0.12885321  0.98973463  1
  O  O257  1  0.74342552  0.63323910  0.49944432  1
  O  O258  1  0.74250275  0.62764480  0.99890458  1
  O  O259  1  0.24673860  0.37237602  0.00973423  1
  O  O260  1  0.26108004  0.37155282  0.50971942  1
  O  O261  1  0.25088537  0.87596016  0.01382203  1
  O  O262  1  0.25813593  0.88459012  0.50979573  1
  O  O263  1  0.75225218  0.37036526  0.00178863  1
  O  O264  1  0.74955085  0.36763011  0.50598544  1
  O  O265  1  0.76389804  0.86468457  0.00251783  1
  O  O266  1  0.75632113  0.87118138  0.50504711  1
  O  O267  1  0.11979042  0.49023825  0.23597238  1
  O  O268  1  0.13169607  0.49062905  0.75131532  1
  O  O269  1  0.13706270  0.98888364  0.25417963  1
  O  O270  1  0.13384549  0.99478613  0.75453147  1
  O  O271  1  0.63367628  0.49877067  0.25236899  1
  O  O272  1  0.63540371  0.50831667  0.74509519  1
  O  O273  1  0.63374025  0.99872288  0.24233573  1
  O  O274  1  0.62893928  0.99550876  0.73869134  1
  O  O275  1  0.35851642  -0.00239696  0.24746426  1
  O  O276  1  0.37117817  0.00870942  0.75380016  1
  O  O277  1  0.37575540  0.50206287  0.25799043  1
  O  O278  1  0.37510225  0.49961585  0.76637346  1
  O  O279  1  0.86846266  0.00516941  0.25739773  1
  O  O280  1  0.87475308  -0.00345464  0.76364885  1
  O  O281  1  0.86930598  0.51019284  0.24890423  1
  O  O282  1  0.86282136  0.50765168  0.75616811  1
  O  O283  1  0.12164607  0.36283346  0.36497241  1
  O  O284  1  0.11754660  0.36240558  0.88189625  1
  O  O285  1  0.11990351  0.87345786  0.37285729  1
  O  O286  1  0.11961175  0.87030535  0.87218725  1
  O  O287  1  0.61078183  0.37312200  0.37671406  1
  O  O288  1  0.63478034  0.36529879  0.89025559  1
  O  O289  1  0.60952132  0.87281728  0.37525373  1
  O  O290  1  0.66740985  0.86142907  0.86270465  1
  O  O291  1  0.38122306  0.13422667  0.11888050  1
  O  O292  1  0.38164817  0.12813501  0.63211464  1
  O  O293  1  0.37899502  0.63437501  0.12474957  1
  O  O294  1  0.34511199  0.65226777  0.55604543  1
  O  O295  1  0.88101312  0.13294284  0.12716757  1
  O  O296  1  0.88787949  0.13438215  0.62058104  1
  O  O297  1  0.87675906  0.63702228  0.13516742  1
  O  O298  1  0.86909735  0.63674121  0.63564972  1
  O  O299  1  0.26457565  0.25846573  0.12474908  1
  O  O300  1  0.26708610  0.25114518  0.63302064  1
  O  O301  1  0.26074374  0.75773168  0.12685414  1
  O  O302  1  0.24170093  0.76195978  0.61310405  1
  O  O303  1  0.76133252  0.25739501  0.13269617  1
  O  O304  1  0.75633667  0.25542157  0.62208726  1
  O  O305  1  0.75739340  0.74526049  0.11732378  1
  O  O306  1  0.75298110  0.75909733  0.61417820  1
  O  O307  1  0.24097253  0.23870831  0.36892797  1
  O  O308  1  0.23848860  0.24997835  0.87176886  1
  O  O309  1  0.24359778  0.73976590  0.38717020  1
  O  O310  1  0.24728377  0.74315529  0.87778718  1
  O  O311  1  0.75366884  0.24381014  0.38297311  1
  O  O312  1  0.75834771  0.24683037  0.87530603  1
  O  O313  1  0.74392308  0.75114945  0.38826437  1
  O  O314  1  0.76388792  0.73442804  0.89380761  1
  O  O315  1  0.00888212  0.12346423  0.00654835  1
  O  O316  1  -0.00078036  0.13098985  0.50709740  1
  O  O317  1  0.01288585  0.61901036  0.00177467  1
  O  O318  1  0.00476434  0.62750629  0.49582561  1
  O  O319  1  0.51155294  0.12524851  0.00955437  1
  O  O320  1  0.50803410  0.12286419  0.50492176  1
  O  O321  1  0.50505285  0.62234277  0.00886771  1
  O  O322  1  0.50537100  0.60668238  0.49916132  1
  O  O323  1  0.49362730  0.37924169  0.49574810  1
  O  O324  1  0.50918791  0.38917972  1.00135702  1
  O  O325  1  0.49318588  0.87991682  0.49448120  1
  O  O326  1  0.49043299  0.87183749  1.00381966  1
  O  O327  1  0.98575372  0.34859749  0.47675579  1
  O  O328  1  0.99573757  0.38107086  0.99192136  1
  O  O329  1  0.99286514  0.86840915  0.50076896  1
  O  O330  1  0.98922980  0.87515789  0.99669076  1
  O  O331  1  0.49688742  0.48796895  0.38634741  1
  O  O332  1  0.49350071  0.49827444  0.88200344  1
  O  O333  1  0.49853028  0.99402189  0.37849229  1
  O  O334  1  0.49014894  0.99970667  0.86718745  1
  O  O335  1  1.00147008  0.48664515  0.37482239  1
  O  O336  1  0.99824990  0.49336427  0.87865516  1
  O  O337  1  0.99367263  1.00170188  0.36672305  1
  O  O338  1  0.99350881  0.99348401  0.87773311  1
  O  O339  1  -0.00403300  0.01479576  0.12604072  1
  O  O340  1  0.00041011  0.01788738  0.62473697  1
  O  O341  1  0.01004070  0.50025486  0.11735763  1
  O  O342  1  -0.00444023  0.51328985  0.62841635  1
  O  O343  1  0.50691625  0.01135769  0.13399747  1
  O  O344  1  0.50807192  0.00555134  0.61888122  1
  O  O345  1  0.49105734  0.51026484  0.11930752  1
  O  O346  1  0.51039892  0.48887945  0.62108364  1
  O  O347  1  0.24240295  0.36769825  0.24160038  1
  O  O348  1  0.26421372  0.37253404  0.73990232  1
  O  O349  1  0.24478558  0.88158164  0.24298622  1
  O  O350  1  0.24843997  0.88186522  0.74405502  1
  O  O351  1  0.74491731  0.38158889  0.24209806  1
  O  O352  1  0.75212086  0.38675389  0.74305681  1
  O  O353  1  0.74769406  0.88751348  0.25704290  1
  O  O354  1  0.75951357  0.88140119  0.72816461  1
  O  O355  1  0.24310907  0.11312635  0.24672032  1
  O  O356  1  0.25956780  0.11850266  0.75192016  1
  O  O357  1  0.24911456  0.62963445  0.26428523  1
  O  O358  1  0.25012551  0.62324273  0.76460474  1
  O  O359  1  0.75450689  0.11938349  0.25397983  1
  O  O360  1  0.74465137  0.12480388  0.76826664  1
  O  O361  1  0.75428662  0.61755939  0.24920221  1
  O  O362  1  0.75390678  0.62287723  0.75961038  1
  O  O363  1  0.35888926  0.12865585  0.37445921  1
  O  O364  1  0.37560637  0.11726550  0.86974752  1
  O  O365  1  0.35299887  0.61937682  0.37902596  1
  O  O366  1  0.36566201  0.61442533  0.88619045  1
  O  O367  1  0.87219939  0.12067565  0.36794365  1
  O  O368  1  0.86842378  0.11572040  0.88457217  1
  O  O369  1  0.86850214  0.62837863  0.36009456  1
  O  O370  1  0.87072183  0.61918340  0.87096635  1
  O  O371  1  0.13609005  0.37809643  0.12787999  1
  O  O372  1  0.14714721  0.34554685  0.63765421  1
  O  O373  1  0.13453980  0.86955629  0.13444927  1
  O  O374  1  0.13427359  0.88277810  0.63255308  1
  O  O375  1  0.63925324  0.37027982  0.12324166  1
  O  O376  1  0.63789997  0.38313913  0.62235487  1
  O  O377  1  0.61884866  0.88736555  0.12758001  1
  O  O378  1  0.63397876  0.88903830  0.61639759  1
  O  O379  1  0.11954569  0.25709442  0.24923972  1
  O  O380  1  0.11712449  0.24357403  0.76695379  1
  O  O381  1  0.12113181  0.76338050  0.25974546  1
  O  O382  1  0.11718779  0.75846231  0.75787719  1
  O  O383  1  0.60428820  0.25096413  0.23955473  1
  O  O384  1  0.61128792  0.24428278  0.74414296  1
  O  O385  1  0.61069115  0.75127983  0.25370045  1
  O  O386  1  0.62247867  0.75779217  0.75262096  1
  O  O387  1  0.39049503  0.25284904  0.23532159  1
  O  O388  1  0.38503608  0.23687805  0.74755037  1
  O  O389  1  0.38207312  0.74745109  0.24420896  1
  O  O390  1  0.38011416  0.74609966  0.74510379  1
  O  O391  1  0.88398962  0.24521594  0.24047502  1
  O  O392  1  0.88369576  0.25145677  0.73596542  1
  O  O393  1  0.88112826  0.74875600  0.24685442  1
  O  O394  1  0.88044165  0.74935021  0.74702158  1
  O  O395  1  0.37998762  0.48588565  0.49689719  1
  O  O396  1  0.38656343  0.50258065  0.98986770  1
  O  O397  1  0.38279713  0.99479814  0.49528443  1
  O  O398  1  0.37547169  0.98739173  0.99359329  1
  O  O399  1  0.87977815  0.49666549  0.49395036  1
  O  O400  1  0.88082847  0.49595884  0.99522553  1
  O  O401  1  0.87350040  0.99511572  0.48606373  1
  O  O402  1  0.87707114  0.99171477  0.99653227  1
  O  O403  1  0.12181535  0.01667686  -0.00646843  1
  O  O404  1  0.11255494  -0.01351217  0.48917693  1
  O  O405  1  0.12354569  0.50622780  0.00819128  1
  O  O406  1  0.10121762  0.45164667  0.52495446  1
  O  O407  1  0.63064738  0.00594331  0.00935442  1
  O  O408  1  0.62055025  0.00835189  0.50377393  1
  O  O409  1  0.61348969  0.51722310  0.00246332  1
  O  O410  1  0.61740587  0.50334723  0.50888849  1
  O  O411  1  0.36536276  0.36607233  0.12190424  1
  O  O412  1  0.37162622  0.36418395  0.61963325  1
  O  O413  1  0.36992827  0.87007972  0.11544390  1
  O  O414  1  0.36114578  0.88455324  0.61604985  1
  O  O415  1  0.86715891  0.36907273  0.11987215  1
  O  O416  1  0.86289767  0.36773173  0.62271910  1
  O  O417  1  0.87904223  0.86431056  0.12151271  1
  O  O418  1  0.87162879  0.87374988  0.61160048  1
  O  O419  1  0.13648574  0.13763847  0.36984367  1
  O  O420  1  0.12833766  0.13443849  0.88535522  1
  O  O421  1  0.13133068  0.63691556  0.36263500  1
  O  O422  1  0.13281232  0.63157276  0.88355466  1
  O  O423  1  0.62821187  0.12209697  0.38579228  1
  O  O424  1  0.63240457  0.12006088  0.88798393  1
  O  O425  1  0.62508903  0.62487044  0.39037855  1
  O  O426  1  0.63440479  0.62953656  0.88559515  1
