# generated using pymatgen
data_V85Zn86O256
_symmetry_space_group_name_H-M   'P 1'
_cell_length_a   16.96474246
_cell_length_b   16.95854844
_cell_length_c   16.97119061
_cell_angle_alpha   89.92060429
_cell_angle_beta   89.98241595
_cell_angle_gamma   89.95747224
_symmetry_Int_Tables_number   1
_chemical_formula_structural   V85Zn86O256
_chemical_formula_sum   'V85 Zn86 O256'
_cell_volume   4882.56126624
_cell_formula_units_Z   1
loop_
 _symmetry_equiv_pos_site_id
 _symmetry_equiv_pos_as_xyz
  1  'x, y, z'
loop_
 _atom_site_type_symbol
 _atom_site_label
 _atom_site_symmetry_multiplicity
 _atom_site_fract_x
 _atom_site_fract_y
 _atom_site_fract_z
 _atom_site_occupancy
  V  V0  1  0.50230663  0.12410792  0.62441223  1
  V  V1  1  0.00670163  0.49468000  0.49718572  1
  V  V2  1  0.25270482  0.25579830  0.49764723  1
  V  V3  1  0.74606030  0.74206452  -0.00233188  1
  V  V4  1  0.37653097  0.12293819  0.75132571  1
  V  V5  1  0.49693048  0.00382278  0.00368338  1
  V  V6  1  -0.00776545  0.75576596  0.24159441  1
  V  V7  1  0.24787649  0.47988075  0.24786097  1
  V  V8  1  0.24537622  0.12942325  0.87824711  1
  V  V9  1  0.87202225  0.14273304  0.74296077  1
  V  V10  1  0.62859266  0.37663412  0.75381106  1
  V  V11  1  0.00205371  0.87068098  0.87251827  1
  V  V12  1  0.24870733  0.87205418  0.12310340  1
  V  V13  1  0.00240406  0.36395156  0.87186717  1
  V  V14  1  0.62343131  0.87302304  0.24855143  1
  V  V15  1  0.62382271  0.25103676  0.87953116  1
  V  V16  1  0.49770838  0.51320206  0.00379372  1
  V  V17  1  0.37438003  -0.00133582  0.87527758  1
  V  V18  1  -0.00736638  0.13681263  0.62245210  1
  V  V19  1  0.12132754  0.00071325  0.62692442  1
  V  V20  1  0.62511792  0.62491089  0.50152276  1
  V  V21  1  0.19340780  0.42871402  0.68433873  1
  V  V22  1  0.75121995  0.51780692  0.76279564  1
  V  V23  1  0.87994254  0.51673055  0.87722803  1
  V  V24  1  0.50141749  0.49818567  0.50099359  1
  V  V25  1  0.62552610  0.73852254  0.87857702  1
  V  V26  1  0.62024800  0.51267710  0.12330625  1
  V  V27  1  0.62333169  0.12532273  0.00341722  1
  V  V28  1  0.38005738  0.49754820  0.37495904  1
  V  V29  1  0.87595674  0.00008411  0.87341946  1
  V  V30  1  0.36852461  0.61325293  0.75911130  1
  V  V31  1  0.62090835  0.00419955  0.12550222  1
  V  V32  1  0.74984345  0.12549424  0.87571510  1
  V  V33  1  0.24799099  -0.00138291  0.75035045  1
  V  V34  1  0.75856603  0.24998488  0.00507854  1
  V  V35  1  0.37141397  0.74882212  0.62600597  1
  V  V36  1  0.11590426  0.25562977  0.37262698  1
  V  V37  1  0.74544893  0.13664941  0.37438962  1
  V  V38  1  0.12567000  0.12186298  0.49645815  1
  V  V39  1  0.75139404  0.74926052  0.50284612  1
  V  V40  1  0.00286223  0.00034651  -0.00101022  1
  V  V41  1  0.25042374  0.62494003  0.37182495  1
  V  V42  1  0.24973384  0.74970713  0.49880750  1
  V  V43  1  0.12073099  0.86637595  0.75183845  1
  V  V44  1  0.75196404  0.37439934  0.12497385  1
  V  V45  1  0.49369621  0.38141020  0.87986151  1
  V  V46  1  0.87769512  0.13665059  0.24807559  1
  V  V47  1  0.75075655  0.61896751  0.37795947  1
  V  V48  1  0.88033883  0.87244921  0.49536222  1
  V  V49  1  0.75364178  0.87176048  0.12444500  1
  V  V50  1  0.25629881  -0.00344029  0.25302762  1
  V  V51  1  0.37864126  0.74377456  0.12040447  1
  V  V52  1  0.05510307  0.30493869  0.19976626  1
  V  V53  1  0.12661394  0.62112974  0.50741262  1
  V  V54  1  0.24853315  0.25345679  0.00584326  1
  V  V55  1  0.37469394  0.38067937  0.00663178  1
  V  V56  1  -0.00311139  0.12806209  0.12741359  1
  V  V57  1  0.62546563  0.36869868  0.25068809  1
  V  V58  1  0.89262395  0.49871849  0.36940265  1
  V  V59  1  0.49595827  0.87594983  0.37181216  1
  V  V60  1  0.12043962  0.87652586  0.25561810  1
  V  V61  1  0.87357625  0.87165557  0.00190089  1
  V  V62  1  0.00058074  -0.00465347  0.49171185  1
  V  V63  1  0.75268555  0.00039601  0.74670803  1
  V  V64  1  0.62707448  0.49877947  0.62847560  1
  V  V65  1  0.50556647  0.36270212  0.37729622  1
  V  V66  1  0.23607602  0.74558261  -0.00945416  1
  V  V67  1  0.38326197  0.11998754  0.24633836  1
  V  V68  1  0.23629371  0.61093209  0.87524044  1
  V  V69  1  0.49839862  -0.00119187  0.49803808  1
  V  V70  1  0.62289045  0.74859553  0.37459733  1
  V  V71  1  0.25655549  0.12069151  0.37427545  1
  V  V72  1  0.62774873  0.87444364  0.75006200  1
  V  V73  1  -0.01086213  0.62134435  0.62809785  1
  V  V74  1  0.38072215  0.62217022  0.24435905  1
  V  V75  1  0.87202872  0.63228670  0.24124337  1
  V  V76  1  0.37331200  0.87711981  0.49622105  1
  V  V77  1  0.11322430  0.75085036  0.37553920  1
  V  V78  1  0.49957660  0.25090855  0.75241566  1
  V  V79  1  0.37424310  0.25602687  0.62494917  1
  V  V80  1  0.49654337  0.75085731  0.75203467  1
  V  V81  1  0.49919188  0.87624527  0.87455502  1
  V  V82  1  0.49557658  0.62493484  0.62651260  1
  V  V83  1  0.38676660  0.24748347  0.12483614  1
  V  V84  1  0.75305664  -0.00077798  0.25294220  1
  Zn  Zn85  1  0.75263098  0.87575333  0.62364741  1
  Zn  Zn86  1  -0.00665402  0.73378290  0.76184222  1
  Zn  Zn87  1  0.76659397  0.36496690  0.63219288  1
  Zn  Zn88  1  0.12083020  0.13188721  0.00138571  1
  Zn  Zn89  1  0.62704296  -0.00076166  0.62150375  1
  Zn  Zn90  1  0.62205427  0.13091297  0.49054452  1
  Zn  Zn91  1  0.12517581  0.49670318  0.12707144  1
  Zn  Zn92  1  0.88133455  -0.00318899  0.36981491  1
  Zn  Zn93  1  0.06203101  0.29545717  0.72361469  1
  Zn  Zn94  1  0.74827578  0.50077621  0.24884055  1
  Zn  Zn95  1  0.37181554  0.87284139  -0.00164403  1
  Zn  Zn96  1  0.50637306  0.24077421  0.25057601  1
  Zn  Zn97  1  0.87773247  0.36726449  0.50171039  1
  Zn  Zn98  1  0.87444201  0.74935058  0.63196844  1
  Zn  Zn99  1  0.12573713  0.00231503  0.12628288  1
  Zn  Zn100  1  0.37338439  0.37819311  0.50470710  1
  Zn  Zn101  1  0.24776302  0.87599017  0.62404828  1
  Zn  Zn102  1  0.87450731  0.38119697  -0.00100545  1
  Zn  Zn103  1  0.01740956  0.50873720  -0.00288090  1
  Zn  Zn104  1  0.50155332  0.74431662  0.24171778  1
  Zn  Zn105  1  0.00819592  0.62504162  0.11869791  1
  Zn  Zn106  1  0.75042738  0.25442342  0.51174758  1
  Zn  Zn107  1  0.19303511  0.18291219  0.18344476  1
  Zn  Zn108  1  0.19394999  0.18717315  0.68215448  1
  Zn  Zn109  1  0.18984184  0.68729810  0.18656473  1
  Zn  Zn110  1  0.18704059  0.68565436  0.69129100  1
  Zn  Zn111  1  0.68947597  0.18789810  0.18805211  1
  Zn  Zn112  1  0.68494879  0.18975585  0.68422882  1
  Zn  Zn113  1  0.68984716  0.68976753  0.18661296  1
  Zn  Zn114  1  0.68555891  0.68891704  0.68653945  1
  Zn  Zn115  1  0.32042977  0.30512826  0.31699459  1
  Zn  Zn116  1  0.31158174  0.31308459  0.81731636  1
  Zn  Zn117  1  0.31271954  0.80844412  0.31096216  1
  Zn  Zn118  1  0.30897008  0.81134681  0.81261424  1
  Zn  Zn119  1  0.81678639  0.31658456  0.31283709  1
  Zn  Zn120  1  0.81284946  0.32101957  0.81935364  1
  Zn  Zn121  1  0.81120406  0.81286484  0.31760768  1
  Zn  Zn122  1  0.81506501  0.80715853  0.81391168  1
  Zn  Zn123  1  0.18778273  0.43702774  0.43072555  1
  Zn  Zn124  1  0.18486718  0.43416688  0.93362759  1
  Zn  Zn125  1  0.18819758  0.93747010  0.43504432  1
  Zn  Zn126  1  0.18478411  0.93778531  0.93648241  1
  Zn  Zn127  1  0.68984962  0.43219340  0.43948826  1
  Zn  Zn128  1  0.68452683  0.44165845  0.94174000  1
  Zn  Zn129  1  0.68544682  0.93717640  0.43745905  1
  Zn  Zn130  1  0.68687379  0.93583855  0.93559966  1
  Zn  Zn131  1  0.31263537  0.06292629  0.06526803  1
  Zn  Zn132  1  0.31397145  0.06266248  0.56247832  1
  Zn  Zn133  1  0.30150682  0.56011110  0.06167910  1
  Zn  Zn134  1  0.30937231  0.55903214  0.56479762  1
  Zn  Zn135  1  0.81447354  0.06086562  0.06512746  1
  Zn  Zn136  1  0.81402651  0.06298710  0.55931248  1
  Zn  Zn137  1  0.81123369  0.56153875  0.06283420  1
  Zn  Zn138  1  0.82791020  0.52595222  0.57572125  1
  Zn  Zn139  1  0.43910749  0.43383072  0.18758783  1
  Zn  Zn140  1  0.43780414  0.43678885  0.69018123  1
  Zn  Zn141  1  0.43501112  0.93380513  0.18472439  1
  Zn  Zn142  1  0.43656868  0.93624468  0.68437559  1
  Zn  Zn143  1  0.93502879  0.44423866  0.18389008  1
  Zn  Zn144  1  0.94195839  0.44465466  0.69050351  1
  Zn  Zn145  1  0.93737646  0.93993861  0.18599570  1
  Zn  Zn146  1  0.93663668  0.93694130  0.68260725  1
  Zn  Zn147  1  0.06640199  0.06664746  0.31008396  1
  Zn  Zn148  1  0.07773845  0.10651059  0.79236641  1
  Zn  Zn149  1  0.07495041  0.57509210  0.28615437  1
  Zn  Zn150  1  0.06783663  0.54953392  0.80564759  1
  Zn  Zn151  1  0.56393136  0.05650228  0.31443245  1
  Zn  Zn152  1  0.56492990  0.06178065  0.81316202  1
  Zn  Zn153  1  0.56374979  0.55848141  0.30965378  1
  Zn  Zn154  1  0.55575881  0.56170785  0.81509933  1
  Zn  Zn155  1  0.43550734  0.18428949  0.43701075  1
  Zn  Zn156  1  0.43565215  0.18744525  0.93894187  1
  Zn  Zn157  1  0.43748511  0.68729563  0.43609664  1
  Zn  Zn158  1  0.43078772  0.69014200  0.93649500  1
  Zn  Zn159  1  0.93060550  0.18421884  0.43861485  1
  Zn  Zn160  1  0.93525960  0.18575927  0.93613489  1
  Zn  Zn161  1  0.93641620  0.68228792  0.43852515  1
  Zn  Zn162  1  0.93785205  0.68839807  0.94397688  1
  Zn  Zn163  1  0.06913324  0.32840808  0.03911678  1
  Zn  Zn164  1  0.06812573  0.31518256  0.55202812  1
  Zn  Zn165  1  0.06261296  0.81389096  0.06473012  1
  Zn  Zn166  1  0.06066351  0.81001322  0.56465964  1
  Zn  Zn167  1  0.56459949  0.31638616  0.06524514  1
  Zn  Zn168  1  0.57130256  0.31056001  0.56160000  1
  Zn  Zn169  1  0.56247217  0.81531368  0.06061213  1
  Zn  Zn170  1  0.56204694  0.81219753  0.56428839  1
  O  O171  1  0.11319798  0.12245288  0.12347610  1
  O  O172  1  0.11922465  0.11398839  0.61456125  1
  O  O173  1  0.11336920  0.60977674  0.17224703  1
  O  O174  1  0.12772856  0.62974786  0.60912695  1
  O  O175  1  0.62950999  0.11077293  0.12225054  1
  O  O176  1  0.60975380  0.12054792  0.62874275  1
  O  O177  1  0.62441983  0.61153137  0.13292854  1
  O  O178  1  0.61458104  0.61984998  0.62246352  1
  O  O179  1  0.38691986  0.38188234  0.37864195  1
  O  O180  1  0.38836013  0.36848537  0.88627736  1
  O  O181  1  0.38145913  0.86652438  0.38713936  1
  O  O182  1  0.38025023  0.88191543  0.87502828  1
  O  O183  1  0.87060651  0.39788639  0.37316105  1
  O  O184  1  0.88187941  0.38774905  0.87794890  1
  O  O185  1  0.87041958  0.87903922  0.38939766  1
  O  O186  1  0.87819888  0.88373644  0.88350008  1
  O  O187  1  0.24872312  0.00657446  0.36472248  1
  O  O188  1  0.25875867  0.00373490  0.87231550  1
  O  O189  1  0.26498970  0.50408040  0.37122996  1
  O  O190  1  0.25204635  0.51290901  0.87974856  1
  O  O191  1  0.74782498  -0.00155636  0.35948531  1
  O  O192  1  0.75502498  0.00566364  0.86894813  1
  O  O193  1  0.75034028  0.51279070  0.37412924  1
  O  O194  1  0.75046812  0.50048586  0.86691166  1
  O  O195  1  0.24863874  0.49965626  0.14505114  1
  O  O196  1  0.24740029  0.48010591  0.61431477  1
  O  O197  1  0.24756401  0.98933905  0.13037114  1
  O  O198  1  0.24150444  0.99922169  0.62986241  1
  O  O199  1  0.73560181  0.49532746  0.12469701  1
  O  O200  1  0.73370156  0.50604215  0.64223389  1
  O  O201  1  0.74335980  0.99240305  0.13382694  1
  O  O202  1  0.74657182  0.99892128  0.63285077  1
  O  O203  1  -0.01096265  0.36156899  0.24787358  1
  O  O204  1  -0.00895669  0.37398012  0.76249692  1
  O  O205  1  0.00910990  0.87178058  0.24785484  1
  O  O206  1  0.00713391  0.88307334  0.75860149  1
  O  O207  1  0.50721842  0.37183379  0.25972085  1
  O  O208  1  0.50704263  0.37313394  0.76123377  1
  O  O209  1  0.50212027  0.87216059  0.25769702  1
  O  O210  1  0.50562745  0.87051620  0.75451077  1
  O  O211  1  0.48730159  0.12042211  0.25839485  1
  O  O212  1  0.49523982  0.12812147  0.74471864  1
  O  O213  1  0.48488345  0.62567966  0.25697639  1
  O  O214  1  0.48676919  0.63145237  0.74789979  1
  O  O215  1  0.99061121  0.11883943  0.24095556  1
  O  O216  1  0.98121604  0.11536113  0.73479118  1
  O  O217  1  0.98357375  0.64082476  0.25686954  1
  O  O218  1  1.00980826  0.62043459  0.73073017  1
  O  O219  1  0.37259658  0.25510302  0.00840638  1
  O  O220  1  0.36988799  0.24963307  0.50738452  1
  O  O221  1  0.36318908  0.75275318  0.00634679  1
  O  O222  1  0.36942144  0.75436519  0.50595469  1
  O  O223  1  0.86060055  0.25140980  -0.00304000  1
  O  O224  1  0.86430556  0.25554962  0.48809853  1
  O  O225  1  0.86018201  0.76448544  -0.00618729  1
  O  O226  1  0.86659908  0.75419608  0.49987110  1
  O  O227  1  0.13466880  0.24070012  0.49057766  1
  O  O228  1  0.14442457  0.25001717  1.00163629  1
  O  O229  1  0.13139365  0.74559737  0.49210483  1
  O  O230  1  0.13814522  0.74989719  1.00645880  1
  O  O231  1  0.63495957  0.24236074  0.50397336  1
  O  O232  1  0.62780891  0.24231584  0.99714141  1
  O  O233  1  0.63011926  0.74515861  0.49584012  1
  O  O234  1  0.63589216  0.75841863  0.99221931  1
  O  O235  1  0.49093026  0.24839172  0.12589428  1
  O  O236  1  0.49524182  0.24188511  0.63203295  1
  O  O237  1  0.48348670  0.75755591  0.12201691  1
  O  O238  1  0.49265272  0.74363859  0.63083986  1
  O  O239  1  1.00920397  0.24687578  0.12558968  1
  O  O240  1  1.00844489  0.23837110  0.62097599  1
  O  O241  1  1.00201272  0.74977856  0.13892732  1
  O  O242  1  0.99817045  0.73015405  0.61832604  1
  O  O243  1  0.01852258  0.23718817  0.38094657  1
  O  O244  1  -0.00384607  0.26302427  0.88006805  1
  O  O245  1  0.01077707  0.74740741  0.37199046  1
  O  O246  1  -0.00510541  0.76655720  0.87712851  1
  O  O247  1  0.49737471  0.25985044  0.37475876  1
  O  O248  1  0.50509032  0.25542749  0.87085130  1
  O  O249  1  0.50572974  0.76016852  0.37541354  1
  O  O250  1  0.50386782  0.75837307  0.87228664  1
  O  O251  1  0.24811955  0.12791956  0.49040402  1
  O  O252  1  0.25203521  0.13428437  0.99523175  1
  O  O253  1  0.24614592  0.62714492  0.48937260  1
  O  O254  1  0.25313062  0.63513024  0.98588928  1
  O  O255  1  0.74890587  0.11687912  0.48050956  1
  O  O256  1  0.74511771  0.13017568  0.99707218  1
  O  O257  1  0.74253153  0.63174160  0.49397046  1
  O  O258  1  0.75116908  0.64435722  1.00690850  1
  O  O259  1  0.26204997  0.35985325  -0.00987822  1
  O  O260  1  0.25349666  0.35905326  0.49033991  1
  O  O261  1  0.24754336  0.86510768  0.00659911  1
  O  O262  1  0.25851489  0.87083758  0.50017438  1
  O  O263  1  0.74527798  0.36567358  0.00672119  1
  O  O264  1  0.75433661  0.37928409  0.51076123  1
  O  O265  1  0.75594848  0.87547523  0.00750669  1
  O  O266  1  0.75324030  0.86536802  0.50055812  1
  O  O267  1  0.14792549  0.48671812  0.26853001  1
  O  O268  1  0.13983759  0.49405273  0.73880050  1
  O  O269  1  0.13594118  0.99241483  0.24928610  1
  O  O270  1  0.13022583  1.00247155  0.74044176  1
  O  O271  1  0.62455638  0.49160016  0.23847356  1
  O  O272  1  0.62830536  0.49556186  0.74958387  1
  O  O273  1  0.62987151  0.99266624  0.24165101  1
  O  O274  1  0.63599944  0.99260206  0.75118389  1
  O  O275  1  0.36406381  0.00340696  0.24397408  1
  O  O276  1  0.36905431  0.00244761  0.75413321  1
  O  O277  1  0.37132154  0.50407123  0.25693983  1
  O  O278  1  0.37726016  0.51517799  0.74711123  1
  O  O279  1  0.86635108  0.00575776  0.24933281  1
  O  O280  1  0.86241584  -0.00037748  0.75320985  1
  O  O281  1  0.87071503  0.51243309  0.25907229  1
  O  O282  1  0.85724640  0.50199816  0.76282064  1
  O  O283  1  0.12632642  0.35449063  0.37842546  1
  O  O284  1  0.10337776  0.37914769  0.87290868  1
  O  O285  1  0.13306011  0.86552931  0.36312889  1
  O  O286  1  0.11441681  0.88331754  0.86326539  1
  O  O287  1  0.61559158  0.38582711  0.36398141  1
  O  O288  1  0.61552733  0.37116174  0.87178259  1
  O  O289  1  0.61724688  0.86864481  0.36804189  1
  O  O290  1  0.61839067  0.87141751  0.86411579  1
  O  O291  1  0.37341984  0.13083188  0.13598071  1
  O  O292  1  0.38607305  0.13033534  0.62989832  1
  O  O293  1  0.36541010  0.63172756  0.13331988  1
  O  O294  1  0.37527551  0.63009296  0.63341050  1
  O  O295  1  0.88759820  0.12266147  0.13085653  1
  O  O296  1  0.88157445  0.12256965  0.63081589  1
  O  O297  1  0.86924745  0.62470100  0.13976446  1
  O  O298  1  0.88714068  0.62000339  0.62009218  1
  O  O299  1  0.26266431  0.24373471  0.11079910  1
  O  O300  1  0.26393236  0.23763914  0.61094515  1
  O  O301  1  0.25567971  0.75320127  0.11757217  1
  O  O302  1  0.25488748  0.75247194  0.61817532  1
  O  O303  1  0.74271092  0.25933655  0.11550374  1
  O  O304  1  0.75515407  0.25272484  0.63017783  1
  O  O305  1  0.74103752  0.76451489  0.11330620  1
  O  O306  1  0.74965886  0.74967116  0.61278145  1
  O  O307  1  0.24558733  0.23974486  0.37984862  1
  O  O308  1  0.26260211  0.23751533  0.88982267  1
  O  O309  1  0.24523739  0.74087723  0.37984718  1
  O  O310  1  0.24893925  0.74781338  0.88765012  1
  O  O311  1  0.74861518  0.23626290  0.36713647  1
  O  O312  1  0.74184111  0.24595857  0.88334246  1
  O  O313  1  0.74281060  0.74167922  0.38490641  1
  O  O314  1  0.73944835  0.75818054  0.88898570  1
  O  O315  1  -0.00054761  0.11776529  0.00537602  1
  O  O316  1  0.00348188  0.11567451  0.50590133  1
  O  O317  1  -0.00260456  0.62222759  0.00634178  1
  O  O318  1  0.01008220  0.61849923  0.50389918  1
  O  O319  1  0.50563364  0.11096876  -0.00592090  1
  O  O320  1  0.49901786  0.11580341  0.50557358  1
  O  O321  1  0.48836070  0.61213577  -0.00338808  1
  O  O322  1  0.50495909  0.61905869  0.50544792  1
  O  O323  1  0.50267909  0.38222125  0.49350181  1
  O  O324  1  0.49294361  0.38123292  0.99609171  1
  O  O325  1  0.49385880  0.87931381  0.49452140  1
  O  O326  1  0.49866428  0.88694678  0.99163927  1
  O  O327  1  1.00078060  0.39054575  0.49976343  1
  O  O328  1  0.99149432  0.38629049  0.98531806  1
  O  O329  1  0.99347905  0.88194702  0.50316436  1
  O  O330  1  0.99234792  0.87945119  0.99750145  1
  O  O331  1  0.49166958  0.49531807  0.37924764  1
  O  O332  1  0.50390153  0.49066515  0.88826166  1
  O  O333  1  0.50140176  0.98455734  0.38215597  1
  O  O334  1  0.49358948  0.99539409  0.87945974  1
  O  O335  1  0.99419145  0.50852132  0.37144828  1
  O  O336  1  0.98689306  0.50055353  0.87126111  1
  O  O337  1  1.00418102  1.00544771  0.38808227  1
  O  O338  1  0.99044337  0.99127837  0.88618926  1
  O  O339  1  0.00132609  0.00790405  0.11574035  1
  O  O340  1  0.00721473  0.00585267  0.61445198  1
  O  O341  1  0.00439364  0.50451463  0.12311746  1
  O  O342  1  0.00542164  0.51365763  0.61162927  1
  O  O343  1  0.50812497  -0.00734423  0.11543212  1
  O  O344  1  0.50051534  0.00659477  0.61743927  1
  O  O345  1  0.51154988  0.49573014  0.11901387  1
  O  O346  1  0.50791835  0.50578473  0.62373399  1
  O  O347  1  0.26314205  0.38246060  0.25510887  1
  O  O348  1  0.25566368  0.37561952  0.74488657  1
  O  O349  1  0.24610301  0.87916885  0.24429177  1
  O  O350  1  0.23900944  0.88107510  0.74884004  1
  O  O351  1  0.74273873  0.37813071  0.24403105  1
  O  O352  1  0.73653739  0.38365705  0.75257551  1
  O  O353  1  0.74572832  0.87865176  0.24251401  1
  O  O354  1  0.74210111  0.88158988  0.74976913  1
  O  O355  1  0.25805499  0.11506734  0.25447364  1
  O  O356  1  0.26015252  0.11712825  0.75921324  1
  O  O357  1  0.26167562  0.62086890  0.26357840  1
  O  O358  1  0.25992367  0.63201243  0.76234176  1
  O  O359  1  0.75568888  0.11708587  0.25444718  1
  O  O360  1  0.75353442  0.11665979  0.75523294  1
  O  O361  1  0.75532849  0.62860504  0.26063178  1
  O  O362  1  0.74101620  0.61577796  0.75521665  1
  O  O363  1  0.36349818  0.12828666  0.36547345  1
  O  O364  1  0.36969174  0.11607397  0.87123792  1
  O  O365  1  0.36970890  0.61705336  0.37122117  1
  O  O366  1  0.36737880  0.62952516  0.86152039  1
  O  O367  1  0.86299830  0.11687177  0.36451482  1
  O  O368  1  0.86879289  0.11842487  0.86549268  1
  O  O369  1  0.86605969  0.61904081  0.36842598  1
  O  O370  1  0.87636223  0.61564113  0.87346455  1
  O  O371  1  0.11289605  0.36536914  0.14138319  1
  O  O372  1  0.12517934  0.35759623  0.64202304  1
  O  O373  1  0.13545356  0.87376545  0.13693891  1
  O  O374  1  0.12286443  0.88622377  0.63167290  1
  O  O375  1  0.63197216  0.38314757  0.13265281  1
  O  O376  1  0.61783262  0.38605002  0.63986620  1
  O  O377  1  0.63112210  0.88493752  0.12915932  1
  O  O378  1  0.62481252  0.87566936  0.63893557  1
  O  O379  1  0.12411900  0.24545958  0.25766190  1
  O  O380  1  0.12161102  0.21046310  0.76080806  1
  O  O381  1  0.11779690  0.75913579  0.25829128  1
  O  O382  1  0.11630039  0.76404966  0.74257986  1
  O  O383  1  0.62219773  0.26313939  0.24409214  1
  O  O384  1  0.61800408  0.25882750  0.75784831  1
  O  O385  1  0.62087000  0.75553504  0.25417602  1
  O  O386  1  0.61848969  0.75714483  0.75655936  1
  O  O387  1  0.37892699  0.23840126  0.24207316  1
  O  O388  1  0.38062284  0.24307512  0.74413373  1
  O  O389  1  0.37519607  0.74003382  0.24043450  1
  O  O390  1  0.37881903  0.74725759  0.74289132  1
  O  O391  1  0.86980803  0.23591951  0.25077588  1
  O  O392  1  0.86768567  0.24050520  0.75611224  1
  O  O393  1  0.88157779  0.74743819  0.25597667  1
  O  O394  1  0.88303656  0.75668551  0.74458637  1
  O  O395  1  0.38299218  0.49914858  0.49286540  1
  O  O396  1  0.37987076  0.48757868  1.01236672  1
  O  O397  1  0.38648855  0.98991841  0.50431373  1
  O  O398  1  0.38166024  0.99723559  0.99593232  1
  O  O399  1  0.89086525  0.51156068  0.47900911  1
  O  O400  1  0.86441344  0.50181551  0.98232393  1
  O  O401  1  0.88489733  0.99197246  0.49689659  1
  O  O402  1  0.88114132  0.99176406  0.99571183  1
  O  O403  1  0.11132429  -0.00284785  0.00406766  1
  O  O404  1  0.12056468  0.00181012  0.50565844  1
  O  O405  1  0.13089941  0.48832884  0.01329277  1
  O  O406  1  0.11872347  0.51087833  0.48474282  1
  O  O407  1  0.61877502  0.00401308  0.00616717  1
  O  O408  1  0.61118394  0.00121595  0.50138489  1
  O  O409  1  0.61424451  0.49869419  0.01439267  1
  O  O410  1  0.62099685  0.50564101  0.51149247  1
  O  O411  1  0.37921444  0.36282797  0.11727627  1
  O  O412  1  0.38547099  0.35964885  0.62352193  1
  O  O413  1  0.36104357  0.86614265  0.12383751  1
  O  O414  1  0.37442474  0.86714920  0.61283741  1
  O  O415  1  0.85551797  0.38649756  0.12046649  1
  O  O416  1  0.86800769  0.41773264  0.61139778  1
  O  O417  1  0.86403140  0.88084811  0.11607396  1
  O  O418  1  0.87190992  0.87285642  0.61032388  1
  O  O419  1  0.13832913  0.12946403  0.37802966  1
  O  O420  1  0.14299189  0.11101093  0.88617146  1
  O  O421  1  0.13458321  0.63453506  0.37679600  1
  O  O422  1  0.13778849  0.62159959  0.86456248  1
  O  O423  1  0.64091244  0.11931988  0.37003519  1
  O  O424  1  0.63164316  0.12979570  0.88139552  1
  O  O425  1  0.62955561  0.62887592  0.37955210  1
  O  O426  1  0.61644405  0.63993953  0.87263731  1
