# generated using pymatgen
data_V85Zn86O256
_symmetry_space_group_name_H-M   'P 1'
_cell_length_a   16.92903824
_cell_length_b   16.94876067
_cell_length_c   16.94056043
_cell_angle_alpha   90.11793963
_cell_angle_beta   90.00720700
_cell_angle_gamma   90.05914722
_symmetry_Int_Tables_number   1
_chemical_formula_structural   V85Zn86O256
_chemical_formula_sum   'V85 Zn86 O256'
_cell_volume   4860.67799927
_cell_formula_units_Z   1
loop_
 _symmetry_equiv_pos_site_id
 _symmetry_equiv_pos_as_xyz
  1  'x, y, z'
loop_
 _atom_site_type_symbol
 _atom_site_label
 _atom_site_symmetry_multiplicity
 _atom_site_fract_x
 _atom_site_fract_y
 _atom_site_fract_z
 _atom_site_occupancy
  V  V0  1  0.50147292  0.74626936  0.24034093  1
  V  V1  1  0.74845524  0.36934428  0.62202407  1
  V  V2  1  0.62343298  0.12241386  -0.00263854  1
  V  V3  1  0.49928922  0.50393204  0.00813975  1
  V  V4  1  0.50860993  0.00179271  0.49851016  1
  V  V5  1  0.12344071  0.49860269  0.12278089  1
  V  V6  1  0.12202242  0.00450379  0.12663147  1
  V  V7  1  0.37342700  0.37553520  0.50224346  1
  V  V8  1  0.24940085  0.37154042  0.12330605  1
  V  V9  1  0.74770130  0.25341271  0.00563264  1
  V  V10  1  0.63063415  0.50126962  0.63115823  1
  V  V11  1  0.13051005  0.62918945  0.00024129  1
  V  V12  1  0.25152641  0.62745037  0.87037607  1
  V  V13  1  0.12240443  0.24957655  0.37594518  1
  V  V14  1  0.62396598  0.63044553  -0.00184968  1
  V  V15  1  0.63314211  0.25033408  0.37895067  1
  V  V16  1  0.25109834  -0.01110220  0.24829338  1
  V  V17  1  0.62854275  0.37505353  0.24199761  1
  V  V18  1  0.87020077  0.49500404  0.87115225  1
  V  V19  1  0.11718396  0.37562220  0.75241357  1
  V  V20  1  0.74890662  0.75222633  0.50094378  1
  V  V21  1  0.37024829  0.37247725  0.00027086  1
  V  V22  1  0.88335768  0.87377067  0.49626848  1
  V  V23  1  0.10652690  0.75728757  0.37596535  1
  V  V24  1  0.87003295  0.37894530  0.49599669  1
  V  V25  1  0.75262831  0.87181917  0.12441958  1
  V  V26  1  -0.00492908  0.37970569  0.37427639  1
  V  V27  1  0.88416986  0.12499371  0.24516284  1
  V  V28  1  -0.00065352  0.62437798  0.62764949  1
  V  V29  1  0.62547375  0.00243375  0.64272044  1
  V  V30  1  0.49952933  0.37442478  0.87568915  1
  V  V31  1  0.75552095  0.61722289  0.37595543  1
  V  V32  1  0.49658262  0.24594295  0.24958892  1
  V  V33  1  0.10680925  0.86820245  0.24341296  1
  V  V34  1  0.62850334  0.87345663  0.25128912  1
  V  V35  1  0.37889148  0.62492738  0.24250128  1
  V  V36  1  0.13030402  0.75636694  0.87811776  1
  V  V37  1  0.35988880  0.75760282  0.12684920  1
  V  V38  1  0.12790904  0.62827109  0.50014417  1
  V  V39  1  0.00099047  0.63400078  0.12646588  1
  V  V40  1  0.25419700  0.25000510  0.50182054  1
  V  V41  1  0.49830250  0.87367016  0.37780832  1
  V  V42  1  0.50531330  0.86537617  0.87534681  1
  V  V43  1  0.36759743  0.74520234  0.61552693  1
  V  V44  1  0.00202718  0.87954577  0.87252807  1
  V  V45  1  0.62478827  0.24949994  0.87571903  1
  V  V46  1  0.75237584  0.74949342  -0.00752062  1
  V  V47  1  0.49006129  0.13102993  0.62298412  1
  V  V48  1  0.00530762  0.12116283  0.62446425  1
  V  V49  1  0.24790400  0.63100884  0.37606611  1
  V  V50  1  0.25482751  0.12733057  0.36510769  1
  V  V51  1  0.25941280  0.12900820  0.85663300  1
  V  V52  1  0.12308969  0.37420882  0.24967831  1
  V  V53  1  0.48772597  0.24940977  0.74654591  1
  V  V54  1  0.88050354  0.24731063  0.12129792  1
  V  V55  1  0.86723668  0.00031067  0.87126634  1
  V  V56  1  0.12125180  0.25206058  0.87920655  1
  V  V57  1  0.49490981  0.12191840  0.12624500  1
  V  V58  1  0.12574781  0.50137304  0.62608331  1
  V  V59  1  0.38023345  0.00717650  0.36865362  1
  V  V60  1  0.00055274  0.49599536  -0.00657736  1
  V  V61  1  0.87304527  0.75258937  0.62858926  1
  V  V62  1  0.13501075  0.12931881  0.00215301  1
  V  V63  1  0.37403077  0.50209769  0.37539686  1
  V  V64  1  0.50049420  0.73763758  0.75388793  1
  V  V65  1  0.86854326  0.62304282  0.75291387  1
  V  V66  1  0.86653368  0.12223944  0.74754098  1
  V  V67  1  0.37004341  0.24702112  0.12460405  1
  V  V68  1  0.75144801  0.00285363  0.25141681  1
  V  V69  1  0.88473288  -0.00197162  0.37510538  1
  V  V70  1  0.88069734  0.63121077  0.25267832  1
  V  V71  1  0.49998164  0.37521632  0.37367697  1
  V  V72  1  -0.00099638  0.00812080  -0.00073592  1
  V  V73  1  0.25344033  0.37332709  0.62737194  1
  V  V74  1  0.37540711  0.50440771  0.86919690  1
  V  V75  1  0.87246338  0.24854531  0.61957399  1
  V  V76  1  0.76039561  0.49666216  0.24663710  1
  V  V77  1  0.50168079  0.50096571  0.50114763  1
  V  V78  1  0.63262221  0.37593152  0.75342881  1
  V  V79  1  0.25010225  0.49818692  0.25020213  1
  V  V80  1  0.49002123  -0.00467627  -0.00399050  1
  V  V81  1  0.62818068  0.50575587  0.12612385  1
  V  V82  1  0.62516193  0.74890524  0.37681015  1
  V  V83  1  0.87414414  0.37449194  0.00027922  1
  V  V84  1  0.62557774  0.62474064  0.50235939  1
  Zn  Zn85  1  0.63517962  0.13052220  0.50603217  1
  Zn  Zn86  1  0.33529641  -0.03474372  0.83927781  1
  Zn  Zn87  1  0.63283985  0.86786789  0.76328621  1
  Zn  Zn88  1  0.15418632  -0.02205003  0.62165087  1
  Zn  Zn89  1  0.88090767  0.75298291  0.12628057  1
  Zn  Zn90  1  0.15325729  0.88815037  0.75122821  1
  Zn  Zn91  1  0.00147156  0.24808491  0.24438977  1
  Zn  Zn92  1  0.00433403  -0.00448497  0.50081900  1
  Zn  Zn93  1  0.74792122  0.62488404  0.87224502  1
  Zn  Zn94  1  0.87915676  0.87454290  0.00010942  1
  Zn  Zn95  1  0.75217642  0.88672514  0.63100181  1
  Zn  Zn96  1  -0.00423002  0.50138499  0.49676174  1
  Zn  Zn97  1  0.49490430  0.61998042  0.63340501  1
  Zn  Zn98  1  0.25341009  0.50225348  0.74830513  1
  Zn  Zn99  1  0.62366976  -0.00021454  0.12559641  1
  Zn  Zn100  1  0.74564095  0.12078540  0.87154391  1
  Zn  Zn101  1  0.75615317  0.13053580  0.37873392  1
  Zn  Zn102  1  0.12538387  0.11971855  0.49923327  1
  Zn  Zn103  1  0.32909929  0.89390483  0.52944283  1
  Zn  Zn104  1  0.00446317  0.75417853  0.75194032  1
  Zn  Zn105  1  -0.00416716  0.25265026  0.75223923  1
  Zn  Zn106  1  0.36267915  0.87198930  0.00164932  1
  Zn  Zn107  1  0.18586998  0.18410953  0.18742396  1
  Zn  Zn108  1  0.18616722  0.19103506  0.68841146  1
  Zn  Zn109  1  0.18360317  0.68489896  0.19614159  1
  Zn  Zn110  1  0.18884524  0.69392324  0.69180235  1
  Zn  Zn111  1  0.68903414  0.18648781  0.18546416  1
  Zn  Zn112  1  0.68341689  0.18767098  0.68794883  1
  Zn  Zn113  1  0.69081348  0.68611766  0.18508271  1
  Zn  Zn114  1  0.68633044  0.69157258  0.69006283  1
  Zn  Zn115  1  0.31353094  0.31227731  0.31197470  1
  Zn  Zn116  1  0.30515166  0.31246900  0.81586468  1
  Zn  Zn117  1  0.29394452  0.82928744  0.34950908  1
  Zn  Zn118  1  0.32272157  0.79807323  0.81653884  1
  Zn  Zn119  1  0.81466437  0.31489547  0.30652832  1
  Zn  Zn120  1  0.81224577  0.30965020  0.81442343  1
  Zn  Zn121  1  0.81554433  0.81097883  0.31461761  1
  Zn  Zn122  1  0.81348240  0.81614079  0.81085188  1
  Zn  Zn123  1  0.18415425  0.43993769  0.43924148  1
  Zn  Zn124  1  0.18901484  0.43683677  0.93586864  1
  Zn  Zn125  1  0.18058850  0.93915273  0.43685724  1
  Zn  Zn126  1  0.18666246  0.94464680  0.93621627  1
  Zn  Zn127  1  0.68838499  0.43564612  0.43632411  1
  Zn  Zn128  1  0.69075093  0.43830581  0.94031657  1
  Zn  Zn129  1  0.69342631  0.93808977  0.43904754  1
  Zn  Zn130  1  0.68443611  0.93756877  0.94051594  1
  Zn  Zn131  1  0.30805657  0.06056399  0.06361168  1
  Zn  Zn132  1  0.31658466  0.06795260  0.55285594  1
  Zn  Zn133  1  0.31202720  0.56214676  0.06200803  1
  Zn  Zn134  1  0.31205542  0.56692956  0.56508711  1
  Zn  Zn135  1  0.81119758  0.06339831  0.06224781  1
  Zn  Zn136  1  0.80818810  0.06451509  0.55828845  1
  Zn  Zn137  1  0.81299025  0.56301399  0.06388583  1
  Zn  Zn138  1  0.81099729  0.55904550  0.56543240  1
  Zn  Zn139  1  0.43952613  0.43616885  0.18711804  1
  Zn  Zn140  1  0.44097787  0.43446981  0.68802173  1
  Zn  Zn141  1  0.43836928  0.93582281  0.19076513  1
  Zn  Zn142  1  0.33788334  0.93401722  0.68604124  1
  Zn  Zn143  1  0.93793527  0.43606587  0.18081762  1
  Zn  Zn144  1  0.93568439  0.43906123  0.68634876  1
  Zn  Zn145  1  0.93782013  0.94222860  0.18145775  1
  Zn  Zn146  1  0.94061364  0.93899035  0.68994466  1
  Zn  Zn147  1  0.06360757  0.06324328  0.31227438  1
  Zn  Zn148  1  0.06658604  0.06132392  0.80422728  1
  Zn  Zn149  1  0.06114065  0.56080800  0.31279865  1
  Zn  Zn150  1  0.06069877  0.56428042  0.81296548  1
  Zn  Zn151  1  0.56597174  0.06528292  0.30993702  1
  Zn  Zn152  1  0.50019050  0.03038318  0.78168040  1
  Zn  Zn153  1  0.56476573  0.56277113  0.31284300  1
  Zn  Zn154  1  0.56505932  0.55946895  0.81826648  1
  Zn  Zn155  1  0.43929353  0.18758095  0.43826686  1
  Zn  Zn156  1  0.43721657  0.18786545  0.93899126  1
  Zn  Zn157  1  0.43852850  0.68685269  0.43648923  1
  Zn  Zn158  1  0.43748929  0.68664890  0.94348989  1
  Zn  Zn159  1  0.93523575  0.18883883  0.43881290  1
  Zn  Zn160  1  0.94017425  0.18511807  0.93431064  1
  Zn  Zn161  1  0.93589836  0.68406706  0.44083952  1
  Zn  Zn162  1  0.94071778  0.68924002  0.93945259  1
  Zn  Zn163  1  0.05929559  0.31283216  0.05817472  1
  Zn  Zn164  1  0.06074111  0.31114865  0.56214834  1
  Zn  Zn165  1  0.18451691  0.81518185  0.06261013  1
  Zn  Zn166  1  0.06783916  0.81236727  0.56616101  1
  Zn  Zn167  1  0.55985126  0.31422026  0.06391499  1
  Zn  Zn168  1  0.56150424  0.31407212  0.56280397  1
  Zn  Zn169  1  0.56484821  0.81308308  0.06279124  1
  Zn  Zn170  1  0.55242139  0.81669572  0.57126251  1
  O  O171  1  0.12390180  0.11922515  0.11646169  1
  O  O172  1  0.10960870  0.13433732  0.62166721  1
  O  O173  1  0.12138344  0.61847805  0.12009231  1
  O  O174  1  0.11916146  0.62600355  0.61924861  1
  O  O175  1  0.61272178  0.12816694  0.11510316  1
  O  O176  1  0.61856078  0.11718180  0.62411586  1
  O  O177  1  0.62716602  0.61256618  0.11861706  1
  O  O178  1  0.62563241  0.61503573  0.62049756  1
  O  O179  1  0.37977212  0.38330791  0.37942920  1
  O  O180  1  0.37693706  0.38084549  0.88484485  1
  O  O181  1  0.39480449  0.88445065  0.36222696  1
  O  O182  1  0.39013460  0.86933688  0.88668414  1
  O  O183  1  0.88226727  0.36715755  0.38344297  1
  O  O184  1  0.87257906  0.38130282  0.88550971  1
  O  O185  1  0.87128053  0.88321679  0.38348029  1
  O  O186  1  0.88161727  0.88445095  0.87799055  1
  O  O187  1  0.25927648  0.01056331  0.36838638  1
  O  O188  1  0.24609147  0.02454589  0.87914075  1
  O  O189  1  0.25271228  0.50797031  0.36975031  1
  O  O190  1  0.25971672  0.50535706  0.87463425  1
  O  O191  1  0.75993792  -0.00126398  0.36167918  1
  O  O192  1  0.76294593  0.00147617  0.88381951  1
  O  O193  1  0.74270651  0.51084464  0.36501890  1
  O  O194  1  0.76605544  0.50409393  0.88213144  1
  O  O195  1  0.24354796  0.49267776  0.13047161  1
  O  O196  1  0.24288741  0.49341870  0.62654366  1
  O  O197  1  0.23687661  1.00742346  0.13781533  1
  O  O198  1  0.27107064  0.97784832  0.60015908  1
  O  O199  1  0.74079756  0.50197238  0.13412973  1
  O  O200  1  0.73763743  0.48850442  0.62366774  1
  O  O201  1  0.75007906  0.99281940  0.13598549  1
  O  O202  1  0.72953496  1.00430199  0.62321099  1
  O  O203  1  0.00396412  0.37233524  0.25532897  1
  O  O204  1  0.01341899  0.37456153  0.74292348  1
  O  O205  1  0.00869581  0.87714316  0.24625335  1
  O  O206  1  -0.00447831  0.87334986  0.76499618  1
  O  O207  1  0.50821727  0.36947356  0.25485263  1
  O  O208  1  0.51133579  0.36889916  0.75562263  1
  O  O209  1  0.51125765  0.86683850  0.25479723  1
  O  O210  1  0.50806647  0.86424233  0.77076978  1
  O  O211  1  0.50508967  0.13536899  0.23953491  1
  O  O212  1  0.50253151  0.13670553  0.73213673  1
  O  O213  1  0.48984880  0.63313207  0.25924321  1
  O  O214  1  0.50366881  0.63320289  0.75589405  1
  O  O215  1  0.98847821  0.12795279  0.25166108  1
  O  O216  1  0.98818414  0.12918880  0.73723325  1
  O  O217  1  0.99017153  0.61317694  0.24079440  1
  O  O218  1  0.99199611  0.62885042  0.74243135  1
  O  O219  1  0.38282277  0.26200639  0.01191956  1
  O  O220  1  0.36245366  0.26015530  0.49037161  1
  O  O221  1  0.38030495  0.74588983  0.02579606  1
  O  O222  1  0.37973292  0.74429872  0.51273449  1
  O  O223  1  0.86938685  0.25351035  0.00196274  1
  O  O224  1  0.87717743  0.26132680  0.51259169  1
  O  O225  1  0.86821203  0.75209386  0.00563001  1
  O  O226  1  0.86911779  0.75470058  0.50582296  1
  O  O227  1  0.13502376  0.25357607  0.48755096  1
  O  O228  1  0.12099639  0.24550854  0.98848786  1
  O  O229  1  0.11759176  0.74263787  0.48424278  1
  O  O230  1  0.12658215  0.74059857  0.99157234  1
  O  O231  1  0.61997088  0.25611235  0.48100468  1
  O  O232  1  0.62976193  0.24756747  0.99781262  1
  O  O233  1  0.62949278  0.74506085  0.49859668  1
  O  O234  1  0.63476669  0.73830519  1.01047670  1
  O  O235  1  0.49201269  0.24473800  0.13113774  1
  O  O236  1  0.50623622  0.24067426  0.63050552  1
  O  O237  1  0.49788472  0.75129019  0.13848776  1
  O  O238  1  0.49767969  0.74117323  0.63680153  1
  O  O239  1  0.98564061  0.25231509  0.12349072  1
  O  O240  1  0.99013467  0.24220308  0.62628462  1
  O  O241  1  1.00114570  0.73301464  0.12311496  1
  O  O242  1  0.98818267  0.73822647  0.62384804  1
  O  O243  1  0.00826257  0.25857881  0.37385092  1
  O  O244  1  0.01515435  0.24748267  0.87084722  1
  O  O245  1  0.00933854  0.74032211  0.37003415  1
  O  O246  1  0.00955886  0.76200867  0.87933776  1
  O  O247  1  0.50626964  0.25608705  0.36572279  1
  O  O248  1  0.50623292  0.25593588  0.87017056  1
  O  O249  1  0.50526826  0.75734417  0.36813336  1
  O  O250  1  0.49588533  0.75295486  0.86915905  1
  O  O251  1  0.24819937  0.13576050  0.48763422  1
  O  O252  1  0.23734282  0.12731616  0.99961669  1
  O  O253  1  0.23611717  0.61994874  0.49137517  1
  O  O254  1  0.23550892  0.61460795  0.99373610  1
  O  O255  1  0.74697369  0.12854588  0.49130575  1
  O  O256  1  0.73928821  0.13201745  1.00005745  1
  O  O257  1  0.74685021  0.62755641  0.49286450  1
  O  O258  1  0.74405398  0.63352905  1.00254410  1
  O  O259  1  0.26197181  0.37943089  0.00732783  1
  O  O260  1  0.25313680  0.37081714  0.50581575  1
  O  O261  1  0.24962058  0.88085561  0.00163082  1
  O  O262  1  0.25757856  0.86210628  0.45327135  1
  O  O263  1  0.75778326  0.36448478  -0.00184045  1
  O  O264  1  0.75614175  0.37657916  0.50835086  1
  O  O265  1  0.75045902  0.86782326  0.00897300  1
  O  O266  1  0.75867581  0.86726682  0.50606291  1
  O  O267  1  0.12977873  0.49304204  0.24342144  1
  O  O268  1  0.12584212  0.49384552  0.74495070  1
  O  O269  1  0.12635096  0.99150975  0.24552038  1
  O  O270  1  0.12389022  1.00014840  0.73178551  1
  O  O271  1  0.63078860  0.49524858  0.24320559  1
  O  O272  1  0.62001321  0.48989044  0.74261512  1
  O  O273  1  0.63517360  0.99458230  0.24865996  1
  O  O274  1  0.61214973  1.00049508  0.74286655  1
  O  O275  1  0.36674992  -0.00217803  0.25821940  1
  O  O276  1  0.39576960  0.00368816  0.75242354  1
  O  O277  1  0.37248723  0.50604175  0.25488851  1
  O  O278  1  0.37770587  0.49339743  0.76598086  1
  O  O279  1  0.87145116  0.00673530  0.25404902  1
  O  O280  1  0.87644252  0.00994050  0.75846818  1
  O  O281  1  0.86420897  0.50442944  0.24317216  1
  O  O282  1  0.88090052  0.50735114  0.76029152  1
  O  O283  1  0.11963754  0.36873829  0.36946417  1
  O  O284  1  0.13189814  0.36297953  0.86769405  1
  O  O285  1  0.11570107  0.86213641  0.36431513  1
  O  O286  1  0.12027155  0.87080428  0.87181500  1
  O  O287  1  0.62027491  0.36805779  0.36395155  1
  O  O288  1  0.62133121  0.37245673  0.87000726  1
  O  O289  1  0.62143051  0.86816571  0.36933658  1
  O  O290  1  0.61110866  0.87005251  0.88459815  1
  O  O291  1  0.38561460  0.13350835  0.11891548  1
  O  O292  1  0.39137790  0.13042128  0.61331893  1
  O  O293  1  0.36863989  0.63029839  0.13804687  1
  O  O294  1  0.38026421  0.63344463  0.62467210  1
  O  O295  1  0.87081292  0.13341552  0.13281361  1
  O  O296  1  0.87784908  0.13275536  0.62834461  1
  O  O297  1  0.88444448  0.62388340  0.13330211  1
  O  O298  1  0.88112516  0.62760464  0.63110529  1
  O  O299  1  0.26366117  0.25310441  0.13376781  1
  O  O300  1  0.24397188  0.25940906  0.61232852  1
  O  O301  1  0.25587979  0.74827451  0.13117245  1
  O  O302  1  0.26760540  0.74537944  0.63029619  1
  O  O303  1  0.75861631  0.24671923  0.11263949  1
  O  O304  1  0.75397153  0.26201053  0.62813408  1
  O  O305  1  0.75423220  0.75815875  0.11965305  1
  O  O306  1  0.76267294  0.74400482  0.61682370  1
  O  O307  1  0.24373747  0.24588630  0.37726545  1
  O  O308  1  0.23565327  0.24086036  0.87231777  1
  O  O309  1  0.23266764  0.73177983  0.36174053  1
  O  O310  1  0.24509081  0.73837652  0.87916233  1
  O  O311  1  0.73505364  0.25397970  0.36521659  1
  O  O312  1  0.74178690  0.24722082  0.88629642  1
  O  O313  1  0.74559795  0.73991042  0.38214046  1
  O  O314  1  0.75594682  0.74805941  0.88935081  1
  O  O315  1  0.01198945  0.11447407  -0.00891165  1
  O  O316  1  -0.00010691  0.12599457  0.51199442  1
  O  O317  1  0.01092085  0.61771687  0.00651029  1
  O  O318  1  0.00795350  0.62171290  0.50772929  1
  O  O319  1  0.50386698  0.11653690  0.00510443  1
  O  O320  1  0.50855693  0.12385115  0.50588768  1
  O  O321  1  0.50918322  0.61413088  -0.00031444  1
  O  O322  1  0.50873963  0.61367668  0.49693982  1
  O  O323  1  0.49424476  0.38214621  0.49535849  1
  O  O324  1  0.49238792  0.38235673  0.99522687  1
  O  O325  1  0.50780362  0.88531924  0.48745767  1
  O  O326  1  0.49865337  0.88077211  0.99918998  1
  O  O327  1  0.99189699  0.37590219  0.49230628  1
  O  O328  1  0.99139350  0.38583086  1.00036413  1
  O  O329  1  0.98684119  0.87315777  0.50475459  1
  O  O330  1  0.99956199  0.89589197  0.98408312  1
  O  O331  1  0.49651674  0.49353836  0.38015992  1
  O  O332  1  0.49357216  0.49344178  0.88651633  1
  O  O333  1  0.49754755  0.99663368  0.37373156  1
  O  O334  1  0.50297200  0.98331676  0.88797982  1
  O  O335  1  1.00443110  0.48382584  0.37666107  1
  O  O336  1  0.99044350  0.50671860  0.88741349  1
  O  O337  1  0.98850834  1.00343319  0.37802580  1
  O  O338  1  0.99225912  0.99941825  0.87713743  1
  O  O339  1  0.01212070  -0.00102522  0.11502793  1
  O  O340  1  -0.01081970  0.01751526  0.62040051  1
  O  O341  1  0.00664211  0.50469918  0.11353466  1
  O  O342  1  0.00528260  0.51190113  0.62430783  1
  O  O343  1  0.50137245  0.00769602  0.12275641  1
  O  O344  1  0.51152591  0.01589045  0.61172455  1
  O  O345  1  0.50795102  0.49558029  0.11555953  1
  O  O346  1  0.51099250  0.49895298  0.61910288  1
  O  O347  1  0.24459556  0.37992279  0.24459865  1
  O  O348  1  0.24044428  0.37684653  0.74128612  1
  O  O349  1  0.23836798  0.88724992  0.26069753  1
  O  O350  1  0.26893373  0.88614023  0.76944577  1
  O  O351  1  0.74146895  0.38576034  0.25282372  1
  O  O352  1  0.73832095  0.37111215  0.74476297  1
  O  O353  1  0.74772258  0.87964750  0.24477971  1
  O  O354  1  0.74292104  0.86639643  0.74236714  1
  O  O355  1  0.24382384  0.11601256  0.26143587  1
  O  O356  1  0.25352987  0.13080968  0.75674129  1
  O  O357  1  0.25606512  0.61541765  0.25631987  1
  O  O358  1  0.24511058  0.62006725  0.76614316  1
  O  O359  1  0.75801233  0.11721102  0.25191092  1
  O  O360  1  0.76177492  0.13188166  0.75190671  1
  O  O361  1  0.75740931  0.61754681  0.25687765  1
  O  O362  1  0.76387424  0.62929969  0.75113880  1
  O  O363  1  0.36900022  0.11967149  0.37401754  1
  O  O364  1  0.35859844  0.13618188  0.87726247  1
  O  O365  1  0.36546700  0.62148243  0.36786019  1
  O  O366  1  0.36478863  0.61488211  0.88741464  1
  O  O367  1  0.87465034  0.11899559  0.36566902  1
  O  O368  1  0.87312579  0.11922791  0.86491348  1
  O  O369  1  0.86672366  0.62447971  0.36850217  1
  O  O370  1  0.87635770  0.61837755  0.86775188  1
  O  O371  1  0.12980173  0.37651615  0.12887620  1
  O  O372  1  0.13260250  0.37987416  0.62981344  1
  O  O373  1  0.12602733  0.88204564  0.13943948  1
  O  O374  1  0.12644354  0.86585066  0.64025541  1
  O  O375  1  0.62026035  0.38393902  0.13620252  1
  O  O376  1  0.63080828  0.37882917  0.63189422  1
  O  O377  1  0.63710074  0.87603507  0.13292110  1
  O  O378  1  0.61971299  0.89658037  0.62324554  1
  O  O379  1  0.12420791  0.25529992  0.25964269  1
  O  O380  1  0.12131901  0.25834219  0.75890624  1
  O  O381  1  0.12165479  0.76140804  0.25651127  1
  O  O382  1  0.12320536  0.74855422  0.76866860  1
  O  O383  1  0.61763198  0.25835507  0.25153805  1
  O  O384  1  0.61863000  0.25741193  0.75856540  1
  O  O385  1  0.61995163  0.75042560  0.25583342  1
  O  O386  1  0.60833473  0.75120442  0.74598576  1
  O  O387  1  0.38916770  0.25753991  0.24222594  1
  O  O388  1  0.38944236  0.26424163  0.75327401  1
  O  O389  1  0.38211532  0.74168452  0.24069787  1
  O  O390  1  0.39460622  0.74988467  0.74055205  1
  O  O391  1  0.87426626  0.24298070  0.23876690  1
  O  O392  1  0.87608103  0.24654097  0.73893620  1
  O  O393  1  0.87098981  0.73503584  0.24744412  1
  O  O394  1  0.87998705  0.74252476  0.74254481  1
  O  O395  1  0.38102260  0.49667434  0.49395072  1
  O  O396  1  0.38331129  0.49308674  0.99817018  1
  O  O397  1  0.39124200  1.00028112  0.48203780  1
  O  O398  1  0.38651575  0.99726304  1.00881229  1
  O  O399  1  0.87678213  0.48469237  0.50570618  1
  O  O400  1  0.88103437  0.49278260  0.99690093  1
  O  O401  1  0.87379203  0.99080503  0.49091176  1
  O  O402  1  0.88313207  1.00388920  0.99305547  1
  O  O403  1  0.11977793  0.01047386  0.00848387  1
  O  O404  1  0.12149600  0.00197996  0.50761953  1
  O  O405  1  0.11761277  0.50326509  0.00251688  1
  O  O406  1  0.12093795  0.50948486  0.50808131  1
  O  O407  1  0.61657431  0.00883756  0.00542112  1
  O  O408  1  0.61538113  0.00622557  0.49000649  1
  O  O409  1  0.61961969  0.50217578  0.00959968  1
  O  O410  1  0.62034090  0.50237328  0.50708163  1
  O  O411  1  0.37086003  0.36858166  0.11969342  1
  O  O412  1  0.36159256  0.38200018  0.61969473  1
  O  O413  1  0.37462948  0.85954910  0.13024066  1
  O  O414  1  0.38895997  0.85457308  0.61722232  1
  O  O415  1  0.87564722  0.36659244  0.10987683  1
  O  O416  1  0.86654934  0.37002940  0.62097561  1
  O  O417  1  0.86477369  0.87492593  0.12330733  1
  O  O418  1  0.87448365  0.86647773  0.62024402  1
  O  O419  1  0.13127673  0.13413982  0.37688179  1
  O  O420  1  0.13101840  0.13642048  0.87849609  1
  O  O421  1  0.12720359  0.62906676  0.38100841  1
  O  O422  1  0.12998101  0.63076424  0.88353662  1
  O  O423  1  0.62556994  0.14435486  0.36943756  1
  O  O424  1  0.62363181  0.13322433  0.89016037  1
  O  O425  1  0.63333916  0.63034447  0.38122949  1
  O  O426  1  0.63150689  0.61497360  0.89312832  1
