# generated using pymatgen
data_V85Zn86O256
_symmetry_space_group_name_H-M   'P 1'
_cell_length_a   16.94205845
_cell_length_b   16.92494796
_cell_length_c   16.94569757
_cell_angle_alpha   89.98810272
_cell_angle_beta   90.08033500
_cell_angle_gamma   89.97155405
_symmetry_Int_Tables_number   1
_chemical_formula_structural   V85Zn86O256
_chemical_formula_sum   'V85 Zn86 O256'
_cell_volume   4859.06243046
_cell_formula_units_Z   1
loop_
 _symmetry_equiv_pos_site_id
 _symmetry_equiv_pos_as_xyz
  1  'x, y, z'
loop_
 _atom_site_type_symbol
 _atom_site_label
 _atom_site_symmetry_multiplicity
 _atom_site_fract_x
 _atom_site_fract_y
 _atom_site_fract_z
 _atom_site_occupancy
  V  V0  1  0.62506693  0.87704616  0.24829071  1
  V  V1  1  -0.00017890  0.87506294  0.37528445  1
  V  V2  1  0.49945406  0.25017642  0.75010572  1
  V  V3  1  0.74410704  0.61871389  0.36394318  1
  V  V4  1  0.75134282  0.36545559  0.62438782  1
  V  V5  1  0.37918442  0.88718214  0.50563318  1
  V  V6  1  0.87512503  0.87321921  0.50096520  1
  V  V7  1  0.37925310  0.25373567  0.62302019  1
  V  V8  1  0.25476171  0.00092673  0.25280600  1
  V  V9  1  0.00200433  0.25368475  0.24784740  1
  V  V10  1  0.61912087  0.00036854  0.12060506  1
  V  V11  1  0.12540032  0.87451818  0.25203984  1
  V  V12  1  0.37308018  0.74991041  0.12670829  1
  V  V13  1  0.12699067  0.74451984  0.87443059  1
  V  V14  1  -0.00084808  0.12505013  0.12428186  1
  V  V15  1  0.50029114  0.12103831  0.61892169  1
  V  V16  1  0.62303137  0.25232746  0.87244113  1
  V  V17  1  0.62532163  0.49947337  0.13698521  1
  V  V18  1  0.12713950  0.49597400  0.14097935  1
  V  V19  1  0.87580314  -0.00125517  0.87528062  1
  V  V20  1  0.62368166  0.37961818  0.74754612  1
  V  V21  1  0.49430082  0.14060133  0.12371343  1
  V  V22  1  0.25379723  0.00199960  0.75507026  1
  V  V23  1  0.87194916  0.12340447  0.25189735  1
  V  V24  1  0.62343658  0.62364171  -0.00153218  1
  V  V25  1  -0.00264704  0.74228470  0.25189271  1
  V  V26  1  0.49375143  0.38423617  0.87436686  1
  V  V27  1  0.12438856  -0.00053336  0.12573420  1
  V  V28  1  0.25362472  0.25516451  0.00219809  1
  V  V29  1  0.87950192  0.12648632  0.74516733  1
  V  V30  1  0.88323852  0.49792709  0.87559020  1
  V  V31  1  0.50027641  0.89115409  0.37564532  1
  V  V32  1  0.62941670  0.12402575  0.49705390  1
  V  V33  1  0.12332978  0.87121690  0.74812884  1
  V  V34  1  0.11608495  0.26550705  0.87520512  1
  V  V35  1  0.37253054  0.61273187  0.25043405  1
  V  V36  1  0.12336648  0.62061809  0.00253318  1
  V  V37  1  0.12468988  0.12639450  -0.00199866  1
  V  V38  1  0.87890759  0.37469983  -0.00285420  1
  V  V39  1  0.22415678  0.27506155  0.53389077  1
  V  V40  1  0.24998021  0.87425857  0.12578684  1
  V  V41  1  0.49993202  0.74877442  0.25096566  1
  V  V42  1  0.74890133  0.12522674  0.87412748  1
  V  V43  1  0.39645779  0.37926819  0.50379827  1
  V  V44  1  0.25164889  0.61519116  0.37747404  1
  V  V45  1  0.74899875  -0.00098857  0.75130163  1
  V  V46  1  0.25270747  0.37642706  0.14053539  1
  V  V47  1  -0.00021749  -0.00133345  0.00044923  1
  V  V48  1  0.62060130  0.12542645  -0.00317280  1
  V  V49  1  0.00418313  0.37745238  0.37365304  1
  V  V50  1  0.12831850  0.25453267  0.36814236  1
  V  V51  1  0.74648468  0.62557488  0.87365638  1
  V  V52  1  0.12911890  0.74583356  0.38141551  1
  V  V53  1  0.62411053  0.86284718  0.75383250  1
  V  V54  1  0.37420642  0.14347090  0.24370436  1
  V  V55  1  0.37626634  0.62444441  0.75929458  1
  V  V56  1  0.74999636  0.50185735  0.74418015  1
  V  V57  1  0.87823915  0.37311311  0.50414689  1
  V  V58  1  0.74647981  0.74957491  -0.00290241  1
  V  V59  1  -0.00086348  0.51458383  0.50973696  1
  V  V60  1  0.75769037  0.24328352  0.48923662  1
  V  V61  1  0.25258199  0.12642634  0.87365990  1
  V  V62  1  0.62452283  0.74886722  0.38342177  1
  V  V63  1  0.12535675  0.12524028  0.49820164  1
  V  V64  1  -0.00417526  0.26494740  0.74885749  1
  V  V65  1  0.00092692  0.86769600  0.87309786  1
  V  V66  1  0.74775601  0.25479350  -0.00094088  1
  V  V67  1  0.87416097  0.87271812  0.00119530  1
  V  V68  1  0.12484642  0.00292587  0.62632361  1
  V  V69  1  0.51214531  0.37169391  0.35087074  1
  V  V70  1  0.88233185  0.62927377  0.74823841  1
  V  V71  1  0.87361195  0.74149569  0.12876463  1
  V  V72  1  0.37254998  0.88161204  -0.00449750  1
  V  V73  1  0.26069740  0.74723812  0.50429784  1
  V  V74  1  0.49899794  0.87333686  0.87502743  1
  V  V75  1  0.87980443  0.74430624  0.62767941  1
  V  V76  1  0.49853513  0.62638883  0.61008787  1
  V  V77  1  0.86798397  0.00215811  0.37516295  1
  V  V78  1  0.62169527  -0.00368687  0.62206283  1
  V  V79  1  0.37074014  0.38612296  -0.00094587  1
  V  V80  1  0.74818573  0.37935478  0.13803706  1
  V  V81  1  0.24507262  0.48528260  0.74518472  1
  V  V82  1  0.74923646  0.87146137  0.62577137  1
  V  V83  1  0.87654260  0.50664579  0.35819246  1
  V  V84  1  0.25150008  0.13110474  0.37672297  1
  Zn  Zn85  1  -0.00017193  0.00195504  0.50029710  1
  Zn  Zn86  1  0.37607146  0.12352486  0.75188746  1
  Zn  Zn87  1  0.74573980  0.00472242  0.24960184  1
  Zn  Zn88  1  0.38252458  0.01030806  0.37661113  1
  Zn  Zn89  1  -0.00341821  0.61756327  0.12901385  1
  Zn  Zn90  1  0.49874691  0.62240326  0.12381582  1
  Zn  Zn91  1  -0.00138382  0.12952560  0.62566931  1
  Zn  Zn92  1  0.49643928  0.50511810  -0.00275956  1
  Zn  Zn93  1  0.04513739  0.68945717  0.69136406  1
  Zn  Zn94  1  0.24990020  0.74680452  0.00070737  1
  Zn  Zn95  1  0.60718416  0.49906625  0.59296885  1
  Zn  Zn96  1  0.25548671  0.61370288  0.87831891  1
  Zn  Zn97  1  0.12938611  0.52998586  0.62143490  1
  Zn  Zn98  1  0.62832174  0.25006948  0.36115513  1
  Zn  Zn99  1  0.49206570  0.00628670  -0.01023217  1
  Zn  Zn100  1  0.74804692  0.74411475  0.50017410  1
  Zn  Zn101  1  0.38822511  0.50041360  0.38231301  1
  Zn  Zn102  1  0.74862581  0.87643075  0.12367216  1
  Zn  Zn103  1  0.00491982  0.49257660  -0.00010381  1
  Zn  Zn104  1  0.87331137  0.24951920  0.12468529  1
  Zn  Zn105  1  0.25547637  0.87676395  0.62676637  1
  Zn  Zn106  1  0.49183421  0.74810207  0.74670892  1
  Zn  Zn107  1  0.18858407  0.19006837  0.18564516  1
  Zn  Zn108  1  0.17962853  0.20134162  0.68796427  1
  Zn  Zn109  1  0.18762744  0.68363390  0.19259006  1
  Zn  Zn110  1  0.20824961  0.68537212  0.68386812  1
  Zn  Zn111  1  0.68710434  0.19030997  0.18364324  1
  Zn  Zn112  1  0.68767542  0.18661460  0.68577869  1
  Zn  Zn113  1  0.68777605  0.68650000  0.18768752  1
  Zn  Zn114  1  0.68483254  0.68233266  0.67961109  1
  Zn  Zn115  1  0.31704652  0.31803709  0.32322462  1
  Zn  Zn116  1  0.31251548  0.31246992  0.81377027  1
  Zn  Zn117  1  0.31567145  0.81322804  0.31697429  1
  Zn  Zn118  1  0.31167357  0.80855717  0.81310747  1
  Zn  Zn119  1  0.81994012  0.31105113  0.31547921  1
  Zn  Zn120  1  0.81390903  0.31381266  0.81243789  1
  Zn  Zn121  1  0.80912836  0.81164089  0.31127449  1
  Zn  Zn122  1  0.81095003  0.80973780  0.81327362  1
  Zn  Zn123  1  0.18252760  0.44051415  0.44376136  1
  Zn  Zn124  1  0.18967821  0.44202393  0.93698066  1
  Zn  Zn125  1  0.19175620  0.93778177  0.43761437  1
  Zn  Zn126  1  0.18846946  0.93688212  0.93670629  1
  Zn  Zn127  1  0.68901162  0.43050147  0.42611778  1
  Zn  Zn128  1  0.68862576  0.44055143  0.93612282  1
  Zn  Zn129  1  0.68833491  0.93690280  0.43791438  1
  Zn  Zn130  1  0.68316610  0.93606796  0.93647628  1
  Zn  Zn131  1  0.31093189  0.06492773  0.06394361  1
  Zn  Zn132  1  0.30869517  0.06751929  0.56427096  1
  Zn  Zn133  1  0.30695738  0.56180576  0.06587968  1
  Zn  Zn134  1  0.32070133  0.56089615  0.57119893  1
  Zn  Zn135  1  0.80911725  0.06293185  0.06394443  1
  Zn  Zn136  1  0.81238565  0.05849042  0.56478610  1
  Zn  Zn137  1  0.81077953  0.55991700  0.06359590  1
  Zn  Zn138  1  0.77909745  0.54238572  0.53643503  1
  Zn  Zn139  1  0.43881028  0.43396549  0.18221825  1
  Zn  Zn140  1  0.43333740  0.44545113  0.68771579  1
  Zn  Zn141  1  0.43931595  0.94146258  0.18581719  1
  Zn  Zn142  1  0.43888589  0.94006347  0.69090002  1
  Zn  Zn143  1  0.94096077  0.43174899  0.18205728  1
  Zn  Zn144  1  0.93287576  0.44231045  0.68471869  1
  Zn  Zn145  1  0.93591401  0.93256047  0.18838206  1
  Zn  Zn146  1  0.93997754  0.93718688  0.68703748  1
  Zn  Zn147  1  0.05987951  0.06254360  0.31315825  1
  Zn  Zn148  1  0.06495980  0.06350741  0.81391556  1
  Zn  Zn149  1  0.06395371  0.56492951  0.31949432  1
  Zn  Zn150  1  0.07082071  0.55057490  0.81353142  1
  Zn  Zn151  1  0.57445178  0.08931604  0.29659450  1
  Zn  Zn152  1  0.55881137  0.05719302  0.80921695  1
  Zn  Zn153  1  0.56050212  0.56115574  0.31659849  1
  Zn  Zn154  1  0.56458150  0.56456833  0.80900400  1
  Zn  Zn155  1  0.44010787  0.19531462  0.43710252  1
  Zn  Zn156  1  0.43345812  0.19479222  0.93819528  1
  Zn  Zn157  1  0.43522578  0.69233898  0.43489194  1
  Zn  Zn158  1  0.43872710  0.69245121  0.93521264  1
  Zn  Zn159  1  0.93983642  0.18747006  0.43604824  1
  Zn  Zn160  1  0.93562514  0.18821978  0.93508961  1
  Zn  Zn161  1  0.92915727  0.68685786  0.43504456  1
  Zn  Zn162  1  0.93846276  0.68390196  0.93946648  1
  Zn  Zn163  1  0.06694525  0.31513229  0.06506803  1
  Zn  Zn164  1  0.05385404  0.31252606  0.56482102  1
  Zn  Zn165  1  0.06153502  0.80831862  0.06288694  1
  Zn  Zn166  1  0.06616496  0.81132409  0.55959889  1
  Zn  Zn167  1  0.56319356  0.31947911  0.06200786  1
  Zn  Zn168  1  0.57098197  0.30701919  0.56186328  1
  Zn  Zn169  1  0.55993115  0.81001269  0.06021933  1
  Zn  Zn170  1  0.55470076  0.80970842  0.56436254  1
  O  O171  1  0.11964031  0.12030369  0.11808748  1
  O  O172  1  0.12365516  0.12029001  0.61709225  1
  O  O173  1  0.12681496  0.61298082  0.12164849  1
  O  O174  1  0.12189395  0.64406652  0.62531201  1
  O  O175  1  0.61590310  0.11850102  0.11313222  1
  O  O176  1  0.62022547  0.11614795  0.62125798  1
  O  O177  1  0.62665900  0.61405469  0.11864435  1
  O  O178  1  0.60739317  0.61805101  0.62947942  1
  O  O179  1  0.39145044  0.37622085  0.38626234  1
  O  O180  1  0.38309332  0.37033571  0.88489395  1
  O  O181  1  0.38478678  0.88326952  0.38052237  1
  O  O182  1  0.38126181  0.87045377  0.88465575  1
  O  O183  1  0.88591749  0.38280781  0.38052919  1
  O  O184  1  0.86631102  0.38602878  0.88479506  1
  O  O185  1  0.87911653  0.87817299  0.38258334  1
  O  O186  1  0.88324249  0.87763256  0.87927064  1
  O  O187  1  0.24968634  0.01207412  0.36662434  1
  O  O188  1  0.24130622  0.01197638  0.86720246  1
  O  O189  1  0.25032481  0.51297240  0.38446025  1
  O  O190  1  0.24002805  0.50038251  0.85527626  1
  O  O191  1  0.76385924  -0.00572893  0.37066763  1
  O  O192  1  0.75425710  0.00457781  0.87036023  1
  O  O193  1  0.76484379  0.50798533  0.36715322  1
  O  O194  1  0.75884237  0.50684626  0.86591675  1
  O  O195  1  0.23883086  0.48839664  0.12699978  1
  O  O196  1  0.24458127  0.50629008  0.63648433  1
  O  O197  1  0.24297101  0.99536828  0.13248897  1
  O  O198  1  0.23869116  1.00038231  0.63201990  1
  O  O199  1  0.74265224  0.48774003  0.12427764  1
  O  O200  1  0.76015338  0.48996415  0.63980855  1
  O  O201  1  0.73390644  0.99773017  0.12315997  1
  O  O202  1  0.74535376  0.99046759  0.63403617  1
  O  O203  1  -0.00352206  0.36172886  0.25701721  1
  O  O204  1  -0.01076010  0.36394999  0.75013408  1
  O  O205  1  0.00707787  0.86671909  0.25607784  1
  O  O206  1  0.01333618  0.88182435  0.76011290  1
  O  O207  1  0.50005661  0.36750808  0.25219735  1
  O  O208  1  0.50308777  0.37156077  0.75576466  1
  O  O209  1  0.50752320  0.87052050  0.25497558  1
  O  O210  1  0.50542819  0.87242433  0.75649865  1
  O  O211  1  0.47719627  0.11563421  0.23736224  1
  O  O212  1  0.49985844  0.13206710  0.74088210  1
  O  O213  1  0.49224077  0.63425566  0.24963024  1
  O  O214  1  0.48783625  0.62595852  0.75476552  1
  O  O215  1  0.99378023  0.13192842  0.24372264  1
  O  O216  1  0.99209729  0.12975092  0.75300217  1
  O  O217  1  1.00513481  0.63899509  0.25007971  1
  O  O218  1  0.98641366  0.62207653  0.76256119  1
  O  O219  1  0.35814928  0.26045796  -0.00223456  1
  O  O220  1  0.37257704  0.26352966  0.50753170  1
  O  O221  1  0.37479812  0.75787524  0.01373803  1
  O  O222  1  0.36510013  0.76733446  0.48994969  1
  O  O223  1  0.86221320  0.25439505  -0.00104386  1
  O  O224  1  0.87179860  0.25872890  0.49543251  1
  O  O225  1  0.86929142  0.75421326  0.00663079  1
  O  O226  1  0.87510802  0.75916369  0.50754666  1
  O  O227  1  0.12219997  0.24352197  0.48275159  1
  O  O228  1  0.12929340  0.24681080  0.99131087  1
  O  O229  1  0.14237141  0.76189817  0.48773354  1
  O  O230  1  0.12547991  0.74158817  0.99357124  1
  O  O231  1  0.63891580  0.24029505  0.49705423  1
  O  O232  1  0.63316938  0.24801626  0.99368045  1
  O  O233  1  0.62491350  0.75732519  0.48599773  1
  O  O234  1  0.63404252  0.73644994  1.00764406  1
  O  O235  1  0.50476898  0.23978262  0.11948671  1
  O  O236  1  0.49678600  0.24320343  0.63043503  1
  O  O237  1  0.49270348  0.74894240  0.13591147  1
  O  O238  1  0.50316223  0.73500975  0.63050442  1
  O  O239  1  1.00042047  0.24564663  0.13254594  1
  O  O240  1  0.99821406  0.24745184  0.64471316  1
  O  O241  1  0.99262895  0.74886684  0.13500262  1
  O  O242  1  0.98487928  0.76298889  0.62618941  1
  O  O243  1  0.00612110  0.25771115  0.36717448  1
  O  O244  1  0.00976026  0.24823629  0.87074364  1
  O  O245  1  0.00711033  0.75442809  0.37194920  1
  O  O246  1  0.00785458  0.76123370  0.88088725  1
  O  O247  1  0.50733439  0.26806638  0.38032527  1
  O  O248  1  0.50473176  0.25849267  0.86878378  1
  O  O249  1  0.50536789  0.75811141  0.36439961  1
  O  O250  1  0.49869829  0.76660261  0.86928533  1
  O  O251  1  0.23745405  0.13911397  0.49866654  1
  O  O252  1  0.24413888  0.13460384  0.99645557  1
  O  O253  1  0.26672530  0.64096273  0.49376763  1
  O  O254  1  0.23848420  0.62601736  0.99812263  1
  O  O255  1  0.74544300  0.13557445  0.51356968  1
  O  O256  1  0.74392225  0.13432779  0.99392626  1
  O  O257  1  0.76892562  0.63479996  0.46973423  1
  O  O258  1  0.74572574  0.62977330  0.99303138  1
  O  O259  1  0.25470809  0.37199166  0.00399829  1
  O  O260  1  0.25507045  0.36485568  0.49524863  1
  O  O261  1  0.25589471  0.87180488  0.00653427  1
  O  O262  1  0.26414963  0.87092212  0.49828967  1
  O  O263  1  0.75560078  0.36837309  0.00461890  1
  O  O264  1  0.75952747  0.36214343  0.50488705  1
  O  O265  1  0.75351036  0.86590449  -0.00123834  1
  O  O266  1  0.76147462  0.87223339  0.50505504  1
  O  O267  1  0.12214158  0.50333345  0.23958685  1
  O  O268  1  0.13543616  0.49933873  0.73740592  1
  O  O269  1  0.13410054  0.99733559  0.24581883  1
  O  O270  1  0.13206732  0.99461739  0.74411764  1
  O  O271  1  0.62535524  0.50689336  0.23529056  1
  O  O272  1  0.63723810  0.49252849  0.75425332  1
  O  O273  1  0.62451362  0.99508240  0.23989934  1
  O  O274  1  0.63122795  0.99230026  0.74044342  1
  O  O275  1  0.36172598  0.00224186  0.25012244  1
  O  O276  1  0.35800063  0.00300176  0.74504699  1
  O  O277  1  0.38179467  0.51062453  0.25020292  1
  O  O278  1  0.36171141  0.51200127  0.74762043  1
  O  O279  1  0.87514660  0.00466200  0.25661922  1
  O  O280  1  0.87072556  0.00410418  0.75771074  1
  O  O281  1  0.88410321  0.49415011  0.26054720  1
  O  O282  1  0.86920854  0.50770996  0.75792279  1
  O  O283  1  0.11293930  0.36961170  0.37782041  1
  O  O284  1  0.12087651  0.36363348  0.88258523  1
  O  O285  1  0.12063730  0.87050469  0.37018432  1
  O  O286  1  0.11882197  0.86776307  0.87005764  1
  O  O287  1  0.61892563  0.37004661  0.36297894  1
  O  O288  1  0.62004347  0.36905353  0.86911653  1
  O  O289  1  0.61909299  0.87024924  0.36790661  1
  O  O290  1  0.61315969  0.87781947  0.86604297  1
  O  O291  1  0.37718332  0.12829879  0.13384140  1
  O  O292  1  0.38786038  0.12802372  0.62458675  1
  O  O293  1  0.37409438  0.63236668  0.13205770  1
  O  O294  1  0.38999258  0.62422187  0.63773064  1
  O  O295  1  0.88398933  0.12621992  0.12838982  1
  O  O296  1  0.87739562  0.11711690  0.64159154  1
  O  O297  1  0.87657689  0.63672195  0.12039784  1
  O  O298  1  0.86962197  0.63592295  0.63733818  1
  O  O299  1  0.23774327  0.26672298  0.11518347  1
  O  O300  1  0.27591605  0.23028442  0.62695422  1
  O  O301  1  0.25673609  0.75627529  0.12742812  1
  O  O302  1  0.25442313  0.75907752  0.60726553  1
  O  O303  1  0.74752976  0.26025117  0.11568974  1
  O  O304  1  0.74888660  0.26135034  0.62178100  1
  O  O305  1  0.75648306  0.75121103  0.11527778  1
  O  O306  1  0.75742839  0.75512681  0.62121426  1
  O  O307  1  0.24046778  0.24703167  0.37315857  1
  O  O308  1  0.23621255  0.24727954  0.88009177  1
  O  O309  1  0.24554928  0.74513004  0.38241421  1
  O  O310  1  0.23516258  0.74884370  0.87907691  1
  O  O311  1  0.75029078  0.25003593  0.38503559  1
  O  O312  1  0.74322558  0.24587520  0.87988662  1
  O  O313  1  0.73850901  0.74611377  0.37375003  1
  O  O314  1  0.75514453  0.74129528  0.88871963  1
  O  O315  1  0.00366800  0.11936011  0.00411193  1
  O  O316  1  0.01218849  0.12405215  0.50188615  1
  O  O317  1  0.01170276  0.62289879  0.00599917  1
  O  O318  1  -0.00752621  0.61250897  0.49634140  1
  O  O319  1  0.49988922  0.12572579  0.00391479  1
  O  O320  1  0.51033175  0.13274414  0.51208728  1
  O  O321  1  0.50886382  0.62587142  0.00142258  1
  O  O322  1  0.49265422  0.62842510  0.50959869  1
  O  O323  1  0.49729449  0.37553045  0.50348796  1
  O  O324  1  0.48908520  0.37538221  0.99263723  1
  O  O325  1  0.48730685  0.87351712  0.49101927  1
  O  O326  1  0.49292133  0.87541803  0.98983895  1
  O  O327  1  0.99312912  0.37759546  0.49375385  1
  O  O328  1  0.98288630  0.37092952  1.00728844  1
  O  O329  1  0.99019857  0.87740621  0.49450719  1
  O  O330  1  0.99555732  0.87967679  0.99380704  1
  O  O331  1  0.50420728  0.48004668  0.37146011  1
  O  O332  1  0.50689400  0.48692029  0.87727588  1
  O  O333  1  0.50384390  0.99188550  0.36561800  1
  O  O334  1  0.49719854  0.98438456  0.87304016  1
  O  O335  1  0.99356912  0.49473117  0.38113584  1
  O  O336  1  0.98719208  0.50176883  0.87880273  1
  O  O337  1  0.99129251  0.99053178  0.37530618  1
  O  O338  1  0.99744760  0.98976608  0.88160075  1
  O  O339  1  0.00524577  0.00290974  0.12045563  1
  O  O340  1  0.01336626  0.00272983  0.62398582  1
  O  O341  1  0.01304915  0.49826972  0.12300877  1
  O  O342  1  -0.00265391  0.50191813  0.61273843  1
  O  O343  1  0.50850150  0.00743830  0.11946704  1
  O  O344  1  0.50999951  0.00827867  0.62980658  1
  O  O345  1  0.51377603  0.49962889  0.11968650  1
  O  O346  1  0.50058966  0.51500414  0.62684621  1
  O  O347  1  0.25555234  0.37072476  0.23900295  1
  O  O348  1  0.25673573  0.38587261  0.74651788  1
  O  O349  1  0.24551909  0.88283999  0.24836110  1
  O  O350  1  0.23962736  0.88227741  0.75151468  1
  O  O351  1  0.75426981  0.36522526  0.23576766  1
  O  O352  1  0.74665042  0.37943336  0.74267947  1
  O  O353  1  0.73475154  0.87611890  0.24632463  1
  O  O354  1  0.74255329  0.87890623  0.74794817  1
  O  O355  1  0.25916426  0.12083311  0.25138457  1
  O  O356  1  0.24494365  0.12069626  0.75866752  1
  O  O357  1  0.26246427  0.63212613  0.26393209  1
  O  O358  1  0.26261515  0.62015611  0.75594883  1
  O  O359  1  0.76945217  0.12266159  0.23833607  1
  O  O360  1  0.75662669  0.12130116  0.75616762  1
  O  O361  1  0.75616333  0.63552516  0.26464496  1
  O  O362  1  0.75520625  0.61912872  0.75638246  1
  O  O363  1  0.37088286  0.12882166  0.36486597  1
  O  O364  1  0.35759909  0.13404368  0.87363440  1
  O  O365  1  0.37171541  0.62012572  0.36819280  1
  O  O366  1  0.37428255  0.62533113  0.86690149  1
  O  O367  1  0.88394890  0.11399234  0.36542160  1
  O  O368  1  0.86879275  0.11724895  0.86869075  1
  O  O369  1  0.87524360  0.61113304  0.36592696  1
  O  O370  1  0.86487517  0.61948443  0.87170232  1
  O  O371  1  0.13559006  0.38741572  0.12447750  1
  O  O372  1  0.15611109  0.30641688  0.61204677  1
  O  O373  1  0.13019224  0.87848710  0.13128186  1
  O  O374  1  0.12741699  0.88215067  0.63309277  1
  O  O375  1  0.63703027  0.38719689  0.11995572  1
  O  O376  1  0.63353985  0.38054927  0.62953929  1
  O  O377  1  0.62110035  0.88190964  0.13066876  1
  O  O378  1  0.62778329  0.87929877  0.63031281  1
  O  O379  1  0.11662177  0.24261447  0.25997628  1
  O  O380  1  0.10908685  0.24883280  0.76650814  1
  O  O381  1  0.12007472  0.75566173  0.26063946  1
  O  O382  1  0.12506392  0.75689793  0.75761368  1
  O  O383  1  0.61477219  0.19430855  0.26427084  1
  O  O384  1  0.61812959  0.25775824  0.75175777  1
  O  O385  1  0.61639775  0.75803400  0.25300853  1
  O  O386  1  0.62812614  0.76153318  0.74710547  1
  O  O387  1  0.37040224  0.24147932  0.25018148  1
  O  O388  1  0.38502000  0.24897344  0.74378283  1
  O  O389  1  0.38183479  0.74748258  0.24263886  1
  O  O390  1  0.37130928  0.73355831  0.75085687  1
  O  O391  1  0.88489299  0.24113030  0.24856022  1
  O  O392  1  0.88795870  0.24046846  0.76291591  1
  O  O393  1  0.88476998  0.75970746  0.24066719  1
  O  O394  1  0.87086005  0.74158339  0.74318289  1
  O  O395  1  0.37107675  0.48087429  0.50125013  1
  O  O396  1  0.37477280  0.49086801  1.00334453  1
  O  O397  1  0.36821377  0.99156303  0.49481630  1
  O  O398  1  0.37355451  0.98573214  1.00761948  1
  O  O399  1  0.88217233  0.48949081  0.48990398  1
  O  O400  1  0.87532620  0.49223830  0.99353096  1
  O  O401  1  0.87711504  0.99321981  0.49356510  1
  O  O402  1  0.87827496  0.99363517  0.99499955  1
  O  O403  1  0.12012653  0.00501879  0.00606295  1
  O  O404  1  0.12701549  0.00798676  0.50675546  1
  O  O405  1  0.12341427  0.50611417  0.00815157  1
  O  O406  1  0.10479759  0.49680170  0.50586863  1
  O  O407  1  0.61973051  0.00721810  0.00337055  1
  O  O408  1  0.63515307  0.00313127  0.51650387  1
  O  O409  1  0.62716099  0.51214686  0.00573735  1
  O  O410  1  0.67250577  0.50556735  0.50454354  1
  O  O411  1  0.35952385  0.37884050  0.11752985  1
  O  O412  1  0.38377022  0.36653530  0.61487930  1
  O  O413  1  0.36994461  0.86833994  0.12206307  1
  O  O414  1  0.37719211  0.88308274  0.60971040  1
  O  O415  1  0.86188275  0.37299124  0.11754293  1
  O  O416  1  0.86759937  0.37753886  0.61281427  1
  O  O417  1  0.87219097  0.86610655  0.11674438  1
  O  O418  1  0.86876825  0.87263848  0.61938582  1
  O  O419  1  0.12943939  0.13086365  0.38008718  1
  O  O420  1  0.13187973  0.13199471  0.88345556  1
  O  O421  1  0.13622379  0.63554971  0.37458156  1
  O  O422  1  0.12274793  0.63067994  0.88346142  1
  O  O423  1  0.62661710  0.10963726  0.39802456  1
  O  O424  1  0.62758524  0.13067793  0.87752759  1
  O  O425  1  0.63551029  0.63249743  0.36861319  1
  O  O426  1  0.63870322  0.62065866  0.88144508  1
