# generated using pymatgen
data_V85Zn86O256
_symmetry_space_group_name_H-M   'P 1'
_cell_length_a   16.91283673
_cell_length_b   16.92001292
_cell_length_c   16.91106902
_cell_angle_alpha   89.97314626
_cell_angle_beta   89.95558101
_cell_angle_gamma   90.00661085
_symmetry_Int_Tables_number   1
_chemical_formula_structural   V85Zn86O256
_chemical_formula_sum   'V85 Zn86 O256'
_cell_volume   4839.36108332
_cell_formula_units_Z   1
loop_
 _symmetry_equiv_pos_site_id
 _symmetry_equiv_pos_as_xyz
  1  'x, y, z'
loop_
 _atom_site_type_symbol
 _atom_site_label
 _atom_site_symmetry_multiplicity
 _atom_site_fract_x
 _atom_site_fract_y
 _atom_site_fract_z
 _atom_site_occupancy
  V  V0  1  0.49878286  0.37406128  0.37333247  1
  V  V1  1  0.37670011  0.87574545  0.50007324  1
  V  V2  1  0.37235840  0.49900638  0.37740511  1
  V  V3  1  0.00441632  0.49857323  0.50665104  1
  V  V4  1  0.87368405  -0.00703596  0.37979775  1
  V  V5  1  0.49746522  0.25109123  0.25092787  1
  V  V6  1  0.00237291  -0.00090940  0.50032328  1
  V  V7  1  0.74585236  0.50104388  0.25318349  1
  V  V8  1  0.25279285  0.24311528  0.51302607  1
  V  V9  1  0.37125772  0.25215005  0.11017112  1
  V  V10  1  0.87406999  0.76653748  0.61878019  1
  V  V11  1  0.50297486  0.00446703  -0.00191176  1
  V  V12  1  0.51237153  0.87590103  0.37434740  1
  V  V13  1  0.00033709  0.62450463  0.12497081  1
  V  V14  1  0.12741730  0.75380824  0.37512935  1
  V  V15  1  0.13239402  0.74502944  0.87420356  1
  V  V16  1  0.00466150  0.75322888  0.25139233  1
  V  V17  1  0.74314784  0.74988356  0.50577646  1
  V  V18  1  0.62296653  0.12226283  0.50211641  1
  V  V19  1  0.00072020  0.25189921  0.75111430  1
  V  V20  1  0.25392281  0.87988459  0.62789244  1
  V  V21  1  -0.00107353  0.49997867  0.00025439  1
  V  V22  1  0.61503855  0.36694412  0.75048100  1
  V  V23  1  0.37415309  0.87891552  0.00121354  1
  V  V24  1  0.13588747  0.23466735  0.37816363  1
  V  V25  1  0.62745519  0.50314893  0.62572947  1
  V  V26  1  0.87331372  0.75050606  0.12514728  1
  V  V27  1  0.74277520  0.87289490  0.12904383  1
  V  V28  1  0.50431212  0.62333249  0.11375444  1
  V  V29  1  0.87371796  0.37271301  -0.00110133  1
  V  V30  1  0.62373930  0.25004671  0.37506455  1
  V  V31  1  0.24839298  0.50570342  0.74571865  1
  V  V32  1  0.50473767  0.87047807  0.87166363  1
  V  V33  1  0.12738337  0.62197721  0.50840892  1
  V  V34  1  0.87478962  0.37410437  0.50147137  1
  V  V35  1  0.48811437  0.37417111  0.88706041  1
  V  V36  1  0.36418326  0.12210328  0.74722602  1
  V  V37  1  0.63111063  0.73316189  0.37510517  1
  V  V38  1  0.50070736  0.12753981  0.63473437  1
  V  V39  1  0.50451427  0.62761556  0.62255806  1
  V  V40  1  0.13328767  0.37762471  0.73575837  1
  V  V41  1  -0.00088696  0.00850455  0.00396423  1
  V  V42  1  0.12076841  0.00647989  0.12956289  1
  V  V43  1  0.00237254  0.12646443  0.61965193  1
  V  V44  1  0.00049918  0.87695413  0.87679367  1
  V  V45  1  0.24922111  0.62439596  0.37543356  1
  V  V46  1  0.13171266  0.00587274  0.62227031  1
  V  V47  1  0.74930202  0.25057004  0.50149806  1
  V  V48  1  0.50320649  0.12660493  0.12220436  1
  V  V49  1  0.87385994  0.87460548  0.00061079  1
  V  V50  1  0.13287297  0.25495155  0.88207987  1
  V  V51  1  0.25229803  0.37264330  0.11142546  1
  V  V52  1  0.12887273  0.88289639  0.75038049  1
  V  V53  1  0.37430247  0.75026751  0.12944963  1
  V  V54  1  0.75039647  0.12297834  0.37552770  1
  V  V55  1  0.37360378  0.62673358  0.76175465  1
  V  V56  1  0.73612945  0.74681304  -0.00319331  1
  V  V57  1  0.37757488  0.74965439  0.62687214  1
  V  V58  1  0.62462994  0.50268161  0.10782594  1
  V  V59  1  0.74137940  0.11786541  0.87384813  1
  V  V60  1  0.87155993  0.62570245  0.25590592  1
  V  V61  1  0.87897160  0.12224969  0.24748910  1
  V  V62  1  0.87316077  0.11903967  0.75144699  1
  V  V63  1  0.73375888  0.62725326  0.87670100  1
  V  V64  1  0.24245812  0.87590956  0.12911613  1
  V  V65  1  0.87171262  0.50302118  0.37874762  1
  V  V66  1  0.87269280  0.62612093  0.74617682  1
  V  V67  1  0.24704008  0.11675898  0.88294696  1
  V  V68  1  0.87606013  0.24428216  0.12251422  1
  V  V69  1  0.50590059  0.75301006  0.25035534  1
  V  V70  1  0.24545426  -0.00281319  0.25639712  1
  V  V71  1  0.63923107  -0.00356082  0.63052090  1
  V  V72  1  0.74672326  -0.00397094  0.25110191  1
  V  V73  1  0.12604480  0.37502822  0.25196253  1
  V  V74  1  0.37059945  0.12601572  0.25223709  1
  V  V75  1  0.64062353  0.87357619  0.75233140  1
  V  V76  1  0.74024574  0.24553665  -0.00182235  1
  V  V77  1  0.00117713  0.87377326  0.37769338  1
  V  V78  1  0.62396452  0.00048866  0.12709378  1
  V  V79  1  -0.00036522  0.75103849  0.74937084  1
  V  V80  1  0.37427993  0.00220252  0.37666830  1
  V  V81  1  0.25362434  0.49791801  0.24828727  1
  V  V82  1  0.50478083  0.50154642  0.49984991  1
  V  V83  1  0.00111315  0.24760943  0.24741383  1
  V  V84  1  0.87367441  0.50149949  0.87245001  1
  Zn  Zn85  1  0.50814219  0.74861759  0.75450796  1
  Zn  Zn86  1  0.00153926  0.37594179  0.87233498  1
  Zn  Zn87  1  0.74765573  0.37419149  0.62838683  1
  Zn  Zn88  1  0.87451717  0.25002660  0.62660236  1
  Zn  Zn89  1  0.00156141  0.37244766  0.37598013  1
  Zn  Zn90  1  0.38082359  0.25893968  0.63626775  1
  Zn  Zn91  1  0.00174583  0.62415133  0.62584508  1
  Zn  Zn92  1  0.25087652  0.74917630  0.50086289  1
  Zn  Zn93  1  0.12520066  0.49898127  0.12399980  1
  Zn  Zn94  1  0.74869774  0.37374408  0.12586109  1
  Zn  Zn95  1  0.74739649  0.49790701  0.75045368  1
  Zn  Zn96  1  0.36421112  0.37817004  0.51167289  1
  Zn  Zn97  1  0.37088598  -0.00414906  0.86810853  1
  Zn  Zn98  1  0.37002195  0.50016095  0.88803306  1
  Zn  Zn99  1  0.61794202  0.24511985  0.87243485  1
  Zn  Zn100  1  0.87140852  -0.00231887  0.87273616  1
  Zn  Zn101  1  0.25208482  0.74916802  -0.00416954  1
  Zn  Zn102  1  0.50195075  -0.00078293  0.50328044  1
  Zn  Zn103  1  0.12617260  0.62210770  -0.00767522  1
  Zn  Zn104  1  0.37722217  0.62393537  0.24931815  1
  Zn  Zn105  1  0.62540357  0.37673508  0.24894806  1
  Zn  Zn106  1  0.12368439  0.13238773  0.00798955  1
  Zn  Zn107  1  0.19100201  0.18727415  0.18893209  1
  Zn  Zn108  1  0.18736177  0.18615659  0.69392617  1
  Zn  Zn109  1  0.18735101  0.68492127  0.18534288  1
  Zn  Zn110  1  0.19155126  0.69040507  0.68949431  1
  Zn  Zn111  1  0.68745868  0.18611098  0.18752647  1
  Zn  Zn112  1  0.68870364  0.18545640  0.68860482  1
  Zn  Zn113  1  0.68631170  0.68504313  0.18940006  1
  Zn  Zn114  1  0.68987069  0.68907210  0.68815212  1
  Zn  Zn115  1  0.31267974  0.31458929  0.31098519  1
  Zn  Zn116  1  0.31080822  0.30862931  0.81092805  1
  Zn  Zn117  1  0.31466309  0.81581260  0.31302861  1
  Zn  Zn118  1  0.31491545  0.81577211  0.80951484  1
  Zn  Zn119  1  0.81250724  0.31494234  0.31383859  1
  Zn  Zn120  1  0.80838982  0.31130189  0.81134785  1
  Zn  Zn121  1  0.80978266  0.81232114  0.31612642  1
  Zn  Zn122  1  0.81294768  0.80869715  0.81546114  1
  Zn  Zn123  1  0.18647517  0.43081014  0.43991931  1
  Zn  Zn124  1  0.18768173  0.44180338  0.92970430  1
  Zn  Zn125  1  0.18745383  0.93790833  0.44039714  1
  Zn  Zn126  1  0.18525450  0.93799497  0.94216430  1
  Zn  Zn127  1  0.68688068  0.43891013  0.43731904  1
  Zn  Zn128  1  0.68915389  0.43204852  0.93139007  1
  Zn  Zn129  1  0.69160758  0.93096395  0.44661143  1
  Zn  Zn130  1  0.68533600  0.93763742  0.93988388  1
  Zn  Zn131  1  0.31216557  0.06368232  0.06403496  1
  Zn  Zn132  1  0.31092940  0.06940889  0.55756856  1
  Zn  Zn133  1  0.30606645  0.56943727  0.06071507  1
  Zn  Zn134  1  0.31365933  0.56089619  0.56689790  1
  Zn  Zn135  1  0.81071324  0.06292270  0.05928858  1
  Zn  Zn136  1  0.81694253  0.06276521  0.56192304  1
  Zn  Zn137  1  0.80958926  0.56405073  0.06245733  1
  Zn  Zn138  1  0.80870563  0.56965767  0.55965926  1
  Zn  Zn139  1  0.43599248  0.44049426  0.06461042  1
  Zn  Zn140  1  0.43564601  0.44069005  0.69226934  1
  Zn  Zn141  1  0.43718506  0.93604820  0.19057779  1
  Zn  Zn142  1  0.44323207  0.94358880  0.68920921  1
  Zn  Zn143  1  0.93497482  0.43438652  0.18762168  1
  Zn  Zn144  1  0.93795974  0.43588953  0.68615262  1
  Zn  Zn145  1  0.93743098  0.93466376  0.18945717  1
  Zn  Zn146  1  0.94084432  0.93995446  0.68870287  1
  Zn  Zn147  1  0.06096962  0.06088649  0.30954665  1
  Zn  Zn148  1  0.06251834  0.06375908  0.81252378  1
  Zn  Zn149  1  0.06127869  0.56221343  0.31763562  1
  Zn  Zn150  1  0.06163971  0.56066720  0.80770227  1
  Zn  Zn151  1  0.56085193  0.06254473  0.31087001  1
  Zn  Zn152  1  0.55947870  0.05799302  0.80845400  1
  Zn  Zn153  1  0.55758612  0.56383417  0.30714420  1
  Zn  Zn154  1  0.55548686  0.55443687  0.81069600  1
  Zn  Zn155  1  0.43421336  0.18542234  0.44293305  1
  Zn  Zn156  1  0.43756223  0.18761438  0.92886910  1
  Zn  Zn157  1  0.43922343  0.68693010  0.43909703  1
  Zn  Zn158  1  0.43972615  0.69208898  0.94114611  1
  Zn  Zn159  1  0.94008883  0.18660297  0.43455570  1
  Zn  Zn160  1  0.93625032  0.18707275  0.93364197  1
  Zn  Zn161  1  0.93617417  0.68571520  0.44158305  1
  Zn  Zn162  1  0.93476994  0.68858494  0.93573620  1
  Zn  Zn163  1  0.06104551  0.31437354  0.06492834  1
  Zn  Zn164  1  0.06536281  0.30867023  0.55893168  1
  Zn  Zn165  1  0.06247608  0.81584189  0.06199603  1
  Zn  Zn166  1  0.06257630  0.81274422  0.56107162  1
  Zn  Zn167  1  0.56526859  0.31262223  0.06527031  1
  Zn  Zn168  1  0.55664578  0.31508879  0.56342482  1
  Zn  Zn169  1  0.56057933  0.81608869  0.06333029  1
  Zn  Zn170  1  0.56573091  0.81532172  0.56333539  1
  O  O171  1  0.12921952  0.11229324  0.12544465  1
  O  O172  1  0.11668468  0.11489474  0.63340561  1
  O  O173  1  0.10814353  0.62133310  0.12947884  1
  O  O174  1  0.12536644  0.63326584  0.61208311  1
  O  O175  1  0.61054277  0.11967618  0.12815993  1
  O  O176  1  0.62108788  0.11531044  0.62440399  1
  O  O177  1  0.61997585  0.61085498  0.13048990  1
  O  O178  1  0.61627961  0.61818155  0.63124316  1
  O  O179  1  0.38016532  0.38691033  0.37564026  1
  O  O180  1  0.38542102  0.37118306  0.87321448  1
  O  O181  1  0.38434591  0.88325501  0.37988005  1
  O  O182  1  0.38062634  0.87719196  0.88395734  1
  O  O183  1  0.87711478  0.38131715  0.38646752  1
  O  O184  1  0.87640462  0.38406604  0.87890218  1
  O  O185  1  0.88286889  0.88678455  0.37008591  1
  O  O186  1  0.88158031  0.87653678  0.88154364  1
  O  O187  1  0.25917012  -0.00700920  0.36771509  1
  O  O188  1  0.24819815  0.01175623  0.87774258  1
  O  O189  1  0.25562567  0.50292302  0.37258632  1
  O  O190  1  0.25471554  0.49596256  0.85700535  1
  O  O191  1  0.75703520  0.00131993  0.37377740  1
  O  O192  1  0.75170196  0.01394023  0.88182971  1
  O  O193  1  0.76237472  0.49705934  0.36979779  1
  O  O194  1  0.76163809  0.50767869  0.87670835  1
  O  O195  1  0.24626568  0.49264399  0.13514168  1
  O  O196  1  0.25559484  0.49889802  0.64336590  1
  O  O197  1  0.24395846  0.99396815  0.13262889  1
  O  O198  1  0.23965853  0.99564800  0.61710480  1
  O  O199  1  0.74113246  0.50025520  0.13274348  1
  O  O200  1  0.73683980  0.50116295  0.62112952  1
  O  O201  1  0.74248583  0.99452143  0.12754636  1
  O  O202  1  0.73848442  1.00503873  0.62336143  1
  O  O203  1  0.00654071  0.36695298  0.25138754  1
  O  O204  1  0.00867416  0.36844203  0.74973751  1
  O  O205  1  -0.00291775  0.86516673  0.26290869  1
  O  O206  1  0.00830621  0.87092448  0.75601822  1
  O  O207  1  0.50284300  0.36794588  0.26595577  1
  O  O208  1  0.51173219  0.37661308  0.75777327  1
  O  O209  1  0.49716083  0.86218846  0.25834568  1
  O  O210  1  0.50770965  0.87554648  0.75858664  1
  O  O211  1  0.48998040  0.12862972  0.24231821  1
  O  O212  1  0.48846026  0.12232428  0.74465500  1
  O  O213  1  0.49768289  0.63759995  0.24195123  1
  O  O214  1  0.49244012  0.62687399  0.74004071  1
  O  O215  1  0.98636974  0.12996424  0.25226488  1
  O  O216  1  0.99513586  0.13235209  0.74235651  1
  O  O217  1  0.99061591  0.62939725  0.24537477  1
  O  O218  1  0.99294575  0.63212101  0.74644789  1
  O  O219  1  0.37576770  0.24014801  0.01191046  1
  O  O220  1  0.36250849  0.25052413  0.50317449  1
  O  O221  1  0.37623169  0.76253794  0.01279131  1
  O  O222  1  0.37430789  0.75687747  0.50821201  1
  O  O223  1  0.87139441  0.25176425  0.00719112  1
  O  O224  1  0.86882498  0.25707238  0.49827503  1
  O  O225  1  0.87072201  0.75760832  0.00757617  1
  O  O226  1  0.87752723  0.75116954  0.51584658  1
  O  O227  1  0.13296613  0.25117596  0.48512865  1
  O  O228  1  0.11251552  0.24799845  0.98683874  1
  O  O229  1  0.12735586  0.74226011  0.49243662  1
  O  O230  1  0.12042384  0.75516873  0.98165187  1
  O  O231  1  0.63222399  0.24466040  0.49539775  1
  O  O232  1  0.63743890  0.24970283  1.00091085  1
  O  O233  1  0.63416152  0.75086872  0.49248980  1
  O  O234  1  0.63702001  0.75543029  1.00381807  1
  O  O235  1  0.49438724  0.24341998  0.12968930  1
  O  O236  1  0.50157390  0.23144370  0.61823030  1
  O  O237  1  0.49617320  0.74900475  0.13358013  1
  O  O238  1  0.49295492  0.74525524  0.62471993  1
  O  O239  1  0.99246967  0.25092801  0.13811214  1
  O  O240  1  1.00160686  0.24237714  0.63299098  1
  O  O241  1  0.99638246  0.74618969  0.13309719  1
  O  O242  1  0.98983347  0.75080279  0.63053064  1
  O  O243  1  0.00812214  0.25010934  0.36372738  1
  O  O244  1  0.00707650  0.24846221  0.86198883  1
  O  O245  1  0.00444675  0.75555850  0.37163810  1
  O  O246  1  0.00559151  0.75864599  0.86820082  1
  O  O247  1  0.50170640  0.25579857  0.37385496  1
  O  O248  1  0.50388631  0.26462248  0.87850121  1
  O  O249  1  0.50889563  0.75396083  0.37074782  1
  O  O250  1  0.50049081  0.76626907  0.87629103  1
  O  O251  1  0.25005498  0.14244527  0.49371954  1
  O  O252  1  0.24668332  0.12242858  0.98779722  1
  O  O253  1  0.24479277  0.62463924  0.49391077  1
  O  O254  1  0.23430992  0.64034370  1.01650173  1
  O  O255  1  0.74568579  0.13120516  0.49430347  1
  O  O256  1  0.75536378  0.13238490  0.98506175  1
  O  O257  1  0.76396590  0.64935142  0.49202951  1
  O  O258  1  0.75567205  0.63535372  0.99032379  1
  O  O259  1  0.23757612  0.37909937  0.01308199  1
  O  O260  1  0.25096463  0.35312424  0.49002592  1
  O  O261  1  0.25772742  0.87216114  0.00872008  1
  O  O262  1  0.25655915  0.87310159  0.51166050  1
  O  O263  1  0.75708668  0.36414300  -0.00010883  1
  O  O264  1  0.75622682  0.36687307  0.50105092  1
  O  O265  1  0.75563778  0.86947586  0.00704744  1
  O  O266  1  0.75985118  0.85098243  0.48838935  1
  O  O267  1  0.13266009  0.49195728  0.25387517  1
  O  O268  1  0.13231925  0.48844368  0.75195988  1
  O  O269  1  0.13421244  1.00131467  0.24523359  1
  O  O270  1  0.11856420  0.98882186  0.74008088  1
  O  O271  1  0.63849750  0.50187472  0.25289984  1
  O  O272  1  0.62530707  0.48976627  0.74064623  1
  O  O273  1  0.63106563  1.00485542  0.23759379  1
  O  O274  1  0.62532257  0.99080110  0.73829574  1
  O  O275  1  0.36976179  0.00550919  0.25699924  1
  O  O276  1  0.37684070  0.01406216  0.75224532  1
  O  O277  1  0.36043614  0.50205759  0.26040363  1
  O  O278  1  0.36756200  0.51164126  0.75433814  1
  O  O279  1  0.87046822  0.00671176  0.25577565  1
  O  O280  1  0.88202747  0.01443612  0.75221393  1
  O  O281  1  0.86825072  0.50518862  0.25681158  1
  O  O282  1  0.87373876  0.50646192  0.75597708  1
  O  O283  1  0.12320891  0.36527766  0.36233589  1
  O  O284  1  0.12173933  0.36682988  0.86651123  1
  O  O285  1  0.12000519  0.86142395  0.37916436  1
  O  O286  1  0.12095739  0.87159585  0.86694358  1
  O  O287  1  0.61794327  0.36734794  0.37467948  1
  O  O288  1  0.61855962  0.37304183  0.86372518  1
  O  O289  1  0.61450996  0.86889556  0.37964715  1
  O  O290  1  0.61987734  0.88403905  0.86106550  1
  O  O291  1  0.38384550  0.12848111  0.13256765  1
  O  O292  1  0.38071656  0.12354489  0.63495134  1
  O  O293  1  0.38344545  0.63669328  0.12888439  1
  O  O294  1  0.38124208  0.63507283  0.63185190  1
  O  O295  1  0.86942523  0.13520688  0.13261404  1
  O  O296  1  0.88343821  0.12765089  0.63252741  1
  O  O297  1  0.88358935  0.63041772  0.13176084  1
  O  O298  1  0.87459256  0.63064795  0.63698257  1
  O  O299  1  0.25979569  0.25922164  0.13109951  1
  O  O300  1  0.24902959  0.24459846  0.61594091  1
  O  O301  1  0.25845345  0.76070509  0.13390836  1
  O  O302  1  0.26238352  0.75929405  0.62478586  1
  O  O303  1  0.75662683  0.24849203  0.11723840  1
  O  O304  1  0.75153237  0.24870224  0.61167879  1
  O  O305  1  0.75271462  0.75605592  0.12179187  1
  O  O306  1  0.76015929  0.74988082  0.61573960  1
  O  O307  1  0.23740272  0.24643539  0.36716018  1
  O  O308  1  0.23946732  0.23723062  0.87086679  1
  O  O309  1  0.24342424  0.74527475  0.37428371  1
  O  O310  1  0.23566735  0.75816252  0.87350576  1
  O  O311  1  0.74675942  0.24458293  0.38370274  1
  O  O312  1  0.74688044  0.24003344  0.88260161  1
  O  O313  1  0.73504823  0.74882200  0.37609345  1
  O  O314  1  0.75258976  0.73959987  0.88478856  1
  O  O315  1  -0.00097175  0.11174086  -0.00288651  1
  O  O316  1  -0.00293937  0.12006050  0.51229847  1
  O  O317  1  -0.00074817  0.61945757  0.00792097  1
  O  O318  1  0.00890834  0.61688345  0.50145839  1
  O  O319  1  0.49291790  0.11245464  0.00614570  1
  O  O320  1  0.50924979  0.12050907  0.50525839  1
  O  O321  1  0.50465161  0.63570599  0.01461690  1
  O  O322  1  0.49528817  0.61717443  0.51315674  1
  O  O323  1  0.49821684  0.38301153  0.48760840  1
  O  O324  1  0.50233064  0.37520692  0.99223823  1
  O  O325  1  0.49452347  0.87674019  0.49241108  1
  O  O326  1  0.49405704  0.88513046  0.99633747  1
  O  O327  1  0.99349433  0.37953671  0.49854152  1
  O  O328  1  0.99233434  0.38381666  0.99836845  1
  O  O329  1  1.00253265  0.88196692  0.48736282  1
  O  O330  1  0.99326411  0.88225143  0.99553865  1
  O  O331  1  0.49369333  0.49597654  0.37996959  1
  O  O332  1  0.49385660  0.48070739  0.87216249  1
  O  O333  1  0.49476032  0.99076322  0.37443916  1
  O  O334  1  0.49796375  0.99204633  0.88420962  1
  O  O335  1  0.98809810  0.49666120  0.38381854  1
  O  O336  1  0.98889356  0.50197383  0.88105691  1
  O  O337  1  0.99625191  0.99352144  0.37999223  1
  O  O338  1  1.00030022  0.99281727  0.88414294  1
  O  O339  1  0.00965997  -0.00851505  0.11939114  1
  O  O340  1  0.00754433  0.00494852  0.61736499  1
  O  O341  1  -0.00288901  0.50697783  0.11807586  1
  O  O342  1  -0.00463061  0.50283668  0.61078262  1
  O  O343  1  0.50496608  0.00515407  0.12212603  1
  O  O344  1  0.51103616  0.01121056  0.62278113  1
  O  O345  1  0.51535531  0.50768186  0.12422017  1
  O  O346  1  0.50837257  0.50782365  0.61852760  1
  O  O347  1  0.24312388  0.38152357  0.24445707  1
  O  O348  1  0.23824817  0.37965774  0.74979950  1
  O  O349  1  0.25607708  0.88778361  0.24273031  1
  O  O350  1  0.24453092  0.87590810  0.73723038  1
  O  O351  1  0.74953243  0.38537829  0.24775152  1
  O  O352  1  0.73826975  0.37842176  0.74787468  1
  O  O353  1  0.75650803  0.88256931  0.24036321  1
  O  O354  1  0.73985400  0.87629055  0.75650968  1
  O  O355  1  0.26382237  0.11387774  0.24552180  1
  O  O356  1  0.25665782  0.12036261  0.75999588  1
  O  O357  1  0.24963727  0.61619907  0.25705723  1
  O  O358  1  0.25769381  0.61733815  0.74766496  1
  O  O359  1  0.75950315  0.11894179  0.25605255  1
  O  O360  1  0.75941185  0.13143207  0.76288809  1
  O  O361  1  0.76415087  0.61828201  0.24567231  1
  O  O362  1  0.75690161  0.62282435  0.75754655  1
  O  O363  1  0.38352299  0.11051382  0.36713399  1
  O  O364  1  0.36195495  0.12159292  0.86870748  1
  O  O365  1  0.37050376  0.61505837  0.37444718  1
  O  O366  1  0.38138046  0.63072901  0.86435979  1
  O  O367  1  0.87102765  0.11412700  0.36874378  1
  O  O368  1  0.86652678  0.12276486  0.86709022  1
  O  O369  1  0.88156751  0.61675493  0.36643445  1
  O  O370  1  0.87173926  0.62010583  0.86319089  1
  O  O371  1  0.12968414  0.37534807  0.13718211  1
  O  O372  1  0.12272247  0.37147239  0.63748598  1
  O  O373  1  0.13725662  0.88207812  0.12231303  1
  O  O374  1  0.13319006  0.88056253  0.63033914  1
  O  O375  1  0.62645978  0.38979992  0.12894848  1
  O  O376  1  0.62219824  0.38218751  0.63385836  1
  O  O377  1  0.63557305  0.88192058  0.12542903  1
  O  O378  1  0.62346694  0.88817040  0.63440541  1
  O  O379  1  0.11827832  0.25322311  0.25460905  1
  O  O380  1  0.12046376  0.26036005  0.75620920  1
  O  O381  1  0.11158281  0.74265058  0.25827971  1
  O  O382  1  0.12194818  0.76093050  0.75677804  1
  O  O383  1  0.61733510  0.24935324  0.25669935  1
  O  O384  1  0.62757126  0.26368045  0.74828669  1
  O  O385  1  0.62010036  0.74678027  0.26384358  1
  O  O386  1  0.62482123  0.76878970  0.74118593  1
  O  O387  1  0.38032680  0.24133178  0.24708833  1
  O  O388  1  0.37038051  0.23005790  0.75015703  1
  O  O389  1  0.38305530  0.75088740  0.24230887  1
  O  O390  1  0.37926845  0.74560307  0.74250518  1
  O  O391  1  0.87998117  0.24345108  0.24583424  1
  O  O392  1  0.88424230  0.24361257  0.74885692  1
  O  O393  1  0.88268218  0.74305704  0.24789336  1
  O  O394  1  0.87792340  0.74452610  0.74127329  1
  O  O395  1  0.38442657  0.49937951  0.49396691  1
  O  O396  1  0.37391152  0.50682117  1.00111693  1
  O  O397  1  0.37635273  0.99543097  0.49211305  1
  O  O398  1  0.38117035  0.98993418  1.00240328  1
  O  O399  1  0.87794231  0.49472454  0.49504824  1
  O  O400  1  0.88194120  0.49693089  0.99426255  1
  O  O401  1  0.88836501  1.00368320  0.49196458  1
  O  O402  1  0.88167772  0.99107621  1.00184762  1
  O  O403  1  0.11577687  0.00151141  0.01061632  1
  O  O404  1  0.11322171  -0.00235667  0.50751988  1
  O  O405  1  0.10981692  0.50135104  -0.00164896  1
  O  O406  1  0.11630564  0.50777885  0.49119696  1
  O  O407  1  0.61606498  -0.00348740  0.01443519  1
  O  O408  1  0.62695994  0.00319011  0.51126793  1
  O  O409  1  0.63509575  0.49994398  0.00985849  1
  O  O410  1  0.61255469  0.49603972  0.50587152  1
  O  O411  1  0.36656014  0.36430771  0.12234612  1
  O  O412  1  0.38969161  0.37007164  0.62174095  1
  O  O413  1  0.36753363  0.87133266  0.12048066  1
  O  O414  1  0.37175719  0.87197006  0.62307458  1
  O  O415  1  0.87202005  0.36178062  0.11964241  1
  O  O416  1  0.87124547  0.37278087  0.61352600  1
  O  O417  1  0.86503239  0.86951150  0.12122623  1
  O  O418  1  0.87595140  0.86481660  0.63071221  1
  O  O419  1  0.12225078  0.13665421  0.36995294  1
  O  O420  1  0.13519273  0.13021864  0.87478234  1
  O  O421  1  0.12854602  0.63513003  0.38326310  1
  O  O422  1  0.11788179  0.64212055  0.87088677  1
  O  O423  1  0.63049247  0.12892896  0.38040189  1
  O  O424  1  0.63710918  0.12494841  0.86680081  1
  O  O425  1  0.61901520  0.63517972  0.37754229  1
  O  O426  1  0.63489409  0.61789137  0.86640535  1
