# generated using pymatgen
data_V85Zn86O256
_symmetry_space_group_name_H-M   'P 1'
_cell_length_a   16.92447001
_cell_length_b   16.92910391
_cell_length_c   16.93007812
_cell_angle_alpha   90.02761820
_cell_angle_beta   90.05380320
_cell_angle_gamma   89.90622255
_symmetry_Int_Tables_number   1
_chemical_formula_structural   V85Zn86O256
_chemical_formula_sum   'V85 Zn86 O256'
_cell_volume   4850.73095167
_cell_formula_units_Z   1
loop_
 _symmetry_equiv_pos_site_id
 _symmetry_equiv_pos_as_xyz
  1  'x, y, z'
loop_
 _atom_site_type_symbol
 _atom_site_label
 _atom_site_symmetry_multiplicity
 _atom_site_fract_x
 _atom_site_fract_y
 _atom_site_fract_z
 _atom_site_occupancy
  V  V0  1  0.00086883  0.34253289  0.87375968  1
  V  V1  1  0.62419766  0.87553383  0.75130121  1
  V  V2  1  0.49855386  0.74900126  0.74968629  1
  V  V3  1  0.00701706  0.86601185  0.37876022  1
  V  V4  1  0.37319693  0.62317956  0.74679686  1
  V  V5  1  0.50273440  0.75006907  0.25325997  1
  V  V6  1  0.87895999  0.37710942  0.00184781  1
  V  V7  1  0.62355551  0.13295924  0.49445441  1
  V  V8  1  0.62414469  0.00227672  0.62642266  1
  V  V9  1  0.87316850  0.74908235  0.62023106  1
  V  V10  1  0.74792730  -0.00165719  0.25299078  1
  V  V11  1  0.38338093  0.24910233  0.12646501  1
  V  V12  1  0.37678349  0.12842045  0.75037154  1
  V  V13  1  0.51530708  0.61857889  0.62310407  1
  V  V14  1  0.75770647  0.37787311  0.12909432  1
  V  V15  1  0.90368215  0.21652528  0.10140846  1
  V  V16  1  0.87166121  0.48857641  0.37247472  1
  V  V17  1  0.74695217  0.87104519  0.61897287  1
  V  V18  1  0.24580706  0.49810515  0.74830320  1
  V  V19  1  0.75272148  0.12217008  0.87469794  1
  V  V20  1  0.37261398  0.49888109  0.87620520  1
  V  V21  1  0.37693307  0.61758003  0.26153196  1
  V  V22  1  0.92454086  0.08252183  0.21340247  1
  V  V23  1  0.50169513  0.25381589  0.75070609  1
  V  V24  1  0.50050370  0.50023334  -0.00044985  1
  V  V25  1  0.37362856  0.12001582  0.23863263  1
  V  V26  1  0.24183347  0.25193016  0.00808474  1
  V  V27  1  0.49784149  0.00530032  0.00800631  1
  V  V28  1  0.37201534  0.87617880  0.00050695  1
  V  V29  1  0.50346527  0.36939730  0.37459017  1
  V  V30  1  -0.00169639  0.48720875  0.49087880  1
  V  V31  1  0.24721941  0.00137346  0.74860941  1
  V  V32  1  0.12202727  0.50252527  0.62182440  1
  V  V33  1  0.24615862  0.75165377  0.00272847  1
  V  V34  1  0.01521283  0.74181964  0.25276794  1
  V  V35  1  -0.00243667  0.12455450  0.62760967  1
  V  V36  1  -0.00645575  0.26261519  0.26140014  1
  V  V37  1  0.51368267  0.50164274  0.49600024  1
  V  V38  1  0.88160647  0.88313841  -0.00904471  1
  V  V39  1  0.36753739  0.37929385  0.48965815  1
  V  V40  1  0.50070459  0.12661546  0.62545956  1
  V  V41  1  0.62393702  0.74908018  0.87319227  1
  V  V42  1  0.37436755  0.74902111  0.12626973  1
  V  V43  1  -0.00159158  0.75368556  0.75685437  1
  V  V44  1  0.63136426  0.49948673  0.13260050  1
  V  V45  1  0.24626738  0.88808313  0.12800837  1
  V  V46  1  0.74875572  0.12591570  0.37254943  1
  V  V47  1  0.13327063  0.49297145  0.12380225  1
  V  V48  1  0.37422558  0.74931216  0.61917980  1
  V  V49  1  0.49827993  0.87600592  0.87545342  1
  V  V50  1  0.62203069  0.12683251  0.00659858  1
  V  V51  1  0.75723060  0.00093741  0.75239179  1
  V  V52  1  0.13364504  0.13512985  0.50557569  1
  V  V53  1  0.75215767  0.62181529  0.87385878  1
  V  V54  1  0.87594410  0.00129277  0.38081270  1
  V  V55  1  0.75045752  0.25200992  0.00080873  1
  V  V56  1  0.13489996  0.37352465  0.25649176  1
  V  V57  1  0.49391670  0.00011376  0.50023831  1
  V  V58  1  0.25005124  0.36822755  0.62218300  1
  V  V59  1  0.24374036  0.74501930  0.49587729  1
  V  V60  1  0.88178772  0.49702244  0.87045000  1
  V  V61  1  0.74957898  0.87439366  0.12481247  1
  V  V62  1  0.63046565  0.38141125  0.74398276  1
  V  V63  1  0.87007391  0.62470678  0.25130417  1
  V  V64  1  0.87422795  0.87305136  0.50090839  1
  V  V65  1  0.62404724  0.87367448  0.25166065  1
  V  V66  1  0.49471820  0.87555818  0.38014702  1
  V  V67  1  0.50115359  0.62463633  0.12595528  1
  V  V68  1  0.12268505  0.87833178  0.74870172  1
  V  V69  1  0.87653879  0.25734234  0.62833129  1
  V  V70  1  0.87336226  0.62414545  0.74745057  1
  V  V71  1  0.62809104  0.36532978  0.25157008  1
  V  V72  1  0.62665130  0.62300653  0.00038938  1
  V  V73  1  0.01212571  -0.00101697  0.50550770  1
  V  V74  1  0.24141751  0.13718046  0.87810098  1
  V  V75  1  0.75272940  0.75025538  -0.00070883  1
  V  V76  1  0.24412763  0.62566290  0.87603887  1
  V  V77  1  0.13140279  0.88755352  0.25193249  1
  V  V78  1  0.36631650  0.00321507  0.37500951  1
  V  V79  1  0.75590072  0.25618858  0.49496368  1
  V  V80  1  0.74846077  0.63145083  0.38648053  1
  V  V81  1  0.11915887  0.36204436  0.75366281  1
  V  V82  1  0.37293795  0.00371688  0.87937948  1
  V  V83  1  0.37326820  0.37500382  0.00650961  1
  V  V84  1  0.25139552  0.87679305  0.62139566  1
  Zn  Zn85  1  0.12277126  0.62477234  0.00456291  1
  Zn  Zn86  1  0.37271465  0.25121586  0.61891911  1
  Zn  Zn87  1  0.50153946  0.37712985  0.87332841  1
  Zn  Zn88  1  0.00528889  0.50042664  -0.00088003  1
  Zn  Zn89  1  0.04578835  0.06716944  0.06948375  1
  Zn  Zn90  1  0.62466450  0.25310498  0.87538310  1
  Zn  Zn91  1  0.74510143  0.50658591  0.73748333  1
  Zn  Zn92  1  0.00232825  0.62139977  0.12471905  1
  Zn  Zn93  1  0.12762768  0.25950255  0.38413015  1
  Zn  Zn94  1  0.00018120  0.62431700  0.62230321  1
  Zn  Zn95  1  0.11990365  0.75731759  0.87901897  1
  Zn  Zn96  1  0.24222940  0.61986891  0.37180571  1
  Zn  Zn97  1  0.87958115  0.74581283  0.12422925  1
  Zn  Zn98  1  0.26138915  0.48893032  0.25353425  1
  Zn  Zn99  1  0.25185669  0.13506851  0.37554077  1
  Zn  Zn100  1  0.00186940  0.91813234  0.88391635  1
  Zn  Zn101  1  0.62751598  0.74861716  0.39038403  1
  Zn  Zn102  1  0.50624965  0.24176104  0.25052089  1
  Zn  Zn103  1  0.61965167  0.00407174  0.12933277  1
  Zn  Zn104  1  0.11535157  0.62826507  0.48502672  1
  Zn  Zn105  1  0.88030946  0.12634407  0.75216313  1
  Zn  Zn106  1  0.74928657  0.38246368  0.61312200  1
  Zn  Zn107  1  0.18678300  0.18704065  0.19317478  1
  Zn  Zn108  1  0.18635201  0.18436945  0.68394166  1
  Zn  Zn109  1  0.18861611  0.68420591  0.18758298  1
  Zn  Zn110  1  0.18472723  0.68876589  0.68689936  1
  Zn  Zn111  1  0.69843810  0.18788472  0.18381499  1
  Zn  Zn112  1  0.68883281  0.19229643  0.68490791  1
  Zn  Zn113  1  0.68945529  0.68730948  0.19094256  1
  Zn  Zn114  1  0.68892551  0.68650913  0.56557223  1
  Zn  Zn115  1  0.31161200  0.30513016  0.31623951  1
  Zn  Zn116  1  0.31437598  0.31528211  0.81156919  1
  Zn  Zn117  1  0.31472623  0.81248387  0.31350802  1
  Zn  Zn118  1  0.31062016  0.81172426  0.81205516  1
  Zn  Zn119  1  0.81423195  0.30493259  0.30566241  1
  Zn  Zn120  1  0.81253079  0.31012953  0.81278552  1
  Zn  Zn121  1  0.81656686  0.80776785  0.31383455  1
  Zn  Zn122  1  0.81278574  0.81339158  0.81173695  1
  Zn  Zn123  1  0.19025742  0.44488162  0.43158943  1
  Zn  Zn124  1  0.18510027  0.42998303  0.93577428  1
  Zn  Zn125  1  0.18788607  0.93345795  0.43981499  1
  Zn  Zn126  1  0.17822963  0.94442176  0.93842160  1
  Zn  Zn127  1  0.69008682  0.44156198  0.43073224  1
  Zn  Zn128  1  0.68843497  0.43705088  0.93272011  1
  Zn  Zn129  1  0.68136037  0.93823568  0.43931386  1
  Zn  Zn130  1  0.68675372  0.93946693  0.93856169  1
  Zn  Zn131  1  0.20736512  0.06625030  0.06467790  1
  Zn  Zn132  1  0.31486098  0.06123199  0.56497843  1
  Zn  Zn133  1  0.30974172  0.56260962  0.06739805  1
  Zn  Zn134  1  0.31566221  0.55803247  0.55867703  1
  Zn  Zn135  1  0.81222953  0.05966995  0.05987937  1
  Zn  Zn136  1  0.81286196  0.06403152  0.56300217  1
  Zn  Zn137  1  0.81583282  0.56062006  0.06309715  1
  Zn  Zn138  1  0.81953965  0.55402134  0.56028379  1
  Zn  Zn139  1  0.44289799  0.43434377  0.18623210  1
  Zn  Zn140  1  0.43772468  0.43854139  0.68238251  1
  Zn  Zn141  1  0.43184037  0.93816964  0.18954001  1
  Zn  Zn142  1  0.43290428  0.93758666  0.68798341  1
  Zn  Zn143  1  0.94365784  0.44182700  0.18857160  1
  Zn  Zn144  1  0.94092654  0.43380431  0.68807097  1
  Zn  Zn145  1  0.93653374  0.91478655  0.18890395  1
  Zn  Zn146  1  0.93767438  0.93787965  0.68699813  1
  Zn  Zn147  1  0.06872605  0.06128587  0.32381980  1
  Zn  Zn148  1  0.06906869  0.06823636  0.80666298  1
  Zn  Zn149  1  0.06574133  0.55851843  0.31344687  1
  Zn  Zn150  1  0.06104810  0.56117673  0.81014346  1
  Zn  Zn151  1  0.55893480  0.06370795  0.31237960  1
  Zn  Zn152  1  0.56608803  0.06524216  0.81725760  1
  Zn  Zn153  1  0.56538397  0.55723490  0.31581790  1
  Zn  Zn154  1  0.56161731  0.56233898  0.81041407  1
  Zn  Zn155  1  0.43375553  0.19263033  0.43523183  1
  Zn  Zn156  1  0.43619980  0.18882261  0.93795311  1
  Zn  Zn157  1  0.44172548  0.68806516  0.44263812  1
  Zn  Zn158  1  0.43373277  0.68577875  0.93758725  1
  Zn  Zn159  1  0.93773036  0.18630727  0.43855162  1
  Zn  Zn160  1  0.95878954  0.13154243  0.92327932  1
  Zn  Zn161  1  0.93913822  0.68174916  0.43836033  1
  Zn  Zn162  1  0.93893916  0.68554591  0.93922005  1
  Zn  Zn163  1  0.06496280  0.31528572  0.06527155  1
  Zn  Zn164  1  0.05907281  0.31382268  0.56840671  1
  Zn  Zn165  1  0.06281968  0.81580677  0.06775465  1
  Zn  Zn166  1  0.06421914  0.81183663  0.56913370  1
  Zn  Zn167  1  0.56269204  0.31512357  0.06331532  1
  Zn  Zn168  1  0.56180039  0.31373008  0.56235647  1
  Zn  Zn169  1  0.56290827  0.81390232  0.06275266  1
  Zn  Zn170  1  0.55662468  0.81499251  0.56362576  1
  O  O171  1  0.13028612  0.12963785  0.11791409  1
  O  O172  1  0.11492402  0.12641458  0.61461759  1
  O  O173  1  0.12517410  0.61013381  0.12723481  1
  O  O174  1  0.12370258  0.61049609  0.62710755  1
  O  O175  1  0.63407858  0.12206101  0.11128504  1
  O  O176  1  0.61986540  0.11994158  0.61851735  1
  O  O177  1  0.62290946  0.61812545  0.12195764  1
  O  O178  1  0.61365256  0.62875692  0.63299398  1
  O  O179  1  0.38353320  0.37507460  0.38371923  1
  O  O180  1  0.37810262  0.38399919  0.88369741  1
  O  O181  1  0.38796907  0.88486749  0.36717237  1
  O  O182  1  0.37669941  0.88293570  0.87959201  1
  O  O183  1  0.86632495  0.39028138  0.36425095  1
  O  O184  1  0.88309490  0.37792703  0.87910328  1
  O  O185  1  0.88122597  0.88143974  0.38194748  1
  O  O186  1  0.87735738  0.87370199  0.88717434  1
  O  O187  1  0.26454231  -0.00062284  0.38485255  1
  O  O188  1  0.25643253  0.01219102  0.87105266  1
  O  O189  1  0.25498870  0.50606257  0.36543621  1
  O  O190  1  0.25336826  0.50619705  0.87077263  1
  O  O191  1  0.75736093  0.00147313  0.37316118  1
  O  O192  1  0.74198609  0.00806473  0.86469631  1
  O  O193  1  0.76519537  0.51270947  0.37887522  1
  O  O194  1  0.76299921  0.50545078  0.87160376  1
  O  O195  1  0.23894806  0.50281305  0.13531227  1
  O  O196  1  0.24217800  0.49226066  0.62851190  1
  O  O197  1  0.26559972  0.98552068  0.12397519  1
  O  O198  1  0.26122367  0.98871525  0.63680297  1
  O  O199  1  0.74253672  0.49066345  0.11883634  1
  O  O200  1  0.75587874  0.49404836  0.62590013  1
  O  O201  1  0.74858332  0.98614723  0.13095009  1
  O  O202  1  0.74291580  0.99487486  0.63166448  1
  O  O203  1  0.00675759  0.36567043  0.25058715  1
  O  O204  1  0.00609803  0.37152245  0.76199277  1
  O  O205  1  0.01216177  0.86521267  0.25938189  1
  O  O206  1  0.00582188  0.87368582  0.75469860  1
  O  O207  1  0.50969308  0.37287500  0.25696977  1
  O  O208  1  0.50776926  0.36962580  0.74894891  1
  O  O209  1  0.50374121  0.86773224  0.25511590  1
  O  O210  1  0.50244500  0.87122406  0.75646608  1
  O  O211  1  0.48382870  0.12829487  0.25727551  1
  O  O212  1  0.49729449  0.13133209  0.74659628  1
  O  O213  1  0.49578615  0.63071268  0.24772790  1
  O  O214  1  0.49288469  0.62843767  0.74303426  1
  O  O215  1  1.00154916  0.13503511  0.26060201  1
  O  O216  1  0.99976720  0.12248251  0.73177645  1
  O  O217  1  0.99097132  0.63043900  0.25193317  1
  O  O218  1  0.98957536  0.63291630  0.74742639  1
  O  O219  1  0.37290713  0.25797425  0.00568499  1
  O  O220  1  0.38523645  0.27265012  0.50410686  1
  O  O221  1  0.36470729  0.75505397  0.00402063  1
  O  O222  1  0.36785092  0.74673432  0.51382086  1
  O  O223  1  0.86865413  0.26479363  0.00412032  1
  O  O224  1  0.86489556  0.24229547  0.50946671  1
  O  O225  1  0.86278813  0.75467168  -0.00045680  1
  O  O226  1  0.88339668  0.75629127  0.51300103  1
  O  O227  1  0.11789935  0.23826400  0.50307971  1
  O  O228  1  0.14303425  0.25893873  1.00220072  1
  O  O229  1  0.13947839  0.74601451  0.51008446  1
  O  O230  1  0.13531977  0.75136632  0.99970498  1
  O  O231  1  0.63221442  0.23722511  0.50578785  1
  O  O232  1  0.63272098  0.24513742  1.00110789  1
  O  O233  1  0.61938050  0.74738448  0.50265853  1
  O  O234  1  0.63458392  0.74489283  0.99539456  1
  O  O235  1  0.48783855  0.25284518  0.12399065  1
  O  O236  1  0.50046808  0.24398692  0.63592098  1
  O  O237  1  0.49675405  0.74520440  0.13258001  1
  O  O238  1  0.49025580  0.74342644  0.63124901  1
  O  O239  1  0.99472777  0.25559255  0.13463867  1
  O  O240  1  0.98377772  0.24177067  0.61755609  1
  O  O241  1  0.99925730  0.74697475  0.13802108  1
  O  O242  1  0.99179993  0.75125201  0.63826053  1
  O  O243  1  0.00136642  0.25077740  0.36482460  1
  O  O244  1  -0.00629780  0.24427877  0.88135166  1
  O  O245  1  -0.00621067  0.76133417  0.37112500  1
  O  O246  1  -0.00061323  0.74772185  0.86214666  1
  O  O247  1  0.50325857  0.26521341  0.37502610  1
  O  O248  1  0.50015158  0.25076494  0.86152723  1
  O  O249  1  0.50098315  0.75776189  0.37017490  1
  O  O250  1  0.50192129  0.75455983  0.87143647  1
  O  O251  1  0.23532644  0.12131697  0.50884689  1
  O  O252  1  0.25765596  0.13950317  0.98618495  1
  O  O253  1  0.25018323  0.63693121  0.50228767  1
  O  O254  1  0.24925084  0.63388375  0.99345371  1
  O  O255  1  0.74275797  0.12755207  0.49032569  1
  O  O256  1  0.74616415  0.13187383  0.99469320  1
  O  O257  1  0.75717681  0.62688314  0.49066103  1
  O  O258  1  0.74766158  0.63197622  0.99505981  1
  O  O259  1  0.26088237  0.36148997  -0.00766793  1
  O  O260  1  0.26082615  0.38308876  0.50555995  1
  O  O261  1  0.25346796  0.86914639  0.00582560  1
  O  O262  1  0.24473919  0.86411437  0.51461168  1
  O  O263  1  0.75574933  0.36965460  0.00594109  1
  O  O264  1  0.74143032  0.35920270  0.49356082  1
  O  O265  1  0.75338777  0.86785530  0.00535464  1
  O  O266  1  0.75312942  0.88270871  0.51290697  1
  O  O267  1  0.12291824  0.48520969  0.24201205  1
  O  O268  1  0.12845323  0.49247580  0.74259538  1
  O  O269  1  0.12407737  0.98653127  0.25531744  1
  O  O270  1  0.14001334  0.99582446  0.75079667  1
  O  O271  1  0.62250421  0.49153788  0.23652559  1
  O  O272  1  0.62557270  0.48590579  0.75434659  1
  O  O273  1  0.62896259  0.99171743  0.24917486  1
  O  O274  1  0.62901440  0.99409535  0.74505143  1
  O  O275  1  0.37877764  0.01176876  0.25898903  1
  O  O276  1  0.36745690  0.00456553  0.76139820  1
  O  O277  1  0.38103234  0.51505260  0.24204325  1
  O  O278  1  0.36732499  0.50399923  0.75504031  1
  O  O279  1  0.87005174  -0.00495339  0.26103396  1
  O  O280  1  0.86023222  0.00279033  0.74525941  1
  O  O281  1  0.88332244  0.51331652  0.26194094  1
  O  O282  1  0.87752380  0.50751794  0.75498564  1
  O  O283  1  0.12361010  0.37803506  0.36040621  1
  O  O284  1  0.11121247  0.37431754  0.86671135  1
  O  O285  1  0.11923224  0.87480688  0.36619125  1
  O  O286  1  0.11831164  0.87827085  0.86432254  1
  O  O287  1  0.62065198  0.38208386  0.36008137  1
  O  O288  1  0.62094958  0.37263455  0.86451306  1
  O  O289  1  0.61386670  0.87363639  0.36887358  1
  O  O290  1  0.61836736  0.86986319  0.87246157  1
  O  O291  1  0.37535460  0.13141138  0.13785922  1
  O  O292  1  0.38225851  0.12867417  0.63190631  1
  O  O293  1  0.38380139  0.63177848  0.13054642  1
  O  O294  1  0.37821804  0.63077824  0.63160030  1
  O  O295  1  0.84939112  0.12719675  0.14867079  1
  O  O296  1  0.88114821  0.13221073  0.62563566  1
  O  O297  1  0.87584037  0.62418472  0.13803206  1
  O  O298  1  0.87561152  0.63336821  0.63192986  1
  O  O299  1  0.26319116  0.24657745  0.11092184  1
  O  O300  1  0.24968355  0.26464381  0.62711976  1
  O  O301  1  0.25524258  0.75496902  0.11758102  1
  O  O302  1  0.25641782  0.75482516  0.62103006  1
  O  O303  1  0.76337635  0.25599841  0.11255997  1
  O  O304  1  0.75977125  0.25154846  0.61321305  1
  O  O305  1  0.74896445  0.75818025  0.11733034  1
  O  O306  1  0.75923233  0.76009824  0.62620315  1
  O  O307  1  0.24177461  0.24884553  0.38034639  1
  O  O308  1  0.26014175  0.24141707  0.88272366  1
  O  O309  1  0.25984536  0.75171459  0.39501892  1
  O  O310  1  0.24767241  0.74307559  0.88334118  1
  O  O311  1  0.75925718  0.23643525  0.37981487  1
  O  O312  1  0.74804201  0.24661719  0.88800897  1
  O  O313  1  0.74951737  0.73686521  0.37497485  1
  O  O314  1  0.74484224  0.74467115  0.88145283  1
  O  O315  1  -0.04865512  0.13724889  0.03710540  1
  O  O316  1  0.00716988  0.11625363  0.50593832  1
  O  O317  1  0.00457032  0.62130723  0.00418449  1
  O  O318  1  0.00044301  0.61290541  0.50486314  1
  O  O319  1  0.50865584  0.11667236  -0.00633652  1
  O  O320  1  0.50642545  0.12201580  0.50360419  1
  O  O321  1  0.50613798  0.62166804  0.00582090  1
  O  O322  1  0.49576513  0.61039486  0.50772486  1
  O  O323  1  0.49862861  0.38419523  0.49434333  1
  O  O324  1  0.49303122  0.38319466  0.99685929  1
  O  O325  1  0.50088430  0.88710095  0.49209097  1
  O  O326  1  0.49276100  0.88034440  0.99403434  1
  O  O327  1  1.00309621  0.38832042  0.49991374  1
  O  O328  1  0.99337596  0.37397427  0.99002670  1
  O  O329  1  0.99958584  0.87964670  0.49634257  1
  O  O330  1  0.98628836  0.87044695  0.99823312  1
  O  O331  1  0.50307929  0.49218780  0.38789174  1
  O  O332  1  0.48941235  0.50446550  0.88234606  1
  O  O333  1  0.49409056  0.99382141  0.38345143  1
  O  O334  1  0.49256134  0.99546111  0.88073645  1
  O  O335  1  0.98926351  0.50067067  0.38363754  1
  O  O336  1  0.98853834  0.49902909  0.87683147  1
  O  O337  1  0.99347675  0.98893060  0.38376818  1
  O  O338  1  0.99834247  1.03138420  0.88350065  1
  O  O339  1  -0.02366341  0.01431052  0.14920883  1
  O  O340  1  -0.00724240  0.00764258  0.61410892  1
  O  O341  1  0.01475519  0.50047987  0.12071209  1
  O  O342  1  0.00545684  0.49855080  0.61508566  1
  O  O343  1  0.49831557  -0.00633943  0.11102755  1
  O  O344  1  0.50201848  0.00484994  0.61930667  1
  O  O345  1  0.51026615  0.50533334  0.11794121  1
  O  O346  1  0.49941013  0.50846009  0.61440719  1
  O  O347  1  0.23814644  0.37026714  0.24793345  1
  O  O348  1  0.24404953  0.38142300  0.74372456  1
  O  O349  1  0.23843280  0.86801671  0.24526899  1
  O  O350  1  0.24352518  0.88212608  0.74672419  1
  O  O351  1  0.74606854  0.36839579  0.23545466  1
  O  O352  1  0.73668875  0.37490088  0.75171110  1
  O  O353  1  0.74669804  0.87600221  0.24401729  1
  O  O354  1  0.74479547  0.88162820  0.74211100  1
  O  O355  1  0.26788256  0.13045479  0.25545116  1
  O  O356  1  0.25636336  0.12046199  0.75564000  1
  O  O357  1  0.27157304  0.63349838  0.25046777  1
  O  O358  1  0.25277427  0.62019993  0.75705962  1
  O  O359  1  0.73916955  0.11520733  0.26474707  1
  O  O360  1  0.74286524  0.11635725  0.75680194  1
  O  O361  1  0.76538961  0.62954297  0.25721955  1
  O  O362  1  0.76587172  0.62558001  0.75934125  1
  O  O363  1  0.37312812  0.11754731  0.37296417  1
  O  O364  1  0.37024746  0.11867805  0.86864826  1
  O  O365  1  0.38053797  0.62908502  0.36206814  1
  O  O366  1  0.36257297  0.61962769  0.86997962  1
  O  O367  1  0.86957942  0.10918221  0.37624505  1
  O  O368  1  0.85616895  0.13194427  0.86871266  1
  O  O369  1  0.86661586  0.62179084  0.36770044  1
  O  O370  1  0.87226491  0.61674272  0.86922319  1
  O  O371  1  0.12489790  0.38579506  0.13514318  1
  O  O372  1  0.12959070  0.38435343  0.63058956  1
  O  O373  1  0.13223927  0.87414286  0.14092576  1
  O  O374  1  0.13457065  0.87293564  0.64021303  1
  O  O375  1  0.63454682  0.38199355  0.12804133  1
  O  O376  1  0.62790751  0.36892209  0.64027622  1
  O  O377  1  0.63266368  0.87599629  0.13204102  1
  O  O378  1  0.63030882  0.88071955  0.63133738  1
  O  O379  1  0.11379969  0.26277468  0.24954089  1
  O  O380  1  0.12871956  0.26319709  0.74416894  1
  O  O381  1  0.11729510  0.75462743  0.24907725  1
  O  O382  1  0.11668517  0.75915927  0.75263160  1
  O  O383  1  0.62505644  0.26093013  0.23808107  1
  O  O384  1  0.61857992  0.25855921  0.75235199  1
  O  O385  1  0.61394961  0.75337809  0.25230000  1
  O  O386  1  0.61390650  0.75985414  0.76006491  1
  O  O387  1  0.37953153  0.24484135  0.24116561  1
  O  O388  1  0.38361794  0.24653749  0.74623983  1
  O  O389  1  0.38774585  0.74441252  0.24666550  1
  O  O390  1  0.37858168  0.74256877  0.74438466  1
  O  O391  1  0.89155407  0.24824746  0.23989416  1
  O  O392  1  0.86487171  0.24489485  0.73255613  1
  O  O393  1  0.88522064  0.73879215  0.24977452  1
  O  O394  1  0.87932296  0.74582514  0.74226066  1
  O  O395  1  0.38691299  0.48387121  0.50427639  1
  O  O396  1  0.37693359  0.49379344  0.99823997  1
  O  O397  1  0.38749536  1.00593777  0.49378982  1
  O  O398  1  0.38173564  0.99570664  0.98752428  1
  O  O399  1  0.88738191  0.49947613  0.48482828  1
  O  O400  1  0.87528009  0.48929691  0.99090086  1
  O  O401  1  0.88201793  0.99281422  0.49556384  1
  O  O402  1  0.86841095  0.98166104  1.00022107  1
  O  O403  1  0.12461406  0.00377472  0.01357597  1
  O  O404  1  0.11551771  0.00491003  0.49868394  1
  O  O405  1  0.12992656  0.49723600  0.01231840  1
  O  O406  1  0.11470553  0.50111301  0.50491424  1
  O  O407  1  0.61501695  0.00743563  0.00138868  1
  O  O408  1  0.61423070  0.00880294  0.50696149  1
  O  O409  1  0.62200046  0.50606910  0.00555436  1
  O  O410  1  0.61322115  0.49657976  0.49975395  1
  O  O411  1  0.37781360  0.36981631  0.11377139  1
  O  O412  1  0.36476932  0.37527724  0.61774162  1
  O  O413  1  0.36918045  0.86646046  0.12100914  1
  O  O414  1  0.36386893  0.86230418  0.63427910  1
  O  O415  1  0.87051121  0.38284207  0.11632374  1
  O  O416  1  0.87409763  0.36080432  0.62597328  1
  O  O417  1  0.86538249  0.86612114  0.11385087  1
  O  O418  1  0.86656127  0.86907130  0.62117837  1
  O  O419  1  0.12914150  0.12579859  0.39406397  1
  O  O420  1  0.14350503  0.13398471  0.86839500  1
  O  O421  1  0.12764742  0.62972506  0.37181038  1
  O  O422  1  0.13593676  0.62564980  0.87549699  1
  O  O423  1  0.63333153  0.11700645  0.38552695  1
  O  O424  1  0.63432846  0.12963902  0.88746376  1
  O  O425  1  0.64600560  0.62324655  0.36670266  1
  O  O426  1  0.63118997  0.62917638  0.87949660  1
