# generated using pymatgen
data_V85Zn86O256
_symmetry_space_group_name_H-M   'P 1'
_cell_length_a   16.95578640
_cell_length_b   16.97912908
_cell_length_c   16.95915257
_cell_angle_alpha   90.04975296
_cell_angle_beta   90.00818788
_cell_angle_gamma   89.99873743
_symmetry_Int_Tables_number   1
_chemical_formula_structural   V85Zn86O256
_chemical_formula_sum   'V85 Zn86 O256'
_cell_volume   4882.44462033
_cell_formula_units_Z   1
loop_
 _symmetry_equiv_pos_site_id
 _symmetry_equiv_pos_as_xyz
  1  'x, y, z'
loop_
 _atom_site_type_symbol
 _atom_site_label
 _atom_site_symmetry_multiplicity
 _atom_site_fract_x
 _atom_site_fract_y
 _atom_site_fract_z
 _atom_site_occupancy
  V  V0  1  0.76029205  0.50240149  0.74993926  1
  V  V1  1  0.62134480  0.11782072  0.49505853  1
  V  V2  1  0.49897525  0.25076922  0.75342354  1
  V  V3  1  0.74943589  0.75291156  0.01304459  1
  V  V4  1  0.50123899  0.25375644  0.24799763  1
  V  V5  1  0.62437927  0.25365049  0.37175021  1
  V  V6  1  0.00142504  0.36317110  0.87239784  1
  V  V7  1  0.32234632  -0.05903596  0.81615096  1
  V  V8  1  0.24429883  0.74680809  0.00232350  1
  V  V9  1  0.12543089  0.00082364  0.12625118  1
  V  V10  1  0.75649732  0.62454789  0.87458997  1
  V  V11  1  0.62306483  0.37629024  0.75485359  1
  V  V12  1  0.87257306  0.37391329  0.00207857  1
  V  V13  1  0.24859279  0.25205393  -0.00454371  1
  V  V14  1  0.61948928  0.12280171  -0.01039592  1
  V  V15  1  0.87983754  0.61728942  0.24098177  1
  V  V16  1  0.50193812  0.88752627  0.87800758  1
  V  V17  1  0.37600937  0.50259472  0.87741188  1
  V  V18  1  0.37364998  0.62808597  0.75180795  1
  V  V19  1  0.37478247  0.12844485  0.25159848  1
  V  V20  1  0.00711988  0.50028192  0.49946226  1
  V  V21  1  0.86528972  0.24541918  0.12387514  1
  V  V22  1  0.23990490  0.13285578  0.37421554  1
  V  V23  1  0.12177492  0.50817177  0.12239339  1
  V  V24  1  0.50243546  0.37900767  0.37012231  1
  V  V25  1  0.50404998  0.49991557  0.00636771  1
  V  V26  1  0.62576273  0.62239720  0.00527449  1
  V  V27  1  -0.00077256  0.25107690  0.25168706  1
  V  V28  1  0.49856623  0.11420066  0.12283823  1
  V  V29  1  0.50253082  0.75470810  0.25303956  1
  V  V30  1  0.74043297  0.24901353  -0.01829392  1
  V  V31  1  0.12775835  0.37530044  0.24672575  1
  V  V32  1  -0.00191473  0.12844383  0.12376363  1
  V  V33  1  0.13865111  -0.00985629  0.62026708  1
  V  V34  1  0.35766961  0.50587060  0.37092390  1
  V  V35  1  0.01153614  0.37190440  0.37431474  1
  V  V36  1  0.75193080  0.75099265  0.50682470  1
  V  V37  1  0.37854526  0.88684002  0.00283598  1
  V  V38  1  0.50315742  0.88240233  0.38093614  1
  V  V39  1  0.49825962  0.12262473  0.61829006  1
  V  V40  1  0.13383404  0.74470233  0.37575422  1
  V  V41  1  0.87086828  0.87984690  0.49862747  1
  V  V42  1  0.87137533  0.87599555  0.00579131  1
  V  V43  1  0.62579810  0.74966742  0.87605462  1
  V  V44  1  0.36527691  0.62425342  0.25806037  1
  V  V45  1  0.00415004  0.12363392  0.63664751  1
  V  V46  1  0.36773908  0.12240792  0.75372216  1
  V  V47  1  -0.00001451  -0.00183737  -0.00972891  1
  V  V48  1  0.49850668  0.74949282  0.75090381  1
  V  V49  1  0.00380704  0.74080285  0.24504361  1
  V  V50  1  0.50372866  0.62079543  0.12998941  1
  V  V51  1  0.62329756  0.49887646  0.62370554  1
  V  V52  1  0.62694478  0.75440773  0.37799804  1
  V  V53  1  0.13392429  0.62243546  0.49888685  1
  V  V54  1  0.75372285  0.12686494  0.36725184  1
  V  V55  1  0.75319825  0.62019189  0.37694693  1
  V  V56  1  0.37427980  0.25241093  0.12521282  1
  V  V57  1  0.12514176  0.12749660  -0.00199107  1
  V  V58  1  0.36759088  0.75708934  0.62877084  1
  V  V59  1  0.64918186  0.03384718  0.65852024  1
  V  V60  1  0.80651845  0.92765028  0.68111410  1
  V  V61  1  0.87824075  0.37106122  0.49676903  1
  V  V62  1  0.81598381  -0.04537069  0.31784141  1
  V  V63  1  0.37367305  0.37568735  0.00151161  1
  V  V64  1  0.24048493  0.25520660  0.49723150  1
  V  V65  1  0.36849047  0.25486187  0.62530679  1
  V  V66  1  0.24977433  0.00282206  0.25279022  1
  V  V67  1  0.87406465  0.74012719  0.63574673  1
  V  V68  1  0.00235958  0.50863932  0.00263059  1
  V  V69  1  0.50062731  0.37452916  0.87590082  1
  V  V70  1  0.37710482  0.75084369  0.12447390  1
  V  V71  1  0.64542525  -0.00117501  0.12376642  1
  V  V72  1  0.00123911  0.87857956  0.37432631  1
  V  V73  1  0.24449897  0.62650928  0.88227482  1
  V  V74  1  0.36744255  0.37860739  0.50185423  1
  V  V75  1  0.37150197  0.87918434  0.50393047  1
  V  V76  1  0.00382129  0.61910698  0.63250496  1
  V  V77  1  0.62620336  0.87293980  0.73936733  1
  V  V78  1  0.73972477  0.49290861  0.24320387  1
  V  V79  1  0.75334270  0.37682554  0.62329469  1
  V  V80  1  0.12597295  0.87409573  0.25128854  1
  V  V81  1  0.37935790  0.00532804  0.38201333  1
  V  V82  1  0.25023337  0.38309416  0.12363495  1
  V  V83  1  0.49987080  0.50242381  0.49804535  1
  V  V84  1  0.87847033  0.24343009  0.63728644  1
  Zn  Zn85  1  0.24860956  0.75495685  0.50190043  1
  Zn  Zn86  1  0.25492985  0.11645443  0.87541782  1
  Zn  Zn87  1  0.25237642  0.87600102  0.12660803  1
  Zn  Zn88  1  0.87909823  0.49983921  0.87323518  1
  Zn  Zn89  1  0.87008011  -0.00420802  0.85532790  1
  Zn  Zn90  1  0.87289333  0.12131114  0.25054107  1
  Zn  Zn91  1  -0.00306861  0.00614170  0.49411977  1
  Zn  Zn92  1  0.88027359  0.74630541  0.12363647  1
  Zn  Zn93  1  0.50101573  0.62776553  0.62393574  1
  Zn  Zn94  1  0.64027239  0.88138126  0.24603392  1
  Zn  Zn95  1  0.00278489  0.86351838  0.87522871  1
  Zn  Zn96  1  0.14308385  0.36888118  0.73204169  1
  Zn  Zn97  1  0.73233294  0.37261577  0.12374526  1
  Zn  Zn98  1  0.12688044  0.74976218  0.87269654  1
  Zn  Zn99  1  0.74562197  0.11084894  0.83882211  1
  Zn  Zn100  1  0.87648166  0.49566502  0.37195199  1
  Zn  Zn101  1  0.24957534  0.49285418  0.73482602  1
  Zn  Zn102  1  0.62643047  0.62659453  0.50214524  1
  Zn  Zn103  1  0.11945551  0.12724037  0.49834750  1
  Zn  Zn104  1  0.11697020  0.24124162  0.86049032  1
  Zn  Zn105  1  0.74954446  0.25091710  0.49710708  1
  Zn  Zn106  1  0.00952547  0.74456350  0.75354057  1
  Zn  Zn107  1  0.18621613  0.19254726  0.18557540  1
  Zn  Zn108  1  0.18674185  0.18787254  0.68649292  1
  Zn  Zn109  1  0.18962602  0.68759739  0.18703140  1
  Zn  Zn110  1  0.18940056  0.68321553  0.68900055  1
  Zn  Zn111  1  0.68489198  0.18557739  0.18507663  1
  Zn  Zn112  1  0.68744456  0.20329672  0.68366557  1
  Zn  Zn113  1  0.68701752  0.68492001  0.19279078  1
  Zn  Zn114  1  0.68756418  0.68367437  0.68875171  1
  Zn  Zn115  1  0.31127593  0.31965714  0.31292887  1
  Zn  Zn116  1  0.30844981  0.31325984  0.81256000  1
  Zn  Zn117  1  0.31423937  0.81610798  0.31352463  1
  Zn  Zn118  1  0.14395156  0.87099251  0.75280473  1
  Zn  Zn119  1  0.81377932  0.31302910  0.31183686  1
  Zn  Zn120  1  0.81231752  0.31582850  0.81423390  1
  Zn  Zn121  1  0.81772368  0.79202402  0.31531520  1
  Zn  Zn122  1  0.82060183  0.80761587  0.82408283  1
  Zn  Zn123  1  0.18554414  0.44152582  0.56874746  1
  Zn  Zn124  1  0.17287224  0.44881732  0.91036853  1
  Zn  Zn125  1  0.18799337  0.93984853  0.43879681  1
  Zn  Zn126  1  0.18580901  0.92938529  0.94229868  1
  Zn  Zn127  1  0.68824331  0.43711221  0.43605236  1
  Zn  Zn128  1  0.68713879  0.43899849  0.93801745  1
  Zn  Zn129  1  0.68163922  0.93852168  0.45093296  1
  Zn  Zn130  1  0.68230239  0.93532338  0.93967737  1
  Zn  Zn131  1  0.31025634  0.06532742  0.06399084  1
  Zn  Zn132  1  0.31139186  0.06786610  0.55970761  1
  Zn  Zn133  1  0.31569776  0.56298439  0.06670168  1
  Zn  Zn134  1  0.31824087  0.57287875  0.55913262  1
  Zn  Zn135  1  0.80434086  0.05828577  -0.00967139  1
  Zn  Zn136  1  0.81642584  0.07158254  0.55110389  1
  Zn  Zn137  1  0.81231651  0.55972305  0.06280566  1
  Zn  Zn138  1  0.81814847  0.55967338  0.56099633  1
  Zn  Zn139  1  0.56177839  0.43918352  0.19063537  1
  Zn  Zn140  1  0.43039471  0.43904377  0.68778577  1
  Zn  Zn141  1  0.43721575  0.93722918  0.19335259  1
  Zn  Zn142  1  0.45114140  0.94011291  0.68127429  1
  Zn  Zn143  1  0.93446539  0.43473284  0.18379472  1
  Zn  Zn144  1  0.94835718  0.43203064  0.68397356  1
  Zn  Zn145  1  0.94298683  0.93237503  0.17849788  1
  Zn  Zn146  1  0.98540093  0.94753627  0.70026117  1
  Zn  Zn147  1  0.05861097  0.06362854  0.31104642  1
  Zn  Zn148  1  0.07192743  0.05862104  0.81050952  1
  Zn  Zn149  1  0.06832849  0.55714663  0.31403862  1
  Zn  Zn150  1  0.06693263  0.55192715  0.81311397  1
  Zn  Zn151  1  0.56591245  0.06199558  0.30487252  1
  Zn  Zn152  1  0.55486652  0.06505776  0.81230375  1
  Zn  Zn153  1  0.56177604  0.57024510  0.31882658  1
  Zn  Zn154  1  0.56422065  0.56295876  0.81486250  1
  Zn  Zn155  1  0.43575046  0.19152157  0.43812670  1
  Zn  Zn156  1  0.43719850  0.18619266  0.93572131  1
  Zn  Zn157  1  0.43721635  0.68984223  0.44020154  1
  Zn  Zn158  1  0.43639810  0.69322666  0.93883944  1
  Zn  Zn159  1  0.93785281  0.18759095  0.43716205  1
  Zn  Zn160  1  0.92860981  0.18313750  0.93243214  1
  Zn  Zn161  1  0.94038636  0.68802778  0.43729785  1
  Zn  Zn162  1  0.93728378  0.68678356  0.93785726  1
  Zn  Zn163  1  0.06033881  0.31508392  0.06063410  1
  Zn  Zn164  1  0.05785111  0.30838048  0.56795344  1
  Zn  Zn165  1  0.06201377  0.81384325  0.06378197  1
  Zn  Zn166  1  0.05836651  0.80898262  0.56298022  1
  Zn  Zn167  1  0.56075765  0.30557805  0.05902570  1
  Zn  Zn168  1  0.55839561  0.31140426  0.55904855  1
  Zn  Zn169  1  0.56410294  0.81680092  0.06370777  1
  Zn  Zn170  1  0.56049624  0.81526495  0.56304031  1
  O  O171  1  0.12030782  0.11935127  0.11874267  1
  O  O172  1  0.11542519  0.11704800  0.62313435  1
  O  O173  1  0.13241699  0.60690071  0.13213483  1
  O  O174  1  0.11113554  0.63097864  0.61384805  1
  O  O175  1  0.61512719  0.11642298  0.11988824  1
  O  O176  1  0.61724638  0.13587983  0.61328268  1
  O  O177  1  0.61544131  0.63295238  0.11833062  1
  O  O178  1  0.62209506  0.61015271  0.62499768  1
  O  O179  1  0.38068835  0.38872229  0.38072180  1
  O  O180  1  0.38094576  0.38407512  0.88145926  1
  O  O181  1  0.38279090  0.88543217  0.38051206  1
  O  O182  1  0.38211172  0.88092402  0.88150190  1
  O  O183  1  0.88349610  0.37431021  0.38226988  1
  O  O184  1  0.88019562  0.37556804  0.88609093  1
  O  O185  1  0.87811698  0.87934313  0.37692713  1
  O  O186  1  0.87917499  0.87945773  0.89092315  1
  O  O187  1  0.25751514  0.01077953  0.37085756  1
  O  O188  1  0.25740864  -0.00413472  0.87498565  1
  O  O189  1  0.26286985  0.49902429  0.37557321  1
  O  O190  1  0.27026817  0.50998464  0.89261862  1
  O  O191  1  0.74870218  0.00711493  0.37914129  1
  O  O192  1  0.75563159  0.00455530  0.89168651  1
  O  O193  1  0.75179849  0.50588452  0.36685071  1
  O  O194  1  0.75079923  0.50598800  0.86656189  1
  O  O195  1  0.24433727  0.48755795  0.11752557  1
  O  O196  1  0.25199475  0.51232911  0.62298952  1
  O  O197  1  0.23868779  1.00236760  0.13228661  1
  O  O198  1  0.23681420  1.00453744  0.62127875  1
  O  O199  1  0.74921755  0.49785195  0.14007410  1
  O  O200  1  0.74364112  0.49613846  0.63032777  1
  O  O201  1  0.74115714  1.00568354  0.11516533  1
  O  O202  1  0.75156784  0.99232110  0.62039559  1
  O  O203  1  0.00195688  0.36842870  0.25375685  1
  O  O204  1  -0.00187050  0.38168501  0.77259292  1
  O  O205  1  0.00703069  0.86650927  0.25557502  1
  O  O206  1  -0.00973170  0.85870834  0.75920034  1
  O  O207  1  0.49877458  0.37392379  0.26410388  1
  O  O208  1  0.50328890  0.37151551  0.75418300  1
  O  O209  1  0.49944002  0.86541884  0.26142731  1
  O  O210  1  0.50871333  0.86728822  0.75701976  1
  O  O211  1  0.49229132  0.13204369  0.24288994  1
  O  O212  1  0.49396154  0.13574903  0.74339117  1
  O  O213  1  0.49758901  0.63857359  0.24753883  1
  O  O214  1  0.49312949  0.63182600  0.75150115  1
  O  O215  1  0.99837711  0.13380406  0.24268876  1
  O  O216  1  0.99998931  0.11687592  0.73599642  1
  O  O217  1  0.99121200  0.62850626  0.25942807  1
  O  O218  1  1.00877820  0.61734166  0.73594395  1
  O  O219  1  0.36792591  0.25330378  0.00520409  1
  O  O220  1  0.36949452  0.26126515  0.50507542  1
  O  O221  1  0.37161682  0.75716700  0.01139003  1
  O  O222  1  0.37641538  0.75978325  0.50980845  1
  O  O223  1  0.86084506  0.25445346  0.00531873  1
  O  O224  1  0.87487927  0.26165483  0.50568173  1
  O  O225  1  0.86587321  0.75388380  0.00254280  1
  O  O226  1  0.86971074  0.75820852  0.50646138  1
  O  O227  1  0.13778918  0.25078769  0.50466716  1
  O  O228  1  0.13045557  0.23665968  1.00458882  1
  O  O229  1  0.12433385  0.74338161  0.49172820  1
  O  O230  1  0.14188999  0.75284035  1.00834051  1
  O  O231  1  0.62336567  0.24267338  0.48726397  1
  O  O232  1  0.62876701  0.23744896  0.99730130  1
  O  O233  1  0.63331605  0.75006538  0.49767062  1
  O  O234  1  0.63047109  0.74220723  0.99724965  1
  O  O235  1  0.49158786  0.24200781  0.13120239  1
  O  O236  1  0.49083112  0.24419281  0.63161637  1
  O  O237  1  0.49376378  0.74595706  0.13360006  1
  O  O238  1  0.49801499  0.75025313  0.63760661  1
  O  O239  1  0.99115534  0.24806703  0.13107571  1
  O  O240  1  0.98793821  0.23642665  0.62438262  1
  O  O241  1  1.00542539  0.74905516  0.14122768  1
  O  O242  1  0.99069029  0.73613675  0.62661947  1
  O  O243  1  -0.00557512  0.25593206  0.35952619  1
  O  O244  1  -0.00592292  0.25857725  0.87892013  1
  O  O245  1  0.00606291  0.75952072  0.36555768  1
  O  O246  1  0.00787695  0.74208057  0.87368262  1
  O  O247  1  0.50304054  0.25968441  0.36956267  1
  O  O248  1  0.49379733  0.25700324  0.86016665  1
  O  O249  1  0.50653116  0.75716042  0.37018151  1
  O  O250  1  0.50569462  0.75441193  0.86440815  1
  O  O251  1  0.24872745  0.13640736  0.48944819  1
  O  O252  1  0.24214169  0.13178913  0.99924885  1
  O  O253  1  0.23677738  0.63295750  0.50031348  1
  O  O254  1  0.26236439  0.63574129  0.99590900  1
  O  O255  1  0.74112196  0.13054006  0.48656112  1
  O  O256  1  0.72889326  0.13868815  1.00923706  1
  O  O257  1  0.75071008  0.62730618  0.49221666  1
  O  O258  1  0.74207082  0.62817705  0.99626307  1
  O  O259  1  0.25406516  0.36756502  0.00474637  1
  O  O260  1  0.26083481  0.37091866  0.50179073  1
  O  O261  1  0.26168214  0.86527110  0.00574517  1
  O  O262  1  0.26727879  0.87420159  0.49318613  1
  O  O263  1  0.75296000  0.36619399  -0.00166882  1
  O  O264  1  0.76007861  0.37648143  0.50605726  1
  O  O265  1  0.75666498  0.86268933  -0.00203101  1
  O  O266  1  0.75761252  0.86251744  0.49351392  1
  O  O267  1  0.11662397  0.48400236  0.23847992  1
  O  O268  1  0.14722753  0.47579321  0.79225147  1
  O  O269  1  0.12928742  0.99684726  0.24365988  1
  O  O270  1  0.11201196  0.98689367  0.72993866  1
  O  O271  1  0.63554229  0.50669240  0.25397654  1
  O  O272  1  0.62756023  0.49164263  0.74207011  1
  O  O273  1  0.62681671  0.99923751  0.23152792  1
  O  O274  1  0.62019319  0.98686998  0.75214291  1
  O  O275  1  0.36843614  0.00696639  0.26038614  1
  O  O276  1  0.38027907  0.00305810  0.75182648  1
  O  O277  1  0.38035483  0.51324857  0.26792609  1
  O  O278  1  0.37795937  0.51091996  0.76124365  1
  O  O279  1  0.87857115  -0.00009631  0.24890652  1
  O  O280  1  0.87040792  -0.01488260  0.73539730  1
  O  O281  1  0.86625579  0.50329177  0.25145394  1
  O  O282  1  0.86223098  0.49149321  0.74852860  1
  O  O283  1  0.11222016  0.37374632  0.36202953  1
  O  O284  1  0.10418190  0.35768810  0.89560212  1
  O  O285  1  0.11903160  0.86825167  0.37103368  1
  O  O286  1  0.12292765  0.87108131  0.87153749  1
  O  O287  1  0.61530922  0.36580721  0.38150240  1
  O  O288  1  0.61538612  0.38276636  0.86482634  1
  O  O289  1  0.61836052  0.87449713  0.37543344  1
  O  O290  1  0.61858144  0.86708407  0.86869847  1
  O  O291  1  0.37898631  0.13301744  0.13006597  1
  O  O292  1  0.38290949  0.13052247  0.62886705  1
  O  O293  1  0.38461605  0.63261765  0.13547369  1
  O  O294  1  0.38171037  0.63695414  0.63437967  1
  O  O295  1  0.88151352  0.13883306  0.12646940  1
  O  O296  1  0.88071777  0.13732937  0.62103917  1
  O  O297  1  0.87215594  0.62471998  0.13779883  1
  O  O298  1  0.88953980  0.63026709  0.61853146  1
  O  O299  1  0.25462710  0.25574022  0.11385022  1
  O  O300  1  0.26433554  0.23993766  0.61305016  1
  O  O301  1  0.26410332  0.75091113  0.12301431  1
  O  O302  1  0.26529724  0.74890949  0.62517630  1
  O  O303  1  0.75378279  0.25319883  0.12137829  1
  O  O304  1  0.76222850  0.25878565  0.61822728  1
  O  O305  1  0.74998182  0.74426954  0.11555824  1
  O  O306  1  0.75621322  0.73662326  0.61278598  1
  O  O307  1  0.25869208  0.24376600  0.38415023  1
  O  O308  1  0.25054224  0.24781217  0.88902601  1
  O  O309  1  0.23679557  0.75609378  0.37557255  1
  O  O310  1  0.25160995  0.73839351  0.89123929  1
  O  O311  1  0.74054008  0.24581997  0.37440369  1
  O  O312  1  0.74933719  0.24268920  0.87979660  1
  O  O313  1  0.74653056  0.73973735  0.38700355  1
  O  O314  1  0.74441374  0.74086789  0.88406385  1
  O  O315  1  0.00751942  0.11920577  0.00471849  1
  O  O316  1  0.00182829  0.12487685  0.50610340  1
  O  O317  1  -0.00982138  0.60665520  0.00313450  1
  O  O318  1  0.00578946  0.61641064  0.50430414  1
  O  O319  1  0.51087258  0.13270257  0.00789743  1
  O  O320  1  0.50579509  0.13046006  0.50720147  1
  O  O321  1  0.50627423  0.62405734  0.01035265  1
  O  O322  1  0.50403758  0.61605923  0.50174055  1
  O  O323  1  0.48967261  0.38141947  0.49014419  1
  O  O324  1  0.49313184  0.37839272  0.99371850  1
  O  O325  1  0.49298509  0.87378566  0.48711697  1
  O  O326  1  0.49016288  0.86395402  0.98832630  1
  O  O327  1  0.99656561  0.37846399  0.49059674  1
  O  O328  1  0.98645698  0.37790060  0.99532872  1
  O  O329  1  0.98829064  0.87157305  0.48967350  1
  O  O330  1  0.99631462  0.88302559  0.99882960  1
  O  O331  1  0.50225677  0.49545537  0.38566780  1
  O  O332  1  0.49204647  0.49768272  0.88331977  1
  O  O333  1  0.49212237  0.99390428  0.36753814  1
  O  O334  1  0.50290863  0.98684061  0.87674984  1
  O  O335  1  0.99789973  0.48993910  0.38241333  1
  O  O336  1  0.99737777  0.49062409  0.88928051  1
  O  O337  1  1.00569053  0.98441490  0.37521979  1
  O  O338  1  0.99790284  1.00307249  0.88558891  1
  O  O339  1  0.01307030  0.00624331  0.11950916  1
  O  O340  1  0.00268051  0.01436343  0.61381661  1
  O  O341  1  0.00708960  0.49032195  0.11195711  1
  O  O342  1  -0.00725479  0.51285581  0.61513705  1
  O  O343  1  0.49470304  0.01342637  0.12969280  1
  O  O344  1  0.52056753  0.02148285  0.63704050  1
  O  O345  1  0.50041254  0.51506854  0.12463820  1
  O  O346  1  0.50515332  0.49837539  0.61352756  1
  O  O347  1  0.23970287  0.36742172  0.23688495  1
  O  O348  1  0.26158580  0.37760843  0.73805617  1
  O  O349  1  0.24449830  0.88386133  0.24907747  1
  O  O350  1  0.26705192  0.88365439  0.75957670  1
  O  O351  1  0.75064060  0.39072309  0.25107059  1
  O  O352  1  0.74035961  0.38115093  0.74486495  1
  O  O353  1  0.75953069  0.88123410  0.26766174  1
  O  O354  1  0.74875630  0.87335373  0.74823895  1
  O  O355  1  0.25514372  0.12543114  0.25572568  1
  O  O356  1  0.26480051  0.12399317  0.74879598  1
  O  O357  1  0.26649318  0.63126759  0.25069353  1
  O  O358  1  0.26396410  0.62395113  0.76119210  1
  O  O359  1  0.74880166  0.12665326  0.26249473  1
  O  O360  1  0.70943052  0.10295365  0.72763410  1
  O  O361  1  0.75713281  0.61579979  0.25729436  1
  O  O362  1  0.74079516  0.61300195  0.76183660  1
  O  O363  1  0.36993751  0.12017897  0.37126373  1
  O  O364  1  0.37486362  0.12536566  0.86265466  1
  O  O365  1  0.37963769  0.61636193  0.37232716  1
  O  O366  1  0.37463904  0.62085809  0.86957935  1
  O  O367  1  0.86297935  0.12780006  0.37168236  1
  O  O368  1  0.85816167  0.11071341  0.88666962  1
  O  O369  1  0.86501813  0.62389076  0.36850787  1
  O  O370  1  0.85979647  0.61976407  0.88038828  1
  O  O371  1  0.13271547  0.38043077  0.12706117  1
  O  O372  1  0.10384838  0.38991260  0.62566444  1
  O  O373  1  0.12757822  0.88482561  0.13269375  1
  O  O374  1  0.12393228  0.88618947  0.61884666  1
  O  O375  1  0.61950955  0.37582471  0.12125956  1
  O  O376  1  0.62864354  0.38395468  0.62776888  1
  O  O377  1  0.62291749  0.89300330  0.12453785  1
  O  O378  1  0.62315601  0.87948264  0.63791416  1
  O  O379  1  0.11238177  0.26296055  0.23945421  1
  O  O380  1  0.12999936  0.25674980  0.75034056  1
  O  O381  1  0.12186943  0.75213719  0.25689314  1
  O  O382  1  0.12909821  0.75501015  0.75040800  1
  O  O383  1  0.61594329  0.24316053  0.26305909  1
  O  O384  1  0.61364316  0.26806599  0.74245763  1
  O  O385  1  0.62090319  0.75876805  0.25707640  1
  O  O386  1  0.62116436  0.75525735  0.75409998  1
  O  O387  1  0.37990921  0.24791989  0.24520760  1
  O  O388  1  0.38055902  0.24229740  0.74145215  1
  O  O389  1  0.38406955  0.74729296  0.24673630  1
  O  O390  1  0.38625106  0.74320720  0.74446890  1
  O  O391  1  0.88024331  0.25068724  0.23982194  1
  O  O392  1  0.86766059  0.25213405  0.73538613  1
  O  O393  1  0.88586622  0.73615166  0.24704320  1
  O  O394  1  0.86579789  0.74533851  0.73672131  1
  O  O395  1  0.38233912  0.49764357  0.49138179  1
  O  O396  1  0.38681312  0.49639944  0.99863256  1
  O  O397  1  0.37415926  0.99755123  0.48945272  1
  O  O398  1  0.37204478  0.98612210  1.01020657  1
  O  O399  1  0.88581038  0.48710215  0.49820854  1
  O  O400  1  0.88052042  0.48923199  1.00171098  1
  O  O401  1  0.87396265  0.98388968  0.50369513  1
  O  O402  1  0.89048379  0.99011190  1.01395129  1
  O  O403  1  0.12146674  0.00792961  0.00745423  1
  O  O404  1  0.12275888  0.00314307  0.50902046  1
  O  O405  1  0.10975101  0.49508520  0.00520887  1
  O  O406  1  0.11389048  0.50831410  0.49602456  1
  O  O407  1  0.62239387  0.01361028  0.01084986  1
  O  O408  1  0.63142108  0.01707166  0.51799099  1
  O  O409  1  0.61987405  0.51476184  -0.00372883  1
  O  O410  1  0.61830871  0.49970655  0.50721727  1
  O  O411  1  0.36492384  0.36608387  0.11712319  1
  O  O412  1  0.38507226  0.36534801  0.61285731  1
  O  O413  1  0.37776248  0.86679547  0.12142044  1
  O  O414  1  0.38854105  0.87094586  0.61479078  1
  O  O415  1  0.86936762  0.36427048  0.11435174  1
  O  O416  1  0.87721912  0.36438613  0.61802275  1
  O  O417  1  0.88134522  0.86451666  0.11195603  1
  O  O418  1  0.86515896  0.86598455  0.62026947  1
  O  O419  1  0.13697210  0.12322631  0.37385269  1
  O  O420  1  0.13159727  0.12446480  0.88321906  1
  O  O421  1  0.11778142  0.63449475  0.38443029  1
  O  O422  1  0.14258895  0.62196152  0.87461853  1
  O  O423  1  0.62748204  0.12948575  0.37976154  1
  O  O424  1  0.62419833  0.11963574  0.88714962  1
  O  O425  1  0.63766784  0.63440139  0.37785167  1
  O  O426  1  0.63122339  0.63073976  0.88457299  1
