# generated using pymatgen
data_V85Zn86O256
_symmetry_space_group_name_H-M   'P 1'
_cell_length_a   16.94943286
_cell_length_b   16.95053871
_cell_length_c   16.94600802
_cell_angle_alpha   90.02673969
_cell_angle_beta   89.90008631
_cell_angle_gamma   89.96578503
_symmetry_Int_Tables_number   1
_chemical_formula_structural   V85Zn86O256
_chemical_formula_sum   'V85 Zn86 O256'
_cell_volume   4868.61349296
_cell_formula_units_Z   1
loop_
 _symmetry_equiv_pos_site_id
 _symmetry_equiv_pos_as_xyz
  1  'x, y, z'
loop_
 _atom_site_type_symbol
 _atom_site_label
 _atom_site_symmetry_multiplicity
 _atom_site_fract_x
 _atom_site_fract_y
 _atom_site_fract_z
 _atom_site_occupancy
  V  V0  1  0.75348311  0.12522311  0.37997209  1
  V  V1  1  0.87452336  -0.00293789  0.87392284  1
  V  V2  1  0.37265352  0.74874590  0.12295849  1
  V  V3  1  0.74862075  0.73608023  0.49496238  1
  V  V4  1  0.87383842  0.12547246  0.25362043  1
  V  V5  1  0.50217962  0.62554823  0.11964055  1
  V  V6  1  0.62053091  -0.00004844  0.62251084  1
  V  V7  1  0.12385920  0.61819804  0.50295818  1
  V  V8  1  0.87985519  0.75016845  0.62450984  1
  V  V9  1  0.62952094  0.73562897  0.37552258  1
  V  V10  1  0.24721992  0.87211804  0.12658327  1
  V  V11  1  0.61087884  0.12764431  0.00609862  1
  V  V12  1  0.50283427  0.74171023  0.74765294  1
  V  V13  1  -0.00211750  -0.00223628  -0.00347847  1
  V  V14  1  0.36630568  0.37435253  0.00093376  1
  V  V15  1  0.61923829  0.12950952  0.50081658  1
  V  V16  1  0.24973162  -0.00101350  0.25543916  1
  V  V17  1  0.87322576  0.35709162  0.50232987  1
  V  V18  1  0.12270152  0.87381682  0.25140699  1
  V  V19  1  -0.00629013  0.75102909  0.76046873  1
  V  V20  1  0.12440104  0.49350567  0.64175060  1
  V  V21  1  0.49422168  -0.00846627  0.50060676  1
  V  V22  1  0.63822448  0.25245573  0.37545105  1
  V  V23  1  0.62512653  0.37776579  0.24821900  1
  V  V24  1  0.00413105  0.12499086  0.12182313  1
  V  V25  1  0.75331368  -0.00197624  0.25407693  1
  V  V26  1  0.62809001  0.74631269  0.89575691  1
  V  V27  1  0.87361880  0.87310300  -0.00419207  1
  V  V28  1  0.14715527  0.02029273  0.64736436  1
  V  V29  1  -0.01458274  0.49413785  0.00063944  1
  V  V30  1  0.74839336  0.87968136  0.12191034  1
  V  V31  1  -0.00896011  0.13009582  0.62340274  1
  V  V32  1  0.12428780  0.75022375  0.37682258  1
  V  V33  1  0.37129528  0.88255875  -0.00499482  1
  V  V34  1  0.75359689  0.37782655  0.11657259  1
  V  V35  1  0.24853089  0.49211732  0.24303787  1
  V  V36  1  0.61853552  0.25547603  0.87634937  1
  V  V37  1  0.13312303  0.25950292  0.87502848  1
  V  V38  1  0.49757085  0.50202656  -0.00375343  1
  V  V39  1  0.36830422  0.62164288  0.74600758  1
  V  V40  1  -0.00316520  0.62367939  0.12871737  1
  V  V41  1  0.86690314  0.74752765  0.12489026  1
  V  V42  1  0.25375974  0.12530256  0.38303710  1
  V  V43  1  0.25175154  0.87096538  0.63066390  1
  V  V44  1  0.86706984  0.13558223  0.74647660  1
  V  V45  1  0.75111876  -0.00102980  0.75009762  1
  V  V46  1  0.25627311  0.38066620  0.64194343  1
  V  V47  1  0.87637544  0.25364751  0.11545187  1
  V  V48  1  -0.00902456  0.74575293  0.25368598  1
  V  V49  1  0.49531522  0.87901673  0.87404282  1
  V  V50  1  0.37047552  0.25255836  0.12520509  1
  V  V51  1  0.00347112  0.25614079  0.74853044  1
  V  V52  1  0.63928429  0.51813160  0.62485907  1
  V  V53  1  0.62533167  0.50235136  0.12114950  1
  V  V54  1  0.87367031  0.87925058  0.49028140  1
  V  V55  1  0.62582360  0.87149967  0.75167070  1
  V  V56  1  0.24759507  0.74422881  -0.00386377  1
  V  V57  1  -0.00046865  0.25249480  0.24877468  1
  V  V58  1  0.12444567  0.25382966  0.37511753  1
  V  V59  1  0.62514000  0.87657286  0.25442841  1
  V  V60  1  0.75089679  0.62225598  0.88556791  1
  V  V61  1  -0.00173889  0.00281072  0.50121841  1
  V  V62  1  0.12039815  0.61982062  -0.00321679  1
  V  V63  1  0.12306566  0.12731388  0.49917870  1
  V  V64  1  0.24920730  0.62339127  0.37426108  1
  V  V65  1  0.11775518  0.87250565  0.75092360  1
  V  V66  1  -0.01180492  0.37221702  0.87869600  1
  V  V67  1  0.37355220  0.62324668  0.24911741  1
  V  V68  1  0.38012557  0.12152509  0.24966587  1
  V  V69  1  0.50874136  0.51436462  0.50747946  1
  V  V70  1  0.74895645  0.12663988  0.88128593  1
  V  V71  1  0.63196724  0.38782735  0.75015069  1
  V  V72  1  0.75231129  0.87457863  0.62172897  1
  V  V73  1  0.17660970  0.08593102  -0.05299294  1
  V  V74  1  0.25275054  0.75394006  0.49876348  1
  V  V75  1  0.36484093  0.49907452  0.86869152  1
  V  V76  1  0.50101379  0.24606860  0.24684209  1
  V  V77  1  0.12400991  0.00160214  0.12577761  1
  V  V78  1  0.49931582  0.75069472  0.25126345  1
  V  V79  1  0.38124802  0.74635156  0.61986214  1
  V  V80  1  0.25833291  0.26394322  0.50050352  1
  V  V81  1  0.50161542  0.37377412  0.38410336  1
  V  V82  1  -0.00006226  0.88214793  0.37583747  1
  V  V83  1  0.75347991  0.35503086  0.62623388  1
  V  V84  1  0.37712409  0.49660983  0.38365646  1
  Zn  Zn85  1  0.24097141  0.61926974  0.86760946  1
  Zn  Zn86  1  -0.00229405  0.49327431  0.49971922  1
  Zn  Zn87  1  0.87166687  0.51300862  0.37789714  1
  Zn  Zn88  1  0.49311056  0.00489759  0.00196756  1
  Zn  Zn89  1  0.29709028  0.05076122  0.80260839  1
  Zn  Zn90  1  0.13097931  0.36775925  0.23999839  1
  Zn  Zn91  1  0.39046424  0.25779084  0.61948556  1
  Zn  Zn92  1  0.49872837  0.37931533  0.87010606  1
  Zn  Zn93  1  -0.00253179  0.61948808  0.62848797  1
  Zn  Zn94  1  0.61504012  0.00958082  0.13124345  1
  Zn  Zn95  1  0.75262914  0.25409532  -0.00254135  1
  Zn  Zn96  1  0.12697971  0.48916989  0.11890998  1
  Zn  Zn97  1  0.41951926  0.13004564  0.73578459  1
  Zn  Zn98  1  0.37128692  -0.00711236  0.38574684  1
  Zn  Zn99  1  -0.00299747  0.37714468  0.37644728  1
  Zn  Zn100  1  0.49134399  0.86929456  0.38053726  1
  Zn  Zn101  1  0.11723826  0.74893867  0.87544843  1
  Zn  Zn102  1  0.75785982  0.51940821  0.25593909  1
  Zn  Zn103  1  0.86294553  0.61553323  0.74520205  1
  Zn  Zn104  1  0.50914097  0.25874402  0.73257498  1
  Zn  Zn105  1  0.86314173  0.49161599  0.86912054  1
  Zn  Zn106  1  0.24439379  0.25106763  0.00719879  1
  Zn  Zn107  1  0.19003605  0.18534202  0.18967180  1
  Zn  Zn108  1  0.18921864  0.19361427  0.68670857  1
  Zn  Zn109  1  0.18197923  0.68285733  0.18649633  1
  Zn  Zn110  1  0.18503351  0.68613366  0.68616810  1
  Zn  Zn111  1  0.69088758  0.19147730  0.18716211  1
  Zn  Zn112  1  0.65520343  0.17768478  0.69867435  1
  Zn  Zn113  1  0.68195649  0.69310313  0.17812503  1
  Zn  Zn114  1  0.69206510  0.68857210  0.69188491  1
  Zn  Zn115  1  0.31742151  0.31323151  0.31601866  1
  Zn  Zn116  1  0.32152048  0.30548638  0.81082643  1
  Zn  Zn117  1  0.31443154  0.81377635  0.31491591  1
  Zn  Zn118  1  0.31149637  0.80868575  0.81019709  1
  Zn  Zn119  1  0.82520870  0.35147928  0.29640738  1
  Zn  Zn120  1  0.80648939  0.31296592  0.80934686  1
  Zn  Zn121  1  0.80936675  0.68317650  0.31265305  1
  Zn  Zn122  1  0.80752028  0.80565413  0.81472588  1
  Zn  Zn123  1  0.18413754  0.43895524  0.43285182  1
  Zn  Zn124  1  0.18352609  0.43518211  0.93540668  1
  Zn  Zn125  1  0.18578588  0.94007147  0.44651185  1
  Zn  Zn126  1  0.18241810  0.92035432  0.93562539  1
  Zn  Zn127  1  0.69613945  0.44240044  0.44425831  1
  Zn  Zn128  1  0.68466687  0.44259041  0.94082031  1
  Zn  Zn129  1  0.68654183  0.93650105  0.43428136  1
  Zn  Zn130  1  0.68408302  0.93942350  0.93931251  1
  Zn  Zn131  1  0.31824820  0.06152309  0.07276737  1
  Zn  Zn132  1  0.32147031  0.05570688  0.62053341  1
  Zn  Zn133  1  0.31355001  0.56226385  0.05958741  1
  Zn  Zn134  1  0.31157288  0.56054312  0.56380514  1
  Zn  Zn135  1  0.81188156  0.06328890  0.06584835  1
  Zn  Zn136  1  0.81048144  0.06366430  0.56200737  1
  Zn  Zn137  1  0.80661650  0.56918135  0.06192850  1
  Zn  Zn138  1  0.81952703  0.55820928  0.55738574  1
  Zn  Zn139  1  0.43652436  0.43512277  0.18844609  1
  Zn  Zn140  1  0.44162070  0.43560086  0.68451669  1
  Zn  Zn141  1  0.43809830  0.93871902  0.18724555  1
  Zn  Zn142  1  0.43761076  0.93008256  0.68728618  1
  Zn  Zn143  1  0.93901559  0.43748719  0.18677511  1
  Zn  Zn144  1  0.93308455  0.43659988  0.68570336  1
  Zn  Zn145  1  0.93414650  0.93726208  0.18904834  1
  Zn  Zn146  1  0.93922565  0.94083324  0.68503127  1
  Zn  Zn147  1  0.06226566  0.06544823  0.31373473  1
  Zn  Zn148  1  0.05238562  0.06464022  0.80971491  1
  Zn  Zn149  1  0.05828925  0.55974145  0.31578843  1
  Zn  Zn150  1  0.04676483  0.56172630  0.81230223  1
  Zn  Zn151  1  0.56297494  0.06134507  0.31830183  1
  Zn  Zn152  1  0.56275321  0.06192602  0.81702430  1
  Zn  Zn153  1  0.56197080  0.56036244  0.30925298  1
  Zn  Zn154  1  0.56394009  0.56632627  0.81225089  1
  Zn  Zn155  1  0.43981056  0.18569773  0.44153046  1
  Zn  Zn156  1  0.42605200  0.18484222  0.92286356  1
  Zn  Zn157  1  0.43814779  0.68684954  0.43561472  1
  Zn  Zn158  1  0.43580518  0.68745635  0.93244617  1
  Zn  Zn159  1  0.93304342  0.19454870  0.43734342  1
  Zn  Zn160  1  0.94132593  0.18367948  0.93497111  1
  Zn  Zn161  1  0.94123890  0.68881243  0.44393861  1
  Zn  Zn162  1  0.93186526  0.68560282  0.94165474  1
  Zn  Zn163  1  0.06700600  0.31350970  0.05807396  1
  Zn  Zn164  1  0.06489464  0.31436782  0.56560270  1
  Zn  Zn165  1  0.05836977  0.81096937  0.06299505  1
  Zn  Zn166  1  0.06504375  0.81499670  0.56611415  1
  Zn  Zn167  1  0.55637098  0.31418221  0.06168864  1
  Zn  Zn168  1  0.57625010  0.32264153  0.55808669  1
  Zn  Zn169  1  0.55619613  0.82322522  0.06785390  1
  Zn  Zn170  1  0.56610301  0.80777715  0.56187323  1
  O  O171  1  0.11250608  0.11897211  0.13173209  1
  O  O172  1  0.11371472  0.12569838  0.61592940  1
  O  O173  1  0.11279239  0.62194019  0.11396082  1
  O  O174  1  0.12910788  0.60975299  0.61914299  1
  O  O175  1  0.62941783  0.12988865  0.10923327  1
  O  O176  1  0.64470381  0.10983336  0.60857210  1
  O  O177  1  0.60909771  0.61904001  0.12565696  1
  O  O178  1  0.62960816  0.61735137  0.62678757  1
  O  O179  1  0.38855711  0.38589146  0.36951682  1
  O  O180  1  0.37846247  0.38258595  0.88124643  1
  O  O181  1  0.37740700  0.87997395  0.37506346  1
  O  O182  1  0.38141700  0.86801798  0.88231928  1
  O  O183  1  0.87806702  0.35425897  0.39578303  1
  O  O184  1  0.88359909  0.37071487  0.87426501  1
  O  O185  1  0.88553972  0.87553549  0.38955551  1
  O  O186  1  0.86501122  0.87850048  0.88916909  1
  O  O187  1  0.24869228  0.00925496  0.37600785  1
  O  O188  1  0.22897454  0.01364279  0.88681187  1
  O  O189  1  0.25923047  0.50488630  0.36950758  1
  O  O190  1  0.26101603  0.50028043  0.87714793  1
  O  O191  1  0.74643636  0.00862798  0.36200421  1
  O  O192  1  0.75345437  0.00686128  0.86994336  1
  O  O193  1  0.75413065  0.49263621  0.36741409  1
  O  O194  1  0.74633877  0.51606635  0.87967667  1
  O  O195  1  0.25148048  0.50677716  0.14063326  1
  O  O196  1  0.24054630  0.48786171  0.62145743  1
  O  O197  1  0.24214497  0.99409682  0.13338031  1
  O  O198  1  0.24151707  0.97846918  0.59943554  1
  O  O199  1  0.74065370  0.49490135  0.12423146  1
  O  O200  1  0.73971216  0.50288452  0.62179700  1
  O  O201  1  0.74476425  0.99777160  0.13605666  1
  O  O202  1  0.74599603  0.98822033  0.62824920  1
  O  O203  1  0.00380176  0.35950004  0.25017514  1
  O  O204  1  -0.00495293  0.35943608  0.75467289  1
  O  O205  1  0.00388612  0.86964807  0.25566922  1
  O  O206  1  0.00580484  0.86461017  0.74100901  1
  O  O207  1  0.50987245  0.36991140  0.25693406  1
  O  O208  1  0.51891636  0.38092447  0.75127615  1
  O  O209  1  0.50815268  0.86645526  0.24983753  1
  O  O210  1  0.50452912  0.86520381  0.75734901  1
  O  O211  1  0.49215691  0.13369220  0.26060326  1
  O  O212  1  0.53896019  0.14016161  0.74223276  1
  O  O213  1  0.49206133  0.62989368  0.24148160  1
  O  O214  1  0.49071890  0.63789670  0.75517824  1
  O  O215  1  0.99289068  0.13216459  0.24488638  1
  O  O216  1  0.98685488  0.13282657  0.74229499  1
  O  O217  1  1.00857613  0.63395433  0.23985714  1
  O  O218  1  0.99580622  0.63927820  0.74477116  1
  O  O219  1  0.37561001  0.25580471  0.00714493  1
  O  O220  1  0.36023129  0.25133599  0.49474511  1
  O  O221  1  0.36495061  0.75348538  0.00408967  1
  O  O222  1  0.36596007  0.74072072  0.50745013  1
  O  O223  1  0.87638028  0.24129641  0.01228478  1
  O  O224  1  0.87521431  0.25713476  0.51405403  1
  O  O225  1  0.88449570  0.76326047  0.01273888  1
  O  O226  1  0.86955299  0.76085271  0.50782844  1
  O  O227  1  0.13214266  0.24671045  0.49238466  1
  O  O228  1  0.12654672  0.24520848  0.98292107  1
  O  O229  1  0.13188633  0.74272115  0.49730917  1
  O  O230  1  0.12904700  0.74242837  0.99900609  1
  O  O231  1  0.62607135  0.24179553  0.48699973  1
  O  O232  1  0.62597977  0.24295754  0.99640520  1
  O  O233  1  0.63683463  0.75596541  0.48793284  1
  O  O234  1  0.61539395  0.75390793  0.99317392  1
  O  O235  1  0.49133242  0.25425805  0.14058672  1
  O  O236  1  0.50602170  0.26336998  0.61717751  1
  O  O237  1  0.49360976  0.74334613  0.12950073  1
  O  O238  1  0.49256719  0.75415074  0.63272063  1
  O  O239  1  0.99666323  0.24146739  0.12845354  1
  O  O240  1  1.00727987  0.23827756  0.63386662  1
  O  O241  1  0.99337875  0.74348435  0.13368282  1
  O  O242  1  0.98827667  0.75215514  0.62817442  1
  O  O243  1  0.00903179  0.24739908  0.36583791  1
  O  O244  1  0.00569097  0.25438018  0.86944946  1
  O  O245  1  0.00646697  0.75969868  0.36979535  1
  O  O246  1  -0.00561398  0.74870306  0.86384206  1
  O  O247  1  0.50606100  0.25800426  0.36771005  1
  O  O248  1  0.51347319  0.25701396  0.87890266  1
  O  O249  1  0.50818701  0.75029116  0.36853751  1
  O  O250  1  0.50883707  0.75660064  0.86898407  1
  O  O251  1  0.24349655  0.13740705  0.48922283  1
  O  O252  1  0.24980713  0.12920343  1.00660445  1
  O  O253  1  0.24094887  0.63093851  0.49512367  1
  O  O254  1  0.23943237  0.62932882  0.99910106  1
  O  O255  1  0.74637873  0.11785407  0.48357112  1
  O  O256  1  0.74733845  0.12559101  0.98961115  1
  O  O257  1  0.75504565  0.63797318  0.50285062  1
  O  O258  1  0.74715237  0.63314354  0.98737593  1
  O  O259  1  0.26222297  0.37267639  -0.00347949  1
  O  O260  1  0.24790434  0.36460450  0.49564611  1
  O  O261  1  0.25298522  0.86418105  0.00567298  1
  O  O262  1  0.24164798  0.85744914  0.50548661  1
  O  O263  1  0.74390849  0.37369244  0.01234185  1
  O  O264  1  0.75833124  0.37084537  0.51616005  1
  O  O265  1  0.75657922  0.88598206  0.01406832  1
  O  O266  1  0.75853186  0.87479635  0.50501087  1
  O  O267  1  0.14161924  0.50089005  0.25188177  1
  O  O268  1  0.12192772  0.50433823  0.73977319  1
  O  O269  1  0.13002878  0.99430776  0.24716238  1
  O  O270  1  0.10915089  0.98997278  0.74242056  1
  O  O271  1  0.62272417  0.49212457  0.23719817  1
  O  O272  1  0.62124005  0.50076776  0.73519976  1
  O  O273  1  0.63032092  0.99409038  0.25048920  1
  O  O274  1  0.63250832  0.99148447  0.74205188  1
  O  O275  1  0.36674922  0.00667277  0.25184323  1
  O  O276  1  0.37118619  0.01054378  0.72408046  1
  O  O277  1  0.36726312  0.50464255  0.25707959  1
  O  O278  1  0.38400707  0.50978583  0.75682492  1
  O  O279  1  0.86666360  0.01259207  0.24559118  1
  O  O280  1  0.86936414  0.00741797  0.75443771  1
  O  O281  1  0.86263969  0.46274644  0.26398428  1
  O  O282  1  0.89176196  0.50717293  0.75983075  1
  O  O283  1  0.12318608  0.36218821  0.36933531  1
  O  O284  1  0.11336197  0.36335622  0.87519926  1
  O  O285  1  0.11979477  0.86984468  0.37230946  1
  O  O286  1  0.12353032  0.86766569  0.85709634  1
  O  O287  1  0.62199501  0.36874323  0.36702068  1
  O  O288  1  0.62737171  0.37337797  0.86874650  1
  O  O289  1  0.62507584  0.86832195  0.36183240  1
  O  O290  1  0.61917450  0.86491614  0.87269464  1
  O  O291  1  0.37565660  0.13171208  0.14267156  1
  O  O292  1  0.38446118  0.14359737  0.62516320  1
  O  O293  1  0.38245097  0.62906550  0.12873112  1
  O  O294  1  0.37069037  0.63481582  0.63148968  1
  O  O295  1  0.88336570  0.13033588  0.13506144  1
  O  O296  1  0.87837133  0.12103557  0.63445489  1
  O  O297  1  0.88684509  0.63537407  0.11707297  1
  O  O298  1  0.87549874  0.63675412  0.62527911  1
  O  O299  1  0.26544132  0.24595706  0.12810371  1
  O  O300  1  0.24526528  0.26621713  0.61304563  1
  O  O301  1  0.25061980  0.75079519  0.11529794  1
  O  O302  1  0.25405562  0.75439336  0.61689397  1
  O  O303  1  0.76012076  0.25669068  0.12087524  1
  O  O304  1  0.74006554  0.25881881  0.63488614  1
  O  O305  1  0.76161888  0.76291805  0.12669141  1
  O  O306  1  0.75638676  0.76095671  0.61767197  1
  O  O307  1  0.24521692  0.24674392  0.38157018  1
  O  O308  1  0.23585709  0.25445855  0.87271861  1
  O  O309  1  0.24465692  0.74274950  0.38050879  1
  O  O310  1  0.24616605  0.74710188  0.88766413  1
  O  O311  1  0.73972448  0.24193945  0.36287354  1
  O  O312  1  0.74112446  0.24329499  0.87855990  1
  O  O313  1  0.74231613  0.75041790  0.38312688  1
  O  O314  1  0.73234870  0.75163982  0.88265922  1
  O  O315  1  -0.00564716  0.11157807  0.01114733  1
  O  O316  1  -0.00073635  0.12177462  0.50465287  1
  O  O317  1  0.00446885  0.61764631  0.00586134  1
  O  O318  1  0.01546800  0.62774867  0.50872127  1
  O  O319  1  0.50893739  0.12714030  -0.00623425  1
  O  O320  1  0.51542277  0.11484311  0.49408485  1
  O  O321  1  0.48824299  0.61324236  0.00761880  1
  O  O322  1  0.50469580  0.61235881  0.49447247  1
  O  O323  1  0.50866972  0.38817666  0.48590051  1
  O  O324  1  0.48980675  0.38847059  0.99905593  1
  O  O325  1  0.50770626  0.88759895  0.49991649  1
  O  O326  1  0.48556788  0.87119636  0.99093740  1
  O  O327  1  0.98659475  0.36969182  0.50404875  1
  O  O328  1  0.99954986  0.38243081  0.99178214  1
  O  O329  1  0.99712610  0.88441843  0.49866130  1
  O  O330  1  0.99057426  0.88888885  1.00761708  1
  O  O331  1  0.49632498  0.49505635  0.38070551  1
  O  O332  1  0.49305934  0.50272003  0.88309426  1
  O  O333  1  0.50030451  0.99575894  0.39030685  1
  O  O334  1  0.50745997  0.98304343  0.87952356  1
  O  O335  1  0.99621155  0.49302536  0.38003597  1
  O  O336  1  1.00003097  0.48743506  0.88567414  1
  O  O337  1  1.00737086  0.99410721  0.38646955  1
  O  O338  1  0.98904321  1.00436525  0.88537445  1
  O  O339  1  0.00518259  0.00602764  0.12109778  1
  O  O340  1  0.00709562  0.01545117  0.62121950  1
  O  O341  1  -0.00050006  0.50727959  0.11941782  1
  O  O342  1  0.01492723  0.49774666  0.62214344  1
  O  O343  1  0.50410111  -0.00910850  0.11498867  1
  O  O344  1  0.51551468  -0.00870657  0.61704902  1
  O  O345  1  0.50257403  0.50760658  0.12020049  1
  O  O346  1  0.50778332  0.49875523  0.61022352  1
  O  O347  1  0.25288522  0.38961933  0.25603810  1
  O  O348  1  0.25153506  0.37232724  0.73968477  1
  O  O349  1  0.24165872  0.87791127  0.24505409  1
  O  O350  1  0.24035741  0.86751753  0.73845695  1
  O  O351  1  0.73103995  0.36549183  0.23315483  1
  O  O352  1  0.74346918  0.37937223  0.73965371  1
  O  O353  1  0.74270968  0.88645652  0.23924269  1
  O  O354  1  0.74616396  0.87772497  0.74190883  1
  O  O355  1  0.25680599  0.11975932  0.26341323  1
  O  O356  1  0.22394281  0.08599184  0.70658189  1
  O  O357  1  0.25455144  0.61865413  0.25550650  1
  O  O358  1  0.26303522  0.63281794  0.75220012  1
  O  O359  1  0.75609574  0.12045527  0.25576320  1
  O  O360  1  0.75057967  0.12048378  0.76116606  1
  O  O361  1  0.75518753  0.62913472  0.23123743  1
  O  O362  1  0.75283498  0.64263706  0.77364983  1
  O  O363  1  0.36833465  0.12146334  0.36933277  1
  O  O364  1  0.37770674  0.12216976  0.84602534  1
  O  O365  1  0.37036644  0.61731561  0.36753738  1
  O  O366  1  0.37046014  0.61712745  0.86621750  1
  O  O367  1  0.86831335  0.13366516  0.36203669  1
  O  O368  1  0.86634630  0.11980206  0.86789265  1
  O  O369  1  0.88452503  0.62810736  0.37261756  1
  O  O370  1  0.85937973  0.62741815  0.87737539  1
  O  O371  1  0.12704891  0.37598483  0.12703604  1
  O  O372  1  0.13605658  0.38726280  0.62334273  1
  O  O373  1  0.12853009  0.88029263  0.12970523  1
  O  O374  1  0.13243446  0.88216417  0.63536087  1
  O  O375  1  0.62573691  0.38295914  0.12924611  1
  O  O376  1  0.64085092  0.38748577  0.63119202  1
  O  O377  1  0.63351472  0.87407264  0.13595092  1
  O  O378  1  0.63551288  0.87976747  0.62928874  1
  O  O379  1  0.11868460  0.24588031  0.25803519  1
  O  O380  1  0.11569739  0.24243165  0.76342124  1
  O  O381  1  0.11605445  0.75522566  0.25499357  1
  O  O382  1  0.11220590  0.75463058  0.74774343  1
  O  O383  1  0.61686731  0.25427368  0.25416505  1
  O  O384  1  0.63034319  0.26846117  0.76332812  1
  O  O385  1  0.61921759  0.75796919  0.25457122  1
  O  O386  1  0.61684478  0.75671941  0.75204440  1
  O  O387  1  0.38171000  0.24399137  0.24706992  1
  O  O388  1  0.39244994  0.25628306  0.74225907  1
  O  O389  1  0.37765734  0.74280788  0.24250659  1
  O  O390  1  0.38271054  0.74222613  0.74307955  1
  O  O391  1  0.88333676  0.24648665  0.23886914  1
  O  O392  1  0.88016364  0.23853257  0.75526753  1
  O  O393  1  0.88764577  0.75388584  0.24152501  1
  O  O394  1  0.87995942  0.75479447  0.74025709  1
  O  O395  1  0.38690302  0.50702442  0.48967805  1
  O  O396  1  0.37794354  0.49344181  0.99243989  1
  O  O397  1  0.39528070  1.00659274  0.50856268  1
  O  O398  1  0.36990848  0.98587379  1.00247006  1
  O  O399  1  0.87877001  0.48260089  0.49904248  1
  O  O400  1  0.88348056  0.50427179  0.99669434  1
  O  O401  1  0.88929812  0.99407675  0.50812312  1
  O  O402  1  0.88028477  0.99404285  0.99708474  1
  O  O403  1  0.11940369  0.00326683  0.00164430  1
  O  O404  1  0.11450099  0.00988134  0.50948724  1
  O  O405  1  0.11754894  0.50726720  0.00017277  1
  O  O406  1  0.12377448  0.50710368  0.50289451  1
  O  O407  1  0.62389945  0.01876805  -0.00031906  1
  O  O408  1  0.62083011  0.00510950  0.50479698  1
  O  O409  1  0.61254528  0.49817837  0.01304428  1
  O  O410  1  0.61834125  0.49950983  0.51212033  1
  O  O411  1  0.37947811  0.36546572  0.11615992  1
  O  O412  1  0.35966069  0.37925884  0.62307286  1
  O  O413  1  0.36531416  0.86669570  0.11813945  1
  O  O414  1  0.36477634  0.85717593  0.62827397  1
  O  O415  1  0.86592928  0.36552489  0.12556026  1
  O  O416  1  0.86058102  0.37327869  0.62175686  1
  O  O417  1  0.86741630  0.87114670  0.11902331  1
  O  O418  1  0.86873137  0.87120458  0.61692289  1
  O  O419  1  0.13215677  0.13508412  0.37879261  1
  O  O420  1  0.11723278  0.13542643  0.87656443  1
  O  O421  1  0.12931244  0.63056896  0.38290914  1
  O  O422  1  0.12146819  0.62637393  0.88452364  1
  O  O423  1  0.63336441  0.13213645  0.38101221  1
  O  O424  1  0.63213674  0.13461262  0.88707676  1
  O  O425  1  0.62437372  0.63658542  0.36579230  1
  O  O426  1  0.62911600  0.64053263  0.87562928  1
