# generated using pymatgen
data_V85Zn86O256
_symmetry_space_group_name_H-M   'P 1'
_cell_length_a   16.92480909
_cell_length_b   16.93342374
_cell_length_c   16.92636717
_cell_angle_alpha   90.12054949
_cell_angle_beta   90.05386263
_cell_angle_gamma   90.04116499
_symmetry_Int_Tables_number   1
_chemical_formula_structural   V85Zn86O256
_chemical_formula_sum   'V85 Zn86 O256'
_cell_volume   4850.99744875
_cell_formula_units_Z   1
loop_
 _symmetry_equiv_pos_site_id
 _symmetry_equiv_pos_as_xyz
  1  'x, y, z'
loop_
 _atom_site_type_symbol
 _atom_site_label
 _atom_site_symmetry_multiplicity
 _atom_site_fract_x
 _atom_site_fract_y
 _atom_site_fract_z
 _atom_site_occupancy
  V  V0  1  0.62444161  0.74587348  0.37639288  1
  V  V1  1  0.61950281  0.12933579  -0.00061417  1
  V  V2  1  0.37577722  0.73764346  0.62673510  1
  V  V3  1  0.00301465  0.49993738  -0.00307707  1
  V  V4  1  0.62898245  -0.00312222  0.12250162  1
  V  V5  1  0.49899997  -0.00109830  0.50301169  1
  V  V6  1  0.85983079  0.87045830  0.00349066  1
  V  V7  1  0.37475771  0.14354285  0.75894213  1
  V  V8  1  0.88243191  0.25312793  0.62763803  1
  V  V9  1  0.36258587  0.76003780  0.11943399  1
  V  V10  1  0.24929843  0.62580146  0.87379544  1
  V  V11  1  0.75081647  0.38347178  0.13453106  1
  V  V12  1  0.18513295  0.79329851  0.93441191  1
  V  V13  1  0.62027270  0.25025294  0.36690664  1
  V  V14  1  0.25473744  0.50316485  0.74984588  1
  V  V15  1  0.87536951  0.87470106  0.49947000  1
  V  V16  1  0.49427411  0.88005865  0.87479948  1
  V  V17  1  -0.00139928  0.87015233  0.36929902  1
  V  V18  1  0.87230503  0.37495048  0.50132606  1
  V  V19  1  0.87853039  0.24962711  0.12319397  1
  V  V20  1  0.63045794  0.48261820  0.62044455  1
  V  V21  1  0.86008083  0.75142122  0.12449033  1
  V  V22  1  0.14092533  0.12507781  0.00408679  1
  V  V23  1  0.75072293  0.87655849  0.62477178  1
  V  V24  1  0.74728210  0.63137722  0.87771628  1
  V  V25  1  0.87620569  0.75053065  0.62495840  1
  V  V26  1  0.00525078  0.74991788  0.75326913  1
  V  V27  1  0.63136615  0.87325733  0.24509419  1
  V  V28  1  0.74440819  0.48945315  0.74925677  1
  V  V29  1  0.87920393  0.12321261  0.24361188  1
  V  V30  1  0.24322562  0.12820386  0.37127155  1
  V  V31  1  0.51603735  0.62467815  0.62279182  1
  V  V32  1  0.12346296  0.13407806  0.49878990  1
  V  V33  1  0.38054491  0.50499061  0.87671502  1
  V  V34  1  -0.00064471  0.50124304  0.49809805  1
  V  V35  1  0.87556779  -0.00113411  0.37367529  1
  V  V36  1  0.50424975  0.37763540  0.85697220  1
  V  V37  1  0.12129587  0.37730094  0.23320581  1
  V  V38  1  0.26124343  0.00560616  0.75878282  1
  V  V39  1  0.13096753  -0.00439015  0.12815239  1
  V  V40  1  0.37477544  0.62336120  0.24748439  1
  V  V41  1  0.12877347  0.00173580  0.62716290  1
  V  V42  1  0.24260771  0.50080225  0.24253756  1
  V  V43  1  -0.00539872  0.00686959  0.01044462  1
  V  V44  1  0.62332121  0.00304743  0.62576059  1
  V  V45  1  0.49088855  0.13817713  0.62712092  1
  V  V46  1  0.00222904  0.00106105  0.50165444  1
  V  V47  1  0.25117498  0.37254028  0.11965134  1
  V  V48  1  0.00224248  0.62843819  0.12761133  1
  V  V49  1  0.38195264  0.13513270  0.25266811  1
  V  V50  1  0.00869742  0.37030739  0.37161798  1
  V  V51  1  0.74719664  0.25408552  0.00061987  1
  V  V52  1  0.87198567  0.49621475  0.36332376  1
  V  V53  1  0.87420931  0.62457123  0.74916221  1
  V  V54  1  0.49655299  0.62452136  0.11192180  1
  V  V55  1  0.11899817  0.74665738  0.37413587  1
  V  V56  1  0.88409499  0.12800911  0.75135249  1
  V  V57  1  0.25756470  0.24967882  0.50133230  1
  V  V58  1  0.50011330  0.87227256  0.37464106  1
  V  V59  1  0.50327742  0.50184309  0.49241724  1
  V  V60  1  0.74424997  0.61772695  0.37371166  1
  V  V61  1  0.87544676  0.62842302  0.24873032  1
  V  V62  1  0.13025107  0.62129608  0.00375670  1
  V  V63  1  -0.00153089  0.86837779  0.88409095  1
  V  V64  1  0.49905332  0.74845468  0.24760871  1
  V  V65  1  0.38914610  0.37765136  -0.00035741  1
  V  V66  1  0.61831505  0.49964173  0.12355927  1
  V  V67  1  0.25640974  0.37180263  0.62637745  1
  V  V68  1  0.74800698  0.12820438  0.87363385  1
  V  V69  1  0.62217781  0.25706437  0.85988083  1
  V  V70  1  0.12677471  0.87420676  0.75219326  1
  V  V71  1  0.11066689  0.37267992  0.75752202  1
  V  V72  1  0.75143743  0.00205324  0.75075542  1
  V  V73  1  0.13100375  0.87080690  0.24874083  1
  V  V74  1  0.37241128  0.87078616  0.50201666  1
  V  V75  1  0.00746388  0.24479086  0.24634202  1
  V  V76  1  0.87568750  0.37750842  -0.00896882  1
  V  V77  1  0.24853914  0.62296982  0.37619103  1
  V  V78  1  0.75117931  0.12283047  0.37416091  1
  V  V79  1  0.75184137  0.25044124  0.50231703  1
  V  V80  1  0.12490933  0.50005567  0.62531641  1
  V  V81  1  0.74398307  0.74341237  0.50113800  1
  V  V82  1  0.37347767  -0.00150085  0.37367512  1
  V  V83  1  0.49041800  0.00061833  -0.00166387  1
  V  V84  1  0.50179502  0.74426805  0.75286315  1
  Zn  Zn85  1  0.62761767  0.62785343  0.00080523  1
  Zn  Zn86  1  0.50566690  0.13179005  0.13430472  1
  Zn  Zn87  1  0.00140472  0.62604262  0.62572697  1
  Zn  Zn88  1  0.11894894  0.24094124  0.86476661  1
  Zn  Zn89  1  0.37815295  0.37426753  0.50097879  1
  Zn  Zn90  1  0.75342919  -0.00613058  0.24479305  1
  Zn  Zn91  1  0.25144074  0.87204528  0.62696136  1
  Zn  Zn92  1  0.25527839  0.25137327  -0.01314599  1
  Zn  Zn93  1  0.87776832  0.49762778  0.87076506  1
  Zn  Zn94  1  0.62438657  0.87494701  0.75262142  1
  Zn  Zn95  1  0.36151989  0.87745323  -0.00190302  1
  Zn  Zn96  1  0.48779784  0.36393301  0.36848597  1
  Zn  Zn97  1  0.38373199  0.25530360  0.12666671  1
  Zn  Zn98  1  0.62287030  0.12604508  0.49971144  1
  Zn  Zn99  1  0.62164390  0.37954221  0.25104417  1
  Zn  Zn100  1  0.12465985  0.62457166  0.50050225  1
  Zn  Zn101  1  0.37367980  0.49631295  0.37501286  1
  Zn  Zn102  1  0.62740305  0.75675665  0.88639138  1
  Zn  Zn103  1  0.25457437  -0.00338047  0.24677931  1
  Zn  Zn104  1  0.00605574  0.12987719  0.63328207  1
  Zn  Zn105  1  0.87456932  -0.00076167  0.87825218  1
  Zn  Zn106  1  0.24799222  0.74659935  0.50299754  1
  Zn  Zn107  1  0.18956570  0.18635537  0.18089820  1
  Zn  Zn108  1  0.19050384  0.19120725  0.69058767  1
  Zn  Zn109  1  0.18369644  0.68907941  0.18885666  1
  Zn  Zn110  1  0.18767200  0.68581012  0.68881668  1
  Zn  Zn111  1  0.69205098  0.18610619  0.18589763  1
  Zn  Zn112  1  0.69136634  0.18689680  0.68283717  1
  Zn  Zn113  1  0.68643036  0.68033625  0.19045393  1
  Zn  Zn114  1  0.68714784  0.68663146  0.69209477  1
  Zn  Zn115  1  0.30500365  0.31288920  0.31672540  1
  Zn  Zn116  1  0.30466997  0.31520035  0.81671464  1
  Zn  Zn117  1  0.31075422  0.80751396  0.31330239  1
  Zn  Zn118  1  0.32083068  0.81742363  0.80496552  1
  Zn  Zn119  1  0.81397016  0.30959917  0.31225846  1
  Zn  Zn120  1  0.81297490  0.31013569  0.81136814  1
  Zn  Zn121  1  0.81220881  0.80652749  0.31077909  1
  Zn  Zn122  1  0.81499166  0.81349509  0.81292782  1
  Zn  Zn123  1  0.18684555  0.43510303  0.43445036  1
  Zn  Zn124  1  0.18791065  0.43849462  0.93810273  1
  Zn  Zn125  1  0.18822125  0.93905747  0.43739640  1
  Zn  Zn126  1  0.18567542  0.95767491  0.93474287  1
  Zn  Zn127  1  0.68756563  0.43487187  0.43864153  1
  Zn  Zn128  1  0.68538531  0.44229259  0.93969159  1
  Zn  Zn129  1  0.68697206  0.93609674  0.43715022  1
  Zn  Zn130  1  0.68052277  0.94041704  0.93435762  1
  Zn  Zn131  1  0.31341310  0.05896067  0.07259657  1
  Zn  Zn132  1  0.31186949  0.06321867  0.56465680  1
  Zn  Zn133  1  0.31197339  0.56044216  0.06049463  1
  Zn  Zn134  1  0.31569163  0.56074597  0.56091321  1
  Zn  Zn135  1  0.80784133  0.06271702  0.06170659  1
  Zn  Zn136  1  0.81588605  0.06601120  0.56371495  1
  Zn  Zn137  1  0.81242646  0.55953001  0.06227933  1
  Zn  Zn138  1  0.81022901  0.56078083  0.56215191  1
  Zn  Zn139  1  0.43945214  0.43650670  0.19068407  1
  Zn  Zn140  1  0.43653993  0.44393913  0.68586948  1
  Zn  Zn141  1  0.44244683  0.94041242  0.18621962  1
  Zn  Zn142  1  0.43771241  0.93448246  0.68732197  1
  Zn  Zn143  1  0.94016401  0.43906611  0.17892957  1
  Zn  Zn144  1  0.93385769  0.43946457  0.68416701  1
  Zn  Zn145  1  0.93843132  0.93135826  0.18672299  1
  Zn  Zn146  1  0.94054592  0.93882851  0.68990962  1
  Zn  Zn147  1  0.06179440  0.05995494  0.31166691  1
  Zn  Zn148  1  0.06321945  0.05638807  0.82081184  1
  Zn  Zn149  1  0.06009667  0.56026769  0.30935284  1
  Zn  Zn150  1  0.06562406  0.56325120  0.81641666  1
  Zn  Zn151  1  0.56368121  0.05949279  0.31430957  1
  Zn  Zn152  1  0.55696007  0.06637112  0.81174734  1
  Zn  Zn153  1  0.56432327  0.55813383  0.30323076  1
  Zn  Zn154  1  0.56375587  0.56181698  0.80866269  1
  Zn  Zn155  1  0.43609971  0.18393643  0.43908366  1
  Zn  Zn156  1  0.43964627  0.19566754  0.93690526  1
  Zn  Zn157  1  0.43797835  0.68209995  0.43930771  1
  Zn  Zn158  1  0.43280264  0.69323686  0.93625736  1
  Zn  Zn159  1  0.94049779  0.18814149  0.43404358  1
  Zn  Zn160  1  0.93924694  0.18810022  0.93258128  1
  Zn  Zn161  1  0.93411352  0.68530088  0.43702922  1
  Zn  Zn162  1  0.93563882  0.68631723  0.94040900  1
  Zn  Zn163  1  0.04510452  0.29405652  0.02710216  1
  Zn  Zn164  1  0.06430096  0.31553986  0.56477422  1
  Zn  Zn165  1  0.05130184  0.81098451  0.07152937  1
  Zn  Zn166  1  0.06375664  0.81325982  0.56186715  1
  Zn  Zn167  1  0.56080488  0.31229639  0.06371581  1
  Zn  Zn168  1  0.56315709  0.31339691  0.55379639  1
  Zn  Zn169  1  0.56194732  0.81041216  0.05996462  1
  Zn  Zn170  1  0.56298952  0.81341725  0.56513137  1
  O  O171  1  0.12655042  0.10936376  0.11766175  1
  O  O172  1  0.12437154  0.11933785  0.61978927  1
  O  O173  1  0.11529874  0.63122171  0.11808151  1
  O  O174  1  0.12293913  0.61255149  0.62236646  1
  O  O175  1  0.62612456  0.12002734  0.11586116  1
  O  O176  1  0.61656657  0.11572952  0.62433760  1
  O  O177  1  0.61418778  0.61751510  0.12647781  1
  O  O178  1  0.61879669  0.61931201  0.62483724  1
  O  O179  1  0.37160270  0.37869222  0.38061836  1
  O  O180  1  0.38634514  0.38249699  0.87820137  1
  O  O181  1  0.38003426  0.87580764  0.38157069  1
  O  O182  1  0.38847399  0.87190962  0.87997861  1
  O  O183  1  0.88279843  0.38065796  0.37792836  1
  O  O184  1  0.87270844  0.37439109  0.88745949  1
  O  O185  1  0.88053995  0.87728310  0.37785162  1
  O  O186  1  0.88161033  0.87654979  0.88450339  1
  O  O187  1  0.25705726  0.01097216  0.37639193  1
  O  O188  1  0.25021231  0.00803108  0.85759558  1
  O  O189  1  0.24664438  0.50921679  0.36391150  1
  O  O190  1  0.25628515  0.50644910  0.86744149  1
  O  O191  1  0.75676195  0.00614324  0.37350171  1
  O  O192  1  0.75022948  0.00791065  0.86545122  1
  O  O193  1  0.75885564  0.50696344  0.38168612  1
  O  O194  1  0.75062546  0.50757691  0.86134345  1
  O  O195  1  0.25303894  0.49122865  0.13605708  1
  O  O196  1  0.24354444  0.49786261  0.63067274  1
  O  O197  1  0.23647837  0.99163177  0.12680958  1
  O  O198  1  0.23958994  0.99854799  0.63068073  1
  O  O199  1  0.74336774  0.49129606  0.12367998  1
  O  O200  1  0.73848402  0.50239544  0.63191789  1
  O  O201  1  0.73472759  1.00183760  0.12672647  1
  O  O202  1  0.74388561  0.99940738  0.63037179  1
  O  O203  1  0.00495395  0.37000895  0.25081799  1
  O  O204  1  0.01219572  0.38275432  0.74568213  1
  O  O205  1  0.00774904  0.87806252  0.26468236  1
  O  O206  1  0.00647691  0.87282437  0.76265311  1
  O  O207  1  0.50767710  0.38379090  0.25936842  1
  O  O208  1  0.49896246  0.37762999  0.75819773  1
  O  O209  1  0.50713850  0.86851142  0.25678035  1
  O  O210  1  0.50154918  0.86928283  0.75717740  1
  O  O211  1  0.48542184  0.12148265  0.25599347  1
  O  O212  1  0.48742071  0.12265739  0.73685707  1
  O  O213  1  0.48965025  0.62861490  0.24245972  1
  O  O214  1  0.50315013  0.63225612  0.73870806  1
  O  O215  1  0.99125426  0.13230116  0.25437767  1
  O  O216  1  0.98820568  0.11776721  0.75575514  1
  O  O217  1  0.98631022  0.61918678  0.24316358  1
  O  O218  1  0.99303041  0.63097590  0.75096134  1
  O  O219  1  0.37181039  0.26260803  0.00065522  1
  O  O220  1  0.36140740  0.24954878  0.49873671  1
  O  O221  1  0.37364376  0.75496145  0.01539159  1
  O  O222  1  0.37459059  0.75541891  0.50656232  1
  O  O223  1  0.86753304  0.25550346  0.00724315  1
  O  O224  1  0.87204856  0.25634451  0.50244134  1
  O  O225  1  0.87424449  0.75593385  0.01307826  1
  O  O226  1  0.86623184  0.75505607  0.50507529  1
  O  O227  1  0.12905560  0.23802297  0.50402097  1
  O  O228  1  0.13937890  0.22828265  1.02506198  1
  O  O229  1  0.12697271  0.74729945  0.48933541  1
  O  O230  1  0.12216693  0.74473659  1.00224336  1
  O  O231  1  0.63703976  0.24616431  0.49204036  1
  O  O232  1  0.62971954  0.24461428  0.99229059  1
  O  O233  1  0.63732492  0.75548620  0.49590619  1
  O  O234  1  0.62194791  0.74092141  0.99891588  1
  O  O235  1  0.49669049  0.24372978  0.12199463  1
  O  O236  1  0.50596908  0.23571154  0.61836807  1
  O  O237  1  0.48963106  0.74192312  0.13234755  1
  O  O238  1  0.49785539  0.74156099  0.62837960  1
  O  O239  1  0.98446594  0.25347032  0.12825602  1
  O  O240  1  0.98728567  0.24773184  0.61829887  1
  O  O241  1  0.98499985  0.73427055  0.12413453  1
  O  O242  1  0.99322152  0.74914462  0.63063829  1
  O  O243  1  -0.00616598  0.25981975  0.36043037  1
  O  O244  1  0.01980447  0.26098480  0.91689890  1
  O  O245  1  0.00553948  0.75774932  0.38163705  1
  O  O246  1  -0.00536386  0.76059054  0.87060267  1
  O  O247  1  0.51731304  0.24584979  0.38401627  1
  O  O248  1  0.50878721  0.26790931  0.87508517  1
  O  O249  1  0.50521276  0.75068902  0.36936878  1
  O  O250  1  0.50033784  0.75514663  0.86641434  1
  O  O251  1  0.24343866  0.13113318  0.49617393  1
  O  O252  1  0.24304937  0.11750029  1.00146273  1
  O  O253  1  0.24744868  0.62325373  0.48928213  1
  O  O254  1  0.23808013  0.62287972  0.99585444  1
  O  O255  1  0.75300543  0.12988967  0.48782342  1
  O  O256  1  0.73875028  0.13041481  0.99336995  1
  O  O257  1  0.75769260  0.63433412  0.48976733  1
  O  O258  1  0.75685599  0.62034617  0.97927449  1
  O  O259  1  0.25664208  0.37714317  0.00777039  1
  O  O260  1  0.24581739  0.36616047  0.50666414  1
  O  O261  1  0.24238484  0.86873911  -0.01645794  1
  O  O262  1  0.26187755  0.87199631  0.50031076  1
  O  O263  1  0.75724868  0.37264668  0.00721052  1
  O  O264  1  0.76423116  0.36533684  0.49287117  1
  O  O265  1  0.76141529  0.88300773  -0.00683630  1
  O  O266  1  0.75643547  0.86808810  0.50520325  1
  O  O267  1  0.13040892  0.49083754  0.24888820  1
  O  O268  1  0.12962685  0.49555256  0.74170763  1
  O  O269  1  0.12485726  0.99077711  0.24371369  1
  O  O270  1  0.13294212  0.99735734  0.74544863  1
  O  O271  1  0.63145182  0.50048811  0.23070913  1
  O  O272  1  0.63744219  0.50162539  0.73736967  1
  O  O273  1  0.62490625  0.99119152  0.24297501  1
  O  O274  1  0.63540527  1.00304540  0.74305953  1
  O  O275  1  0.37415672  0.00485761  0.25831233  1
  O  O276  1  0.36309976  0.00316561  0.74307588  1
  O  O277  1  0.36599534  0.51223773  0.25043530  1
  O  O278  1  0.36563603  0.49860801  0.76106588  1
  O  O279  1  0.87535723  0.00554779  0.25266092  1
  O  O280  1  0.86590326  0.00668792  0.75086287  1
  O  O281  1  0.87802942  0.50288373  0.25969891  1
  O  O282  1  0.86526451  0.50793733  0.74799230  1
  O  O283  1  0.11245171  0.37782156  0.36297627  1
  O  O284  1  0.12370649  0.38591469  0.85761500  1
  O  O285  1  0.11730005  0.86802626  0.37315836  1
  O  O286  1  0.12137516  0.86830040  0.87690366  1
  O  O287  1  0.63156578  0.35732327  0.37350813  1
  O  O288  1  0.61250010  0.37364129  0.87755136  1
  O  O289  1  0.61836391  0.86716023  0.36974419  1
  O  O290  1  0.61287774  0.87357255  0.87148285  1
  O  O291  1  0.37420748  0.12470426  0.14444925  1
  O  O292  1  0.38673518  0.12407635  0.62981354  1
  O  O293  1  0.37846059  0.63067565  0.12977124  1
  O  O294  1  0.38546949  0.63447431  0.62026421  1
  O  O295  1  0.86602640  0.13261627  0.13606932  1
  O  O296  1  0.88091598  0.13174399  0.63400036  1
  O  O297  1  0.87510514  0.63224597  0.13094425  1
  O  O298  1  0.87555289  0.62955585  0.63504181  1
  O  O299  1  0.26035832  0.26521662  0.12873891  1
  O  O300  1  0.24357966  0.26143809  0.61570288  1
  O  O301  1  0.26444467  0.74901954  0.13260442  1
  O  O302  1  0.26025945  0.74949845  0.62461773  1
  O  O303  1  0.75763266  0.25724345  0.11914062  1
  O  O304  1  0.76214276  0.24118884  0.60909978  1
  O  O305  1  0.76087514  0.74357419  0.12782205  1
  O  O306  1  0.75438202  0.75414889  0.61935472  1
  O  O307  1  0.24598509  0.23645701  0.38366026  1
  O  O308  1  0.23229507  0.25595743  0.87646949  1
  O  O309  1  0.24170262  0.73627436  0.37593682  1
  O  O310  1  0.25156932  0.74409696  0.86679359  1
  O  O311  1  0.74747988  0.24073776  0.38234009  1
  O  O312  1  0.74340346  0.24740696  0.88159968  1
  O  O313  1  0.74543936  0.74145082  0.38310209  1
  O  O314  1  0.74690850  0.73535963  0.86289900  1
  O  O315  1  -0.00473536  0.10735698  0.00416900  1
  O  O316  1  0.00787733  0.11856391  0.49913212  1
  O  O317  1  0.00929084  0.62175769  0.00514956  1
  O  O318  1  -0.00120487  0.61124284  0.50004427  1
  O  O319  1  0.51008888  0.12043626  -0.00424241  1
  O  O320  1  0.49904768  0.11680911  0.51121992  1
  O  O321  1  0.49434894  0.62607902  0.01019378  1
  O  O322  1  0.50053787  0.61636594  0.51041165  1
  O  O323  1  0.49869003  0.38504043  0.49276971  1
  O  O324  1  0.49108002  0.37871881  0.99341750  1
  O  O325  1  0.49040699  0.87752840  0.49610443  1
  O  O326  1  0.49853759  0.88606080  0.99358302  1
  O  O327  1  0.99500715  0.38106990  0.49008053  1
  O  O328  1  0.98681562  0.39142399  1.01769793  1
  O  O329  1  0.99472632  0.88100081  0.49203650  1
  O  O330  1  0.99045225  0.87995790  0.99756732  1
  O  O331  1  0.50406415  0.50741659  0.38642295  1
  O  O332  1  0.49373186  0.49199423  0.86893624  1
  O  O333  1  0.49463285  0.99329419  0.38396830  1
  O  O334  1  0.50542588  0.99347888  0.88508212  1
  O  O335  1  0.99185986  0.49240468  0.38008622  1
  O  O336  1  0.99522044  0.50928754  0.89056527  1
  O  O337  1  0.99378298  0.99164335  0.38156298  1
  O  O338  1  0.99864812  0.98663906  0.89122282  1
  O  O339  1  0.00807590  -0.00877093  0.11483334  1
  O  O340  1  0.01236156  0.00205812  0.62169044  1
  O  O341  1  -0.01007224  0.51901638  0.11306698  1
  O  O342  1  0.00636998  0.50053129  0.61470359  1
  O  O343  1  0.51059534  0.00793472  0.11737500  1
  O  O344  1  0.50748498  0.00369267  0.62133258  1
  O  O345  1  0.50958634  0.50844068  0.12559066  1
  O  O346  1  0.51329597  0.50461272  0.61957798  1
  O  O347  1  0.24056315  0.38182995  0.24527163  1
  O  O348  1  0.24200538  0.38737630  0.74198975  1
  O  O349  1  0.23511834  0.87777631  0.26236145  1
  O  O350  1  0.24599517  0.88805105  0.74914660  1
  O  O351  1  0.74719355  0.36747588  0.23738403  1
  O  O352  1  0.75651101  0.39102146  0.75131143  1
  O  O353  1  0.73549030  0.87457558  0.25728257  1
  O  O354  1  0.75063196  0.88505157  0.74382423  1
  O  O355  1  0.25574436  0.12223992  0.25758309  1
  O  O356  1  0.26497220  0.11694972  0.74103831  1
  O  O357  1  0.25307561  0.61839629  0.25368411  1
  O  O358  1  0.24353811  0.61251426  0.75855776  1
  O  O359  1  0.75934672  0.12251501  0.26046320  1
  O  O360  1  0.76001621  0.11851064  0.75241309  1
  O  O361  1  0.76343309  0.62679364  0.26102318  1
  O  O362  1  0.75748387  0.61701003  0.75478764  1
  O  O363  1  0.36755033  0.11975739  0.36796263  1
  O  O364  1  0.38469955  0.13058393  0.85773163  1
  O  O365  1  0.36535790  0.62421962  0.36534349  1
  O  O366  1  0.36088537  0.61909242  0.88253729  1
  O  O367  1  0.87027136  0.11943848  0.36598905  1
  O  O368  1  0.86766126  0.12413271  0.86940080  1
  O  O369  1  0.86951435  0.61684531  0.36768150  1
  O  O370  1  0.86649480  0.62590713  0.86288970  1
  O  O371  1  0.13254130  0.37204883  0.13158377  1
  O  O372  1  0.13156198  0.38614523  0.63082392  1
  O  O373  1  0.11633656  0.87715189  0.13970468  1
  O  O374  1  0.12748550  0.88381498  0.63123167  1
  O  O375  1  0.63202041  0.38574258  0.12190666  1
  O  O376  1  0.62527903  0.38406167  0.62397722  1
  O  O377  1  0.61566013  0.88315507  0.13497622  1
  O  O378  1  0.63132688  0.88793338  0.62663057  1
  O  O379  1  0.11190008  0.25412121  0.23962797  1
  O  O380  1  0.12160081  0.26663096  0.74635546  1
  O  O381  1  0.12470949  0.75590805  0.26423561  1
  O  O382  1  0.11511715  0.75836908  0.74381857  1
  O  O383  1  0.63144542  0.24583112  0.26505913  1
  O  O384  1  0.63480061  0.24773964  0.76100619  1
  O  O385  1  0.61893134  0.75501206  0.25366264  1
  O  O386  1  0.61296013  0.75395403  0.74951042  1
  O  O387  1  0.37187074  0.23690688  0.25622313  1
  O  O388  1  0.36809791  0.24227452  0.74877863  1
  O  O389  1  0.37811047  0.74034192  0.24411568  1
  O  O390  1  0.38953420  0.75372127  0.73794954  1
  O  O391  1  0.88280066  0.24257978  0.24284023  1
  O  O392  1  0.87074288  0.24160152  0.74023415  1
  O  O393  1  0.87438997  0.74239288  0.23836036  1
  O  O394  1  0.88326764  0.74503978  0.74402293  1
  O  O395  1  0.38811308  0.49935881  0.49702654  1
  O  O396  1  0.36924427  0.49274351  0.98465645  1
  O  O397  1  0.37880109  0.99119867  0.49600420  1
  O  O398  1  0.38650233  0.99772526  1.00824251  1
  O  O399  1  0.88079276  0.49203372  0.49380922  1
  O  O400  1  0.87961547  0.49302173  0.99551131  1
  O  O401  1  0.88082682  0.99458559  0.49533577  1
  O  O402  1  0.88238181  0.99272050  1.00466487  1
  O  O403  1  0.11424113  0.00538121  0.00963943  1
  O  O404  1  0.12254476  0.00726423  0.50905034  1
  O  O405  1  0.11714188  0.50948747  -0.00037368  1
  O  O406  1  0.11604125  0.49819633  0.50541137  1
  O  O407  1  0.61788169  0.00923245  0.00567751  1
  O  O408  1  0.61949945  0.00178881  0.50776756  1
  O  O409  1  0.63153585  0.50987775  0.01637542  1
  O  O410  1  0.62219314  0.49601329  0.51266010  1
  O  O411  1  0.36958768  0.38035998  0.11561783  1
  O  O412  1  0.36034966  0.38351279  0.62207843  1
  O  O413  1  0.37702617  0.86343846  0.12623839  1
  O  O414  1  0.37582919  0.86391367  0.61606965  1
  O  O415  1  0.86610356  0.36905264  0.12000905  1
  O  O416  1  0.87836756  0.36781000  0.61263434  1
  O  O417  1  0.87550084  0.86003029  0.12079886  1
  O  O418  1  0.87041985  0.87170885  0.62052180  1
  O  O419  1  0.13218598  0.11638771  0.38533746  1
  O  O420  1  0.11822790  0.12006407  0.90046573  1
  O  O421  1  0.12825189  0.63042383  0.37445447  1
  O  O422  1  0.13841446  0.62614214  0.88493995  1
  O  O423  1  0.63428811  0.13125598  0.37662838  1
  O  O424  1  0.62750672  0.13456398  0.87925919  1
  O  O425  1  0.63715907  0.62896751  0.36677926  1
  O  O426  1  0.63909551  0.62362521  0.87264332  1
