# generated using pymatgen
data_V85Zn86O256
_symmetry_space_group_name_H-M   'P 1'
_cell_length_a   16.95322707
_cell_length_b   16.97997821
_cell_length_c   16.96522476
_cell_angle_alpha   89.94700358
_cell_angle_beta   90.05459469
_cell_angle_gamma   90.06130278
_symmetry_Int_Tables_number   1
_chemical_formula_structural   V85Zn86O256
_chemical_formula_sum   'V85 Zn86 O256'
_cell_volume   4883.69456247
_cell_formula_units_Z   1
loop_
 _symmetry_equiv_pos_site_id
 _symmetry_equiv_pos_as_xyz
  1  'x, y, z'
loop_
 _atom_site_type_symbol
 _atom_site_label
 _atom_site_symmetry_multiplicity
 _atom_site_fract_x
 _atom_site_fract_y
 _atom_site_fract_z
 _atom_site_occupancy
  V  V0  1  0.37323128  -0.00008325  0.37160263  1
  V  V1  1  0.87157184  0.24682248  0.62169041  1
  V  V2  1  0.17090989  0.05796848  0.06893806  1
  V  V3  1  0.25688958  0.74437272  0.00268718  1
  V  V4  1  0.12324939  0.50170815  0.63112424  1
  V  V5  1  0.49600146  0.75107716  0.24281236  1
  V  V6  1  0.87473096  0.87260078  0.51368753  1
  V  V7  1  -0.00491795  0.63934934  0.62867699  1
  V  V8  1  -0.00292104  0.86987086  0.37270289  1
  V  V9  1  0.37380055  0.50189007  0.36822483  1
  V  V10  1  0.61819102  0.37644797  0.75419348  1
  V  V11  1  0.62277132  -0.00806455  0.12874635  1
  V  V12  1  0.37633909  0.37194758  -0.00709837  1
  V  V13  1  0.74520876  -0.00697092  0.25300820  1
  V  V14  1  0.13246711  0.25995795  0.88382208  1
  V  V15  1  0.87793044  0.12405339  0.74682636  1
  V  V16  1  0.25229936  0.63070206  0.37783412  1
  V  V17  1  -0.00282854  0.50523742  0.50038925  1
  V  V18  1  0.49969981  -0.00260734  -0.00343683  1
  V  V19  1  0.62702418  0.12385157  0.00023490  1
  V  V20  1  0.75477950  0.12525301  0.87510015  1
  V  V21  1  0.12072392  0.38627503  0.24281567  1
  V  V22  1  0.87358134  0.00128102  0.37869858  1
  V  V23  1  0.36826998  0.86972163  0.49758952  1
  V  V24  1  0.88542136  0.74721257  0.12859774  1
  V  V25  1  0.87982717  0.62677420  0.25055740  1
  V  V26  1  0.87263318  0.12366599  0.25151476  1
  V  V27  1  0.50281116  0.62655005  0.62852907  1
  V  V28  1  0.01498622  0.12920080  0.61912735  1
  V  V29  1  0.49148248  0.62330996  0.12203317  1
  V  V30  1  0.87712094  0.49714157  0.86602148  1
  V  V31  1  0.49591815  0.12939255  0.63451047  1
  V  V32  1  0.62169097  -0.00302778  0.63641293  1
  V  V33  1  0.50291943  0.87468326  0.36920387  1
  V  V34  1  0.87461006  0.86996118  0.00248401  1
  V  V35  1  0.12614146  0.63383134  0.50089586  1
  V  V36  1  0.87533495  -0.00165052  0.87728162  1
  V  V37  1  0.74900548  0.61923847  0.87016693  1
  V  V38  1  0.25181793  0.86709146  0.12542417  1
  V  V39  1  0.50411402  0.13428547  0.13034253  1
  V  V40  1  0.37669484  0.87179053  -0.00355482  1
  V  V41  1  0.87640138  0.63736847  0.74770509  1
  V  V42  1  0.49689010  0.36611031  0.37101022  1
  V  V43  1  0.62101619  0.36887981  0.24873564  1
  V  V44  1  0.50135066  0.50003519  0.49662818  1
  V  V45  1  0.31096748  0.06871066  0.82215266  1
  V  V46  1  0.00607387  0.36982394  0.37976982  1
  V  V47  1  0.00005082  0.86865018  0.86685483  1
  V  V48  1  0.50389628  0.49460294  -0.00361933  1
  V  V49  1  0.61871645  0.12169221  0.50143643  1
  V  V50  1  0.74963699  0.62434191  0.37362888  1
  V  V51  1  0.74649376  0.24826796  0.49511825  1
  V  V52  1  0.49992254  0.87668324  0.86388038  1
  V  V53  1  0.12285837  0.74547977  0.86752094  1
  V  V54  1  0.12102178  0.87687980  0.24293101  1
  V  V55  1  0.24845921  0.38019987  0.12307632  1
  V  V56  1  0.62646977  0.75359300  0.36769622  1
  V  V57  1  0.87943266  0.37465840  -0.00617433  1
  V  V58  1  0.74893988  0.74698734  0.00078115  1
  V  V59  1  0.12723086  0.75271405  0.37030246  1
  V  V60  1  0.74683078  0.37586783  0.62983883  1
  V  V61  1  0.00396365  0.26705704  0.75460292  1
  V  V62  1  0.74293987  0.86804823  0.63089309  1
  V  V63  1  0.87091397  0.37702508  0.49869540  1
  V  V64  1  0.36631472  0.74867725  0.61987838  1
  V  V65  1  0.75320665  0.25068504  -0.00051819  1
  V  V66  1  0.25269926  0.62214662  0.87399157  1
  V  V67  1  0.24814751  0.49490822  0.75086441  1
  V  V68  1  0.62870803  0.49983577  0.62996280  1
  V  V69  1  0.74537943  0.49979200  0.24686464  1
  V  V70  1  0.74585530  0.37960817  0.12419320  1
  V  V71  1  -0.00239910  -0.00813235  0.00862798  1
  V  V72  1  0.37761323  0.13509330  0.25265966  1
  V  V73  1  -0.00318415  0.12290008  0.12002445  1
  V  V74  1  0.62652844  0.61949502  0.00787666  1
  V  V75  1  0.62003449  0.25160762  0.87407184  1
  V  V76  1  0.87425285  0.25110243  0.12388256  1
  V  V77  1  0.62787017  0.62474729  0.49730856  1
  V  V78  1  0.12694391  0.61920056  0.00945861  1
  V  V79  1  0.36585320  0.37682976  0.50656273  1
  V  V80  1  0.01374891  0.00357780  0.50296324  1
  V  V81  1  0.00666230  0.24845892  0.25243427  1
  V  V82  1  0.74715114  0.87140713  0.12749942  1
  V  V83  1  0.00225722  0.49855081  0.00268822  1
  V  V84  1  0.62420183  0.75254966  0.86785312  1
  Zn  Zn85  1  0.24882298  0.00338074  0.24775909  1
  Zn  Zn86  1  0.75332434  -0.00443609  0.74981134  1
  Zn  Zn87  1  0.22031190  0.23759340  0.50282413  1
  Zn  Zn88  1  0.24199921  0.37325511  0.62991762  1
  Zn  Zn89  1  0.48976198  0.25146651  0.75715953  1
  Zn  Zn90  1  0.75365423  0.74904603  0.50011311  1
  Zn  Zn91  1  0.36108475  0.24199085  0.63282723  1
  Zn  Zn92  1  0.61318194  0.24300566  0.37183129  1
  Zn  Zn93  1  0.22704398  0.13056853  0.37424291  1
  Zn  Zn94  1  0.50079337  -0.00425043  0.50291070  1
  Zn  Zn95  1  0.23914044  0.89109525  0.62718330  1
  Zn  Zn96  1  0.13689731  0.88831496  0.74729446  1
  Zn  Zn97  1  0.00715024  0.61969519  0.13213952  1
  Zn  Zn98  1  0.37671202  0.62517497  0.74964937  1
  Zn  Zn99  1  0.24204916  0.50564960  0.24612111  1
  Zn  Zn100  1  0.37027911  0.62861046  0.24334143  1
  Zn  Zn101  1  0.38054738  0.49684199  0.87053371  1
  Zn  Zn102  1  0.37822320  0.25594383  0.12882098  1
  Zn  Zn103  1  0.87376643  0.49969536  0.37409655  1
  Zn  Zn104  1  0.50349990  0.76131895  0.74042860  1
  Zn  Zn105  1  0.74555937  0.12250996  0.37580173  1
  Zn  Zn106  1  0.24751916  0.24165664  0.00425815  1
  Zn  Zn107  1  0.19313549  0.19731801  0.19651565  1
  Zn  Zn108  1  0.18869194  0.19712196  0.69435081  1
  Zn  Zn109  1  0.18829999  0.69098807  0.19060029  1
  Zn  Zn110  1  0.18883132  0.68819386  0.68929869  1
  Zn  Zn111  1  0.68778060  0.18657127  0.18882404  1
  Zn  Zn112  1  0.68592348  0.18668035  0.68890945  1
  Zn  Zn113  1  0.68629052  0.68744965  0.18804138  1
  Zn  Zn114  1  0.69027907  0.68652450  0.68960583  1
  Zn  Zn115  1  0.30634633  0.31541167  0.31292372  1
  Zn  Zn116  1  0.30965119  0.31036236  0.81218170  1
  Zn  Zn117  1  0.31337595  0.81086623  0.30940343  1
  Zn  Zn118  1  0.31646050  0.81075051  0.80870271  1
  Zn  Zn119  1  0.81700675  0.31217508  0.31355810  1
  Zn  Zn120  1  0.81082089  0.31176238  0.81050204  1
  Zn  Zn121  1  0.81363942  0.81237954  0.31260155  1
  Zn  Zn122  1  0.81275203  0.81136877  0.81358960  1
  Zn  Zn123  1  0.18406168  0.44322436  0.43592789  1
  Zn  Zn124  1  0.18521324  0.43406983  0.93522618  1
  Zn  Zn125  1  0.19158116  0.93644824  0.43449348  1
  Zn  Zn126  1  0.19043662  0.92793706  0.93065153  1
  Zn  Zn127  1  0.68503508  0.43609639  0.43436487  1
  Zn  Zn128  1  0.68937353  0.43879091  0.93594962  1
  Zn  Zn129  1  0.68525739  0.93551497  0.44183047  1
  Zn  Zn130  1  0.68650946  0.93601032  0.93697772  1
  Zn  Zn131  1  0.33350998  0.06184753  0.05922046  1
  Zn  Zn132  1  0.30605273  0.05887155  0.55893805  1
  Zn  Zn133  1  0.31487223  0.55515021  0.06084811  1
  Zn  Zn134  1  0.31167366  0.56336149  0.56075037  1
  Zn  Zn135  1  0.81143646  0.06058858  0.06446026  1
  Zn  Zn136  1  0.80930176  0.05876068  0.56237207  1
  Zn  Zn137  1  0.81488156  0.56039096  0.06178435  1
  Zn  Zn138  1  0.81132552  0.56409445  0.56486566  1
  Zn  Zn139  1  0.43951164  0.44041792  0.18204194  1
  Zn  Zn140  1  0.43800182  0.43988882  0.69025672  1
  Zn  Zn141  1  0.43529720  0.93718027  0.18691261  1
  Zn  Zn142  1  0.40511087  0.95600001  0.68034834  1
  Zn  Zn143  1  0.93384092  0.43885935  0.18610831  1
  Zn  Zn144  1  0.93246099  0.44475394  0.68247495  1
  Zn  Zn145  1  0.93487967  0.93435847  0.19035107  1
  Zn  Zn146  1  0.98760845  0.97246364  0.71821667  1
  Zn  Zn147  1  0.05803305  0.05224288  0.30458348  1
  Zn  Zn148  1  0.14343969  0.07071385  0.81624140  1
  Zn  Zn149  1  0.06072186  0.56281000  0.31714092  1
  Zn  Zn150  1  0.06002207  0.56196163  0.81630280  1
  Zn  Zn151  1  0.56049207  0.06166977  0.31282561  1
  Zn  Zn152  1  0.56198303  0.06206561  0.81306632  1
  Zn  Zn153  1  0.56319890  0.56037648  0.30710224  1
  Zn  Zn154  1  0.56504255  0.56094136  0.81358031  1
  Zn  Zn155  1  0.36900085  0.19330374  0.43717535  1
  Zn  Zn156  1  0.43786453  0.18863038  0.94144349  1
  Zn  Zn157  1  0.44014615  0.68770217  0.43686537  1
  Zn  Zn158  1  0.43910240  0.68829789  0.93607995  1
  Zn  Zn159  1  1.05446535  0.18756971  0.43344438  1
  Zn  Zn160  1  0.98331370  0.15851175  0.90813021  1
  Zn  Zn161  1  0.93676947  0.69162664  0.43761290  1
  Zn  Zn162  1  0.93878040  0.68326225  0.93900469  1
  Zn  Zn163  1  0.06251838  0.31320969  0.06165484  1
  Zn  Zn164  1  0.05769411  0.31954720  0.56913367  1
  Zn  Zn165  1  0.06774126  0.80595965  0.05976717  1
  Zn  Zn166  1  0.06508848  0.81654411  0.56446387  1
  Zn  Zn167  1  0.56520721  0.31509562  0.05984436  1
  Zn  Zn168  1  0.55960353  0.31116608  0.55913428  1
  Zn  Zn169  1  0.56285223  0.80870663  0.05934742  1
  Zn  Zn170  1  0.56260906  0.81161592  0.55457509  1
  O  O171  1  0.11832151  0.12040384  0.13289430  1
  O  O172  1  0.11262846  0.13289036  0.62861111  1
  O  O173  1  0.12578178  0.63004801  0.11399318  1
  O  O174  1  0.11692224  0.62408158  0.61729204  1
  O  O175  1  0.62115476  0.11626877  0.12016634  1
  O  O176  1  0.62358497  0.11432211  0.62107523  1
  O  O177  1  0.62101518  0.62801598  0.11128676  1
  O  O178  1  0.62292471  0.61756896  0.61983844  1
  O  O179  1  0.37951719  0.38582638  0.38274898  1
  O  O180  1  0.37112243  0.37569505  0.89019645  1
  O  O181  1  0.38083921  0.87781931  0.37805462  1
  O  O182  1  0.38425276  0.86449192  0.88863299  1
  O  O183  1  0.88522570  0.37828761  0.38130097  1
  O  O184  1  0.86190219  0.38512123  0.88369528  1
  O  O185  1  0.88038569  0.88285421  0.37885023  1
  O  O186  1  0.87731883  0.87607421  0.88588136  1
  O  O187  1  0.26415051  0.00133246  0.37173324  1
  O  O188  1  0.23803162  0.01228852  0.87414295  1
  O  O189  1  0.25733614  0.50883556  0.37044992  1
  O  O190  1  0.24972600  0.50709923  0.86906261  1
  O  O191  1  0.75378291  -0.00369186  0.36810835  1
  O  O192  1  0.75729728  0.00499412  0.87326078  1
  O  O193  1  0.75142161  0.50641292  0.36782423  1
  O  O194  1  0.75881808  0.51394634  0.88015181  1
  O  O195  1  0.25453280  0.48694063  0.13021400  1
  O  O196  1  0.23964234  0.50710070  0.63327906  1
  O  O197  1  0.24134423  0.99706587  0.11778300  1
  O  O198  1  0.30170102  0.98468522  0.63548732  1
  O  O199  1  0.75429354  0.48998972  0.13252354  1
  O  O200  1  0.73633002  0.49132942  0.61715356  1
  O  O201  1  0.74248837  0.99310424  0.13225321  1
  O  O202  1  0.74144225  0.98764676  0.62710889  1
  O  O203  1  0.00205161  0.36926837  0.25424140  1
  O  O204  1  -0.00612911  0.36396797  0.73524636  1
  O  O205  1  0.00718473  0.87867319  0.25966070  1
  O  O206  1  -0.01423242  0.86535001  0.76818481  1
  O  O207  1  0.51012629  0.38354938  0.25646484  1
  O  O208  1  0.51441934  0.37391168  0.74615171  1
  O  O209  1  0.49583990  0.86594804  0.25813041  1
  O  O210  1  0.48958984  0.88063186  0.76324912  1
  O  O211  1  0.49514518  0.11962253  0.23807646  1
  O  O212  1  0.50739241  0.12901716  0.73857908  1
  O  O213  1  0.50060227  0.62910653  0.23793437  1
  O  O214  1  0.50177483  0.62123821  0.73544333  1
  O  O215  1  0.99231811  0.12908856  0.23826458  1
  O  O216  1  0.98493603  0.14050009  0.73327589  1
  O  O217  1  0.98447772  0.61795748  0.25014095  1
  O  O218  1  0.98622699  0.62133198  0.74324504  1
  O  O219  1  0.37285525  0.26111960  0.00509683  1
  O  O220  1  0.38774085  0.27516631  0.51539272  1
  O  O221  1  0.36428129  0.75338002  -0.00098020  1
  O  O222  1  0.38109788  0.75396227  0.50887992  1
  O  O223  1  0.86759108  0.26073028  0.00620204  1
  O  O224  1  0.86436787  0.25915121  0.51353241  1
  O  O225  1  0.86744696  0.74947017  0.00848104  1
  O  O226  1  0.87240049  0.76890000  0.49377649  1
  O  O227  1  0.11251538  0.26313198  0.49210629  1
  O  O228  1  0.12617243  0.25215626  0.99032964  1
  O  O229  1  0.11855532  0.73970758  0.48841501  1
  O  O230  1  0.13867537  0.73990248  0.99381397  1
  O  O231  1  0.63125963  0.24276260  0.49627889  1
  O  O232  1  0.63318249  0.24507024  0.99392323  1
  O  O233  1  0.62621451  0.74067202  0.48511089  1
  O  O234  1  0.63042783  0.73988606  0.99005969  1
  O  O235  1  0.50398435  0.23686038  0.11947930  1
  O  O236  1  0.51124261  0.23454243  0.62876985  1
  O  O237  1  0.50768192  0.74029558  0.13292010  1
  O  O238  1  0.50348317  0.73879587  0.62289012  1
  O  O239  1  0.99407750  0.24118069  0.12926723  1
  O  O240  1  0.98921981  0.24359408  0.62742458  1
  O  O241  1  0.98807841  0.74457269  0.12108511  1
  O  O242  1  0.99690632  0.73728591  0.61568918  1
  O  O243  1  -0.00921241  0.26005255  0.36309373  1
  O  O244  1  -0.01702600  0.26157763  0.85416292  1
  O  O245  1  0.00604480  0.76401552  0.37856359  1
  O  O246  1  0.01105371  0.75710144  0.88969980  1
  O  O247  1  0.49350613  0.26665812  0.38044573  1
  O  O248  1  0.51610877  0.24387453  0.87718868  1
  O  O249  1  0.50755419  0.75359427  0.36608623  1
  O  O250  1  0.50789138  0.75775436  0.87201802  1
  O  O251  1  0.27350171  0.13325360  0.48769247  1
  O  O252  1  0.23686362  0.11802944  1.01938023  1
  O  O253  1  0.23938984  0.62019378  0.48742691  1
  O  O254  1  0.24657520  0.62664577  0.99639357  1
  O  O255  1  0.73966245  0.13191408  0.50067606  1
  O  O256  1  0.74710490  0.12972787  0.99552089  1
  O  O257  1  0.74636660  0.62742235  0.49255117  1
  O  O258  1  0.74427033  0.62777338  0.99419450  1
  O  O259  1  0.26110255  0.37708005  0.00666494  1
  O  O260  1  0.26214389  0.38350002  0.49810948  1
  O  O261  1  0.25647206  0.86482233  0.00294915  1
  O  O262  1  0.26490590  0.87607854  0.50158375  1
  O  O263  1  0.75581712  0.37277900  0.00821611  1
  O  O264  1  0.74909058  0.36782968  0.50682246  1
  O  O265  1  0.75583415  0.86793283  0.00649477  1
  O  O266  1  0.75950533  0.87428252  0.50807543  1
  O  O267  1  0.11953101  0.49034782  0.24990381  1
  O  O268  1  0.13143978  0.51261327  0.74111618  1
  O  O269  1  0.13024891  0.98154376  0.24989754  1
  O  O270  1  0.08844188  0.98955760  0.76701214  1
  O  O271  1  0.63854103  0.48843770  0.25343919  1
  O  O272  1  0.62444992  0.49240616  0.74073448  1
  O  O273  1  0.63317695  1.00340650  0.24005995  1
  O  O274  1  0.62990015  1.00130271  0.73951203  1
  O  O275  1  0.37217974  0.00663966  0.25442214  1
  O  O276  1  0.38098857  0.01189794  0.77908485  1
  O  O277  1  0.37732531  0.50370304  0.26135818  1
  O  O278  1  0.36715050  0.50571294  0.75249342  1
  O  O279  1  0.86646925  0.00239186  0.25668316  1
  O  O280  1  0.88012809  0.01005045  0.75753969  1
  O  O281  1  0.86307872  0.50667677  0.25191549  1
  O  O282  1  0.87730110  0.50593232  0.76245720  1
  O  O283  1  0.10984445  0.38407390  0.36705961  1
  O  O284  1  0.11677858  0.36030377  0.87873262  1
  O  O285  1  0.11900186  0.86885949  0.37000072  1
  O  O286  1  0.11596794  0.86089476  0.87593789  1
  O  O287  1  0.61444296  0.37243568  0.36731772  1
  O  O288  1  0.63594085  0.36549402  0.86509879  1
  O  O289  1  0.61741223  0.86485862  0.37792821  1
  O  O290  1  0.61560608  0.86343040  0.88203898  1
  O  O291  1  0.38753551  0.12786783  0.13326227  1
  O  O292  1  0.39540319  0.12876166  0.61755535  1
  O  O293  1  0.38706477  0.62257646  0.12287508  1
  O  O294  1  0.38620270  0.63292097  0.61942557  1
  O  O295  1  0.88049193  0.12935842  0.13027542  1
  O  O296  1  0.86995795  0.13382255  0.62928745  1
  O  O297  1  0.87302084  0.63206917  0.13346112  1
  O  O298  1  0.87864646  0.62006789  0.63976040  1
  O  O299  1  0.25306372  0.26365265  0.12294410  1
  O  O300  1  0.24606924  0.25783006  0.61822595  1
  O  O301  1  0.25079207  0.75618264  0.11687255  1
  O  O302  1  0.26625947  0.74069742  0.62071176  1
  O  O303  1  0.75525371  0.25578278  0.12007377  1
  O  O304  1  0.75126951  0.25626348  0.61614988  1
  O  O305  1  0.75360722  0.75453886  0.12018083  1
  O  O306  1  0.74150753  0.76370918  0.62007631  1
  O  O307  1  0.27022943  0.24237748  0.38828960  1
  O  O308  1  0.23621755  0.25243842  0.88130018  1
  O  O309  1  0.24138229  0.74299469  0.37251938  1
  O  O310  1  0.24431688  0.74012151  0.88278431  1
  O  O311  1  0.75274498  0.24859083  0.38803191  1
  O  O312  1  0.74468774  0.24267026  0.88056993  1
  O  O313  1  0.74227155  0.74359133  0.37316776  1
  O  O314  1  0.74441343  0.74101405  0.88054879  1
  O  O315  1  -0.00519618  0.11195478  0.01386933  1
  O  O316  1  -0.00229015  0.11970976  0.51181614  1
  O  O317  1  0.01022393  0.61697105  0.00326832  1
  O  O318  1  0.00229081  0.62059696  0.50416702  1
  O  O319  1  0.50572774  0.11477189  0.00695663  1
  O  O320  1  0.51552368  0.12334827  0.51157364  1
  O  O321  1  0.50778268  0.62141741  0.00523756  1
  O  O322  1  0.50641955  0.61472338  0.50581137  1
  O  O323  1  0.49533294  0.38786994  0.49384073  1
  O  O324  1  0.48929587  0.38170053  1.00556779  1
  O  O325  1  0.49324435  0.87226442  0.48379360  1
  O  O326  1  0.49311445  0.87849859  0.99684120  1
  O  O327  1  0.99142710  0.38569032  0.49509544  1
  O  O328  1  0.98505754  0.38068731  1.00581133  1
  O  O329  1  0.98823651  0.88339121  0.49707582  1
  O  O330  1  0.99331754  0.87689533  1.00336514  1
  O  O331  1  0.49394195  0.49736389  0.38099615  1
  O  O332  1  0.49832730  0.50717275  0.89007455  1
  O  O333  1  0.49472460  0.98718606  0.37187645  1
  O  O334  1  0.51546470  0.99097471  0.89058481  1
  O  O335  1  0.99604811  0.49654744  0.38820733  1
  O  O336  1  0.98826592  0.50508036  0.88790998  1
  O  O337  1  0.99100822  0.98985770  0.38253011  1
  O  O338  1  0.98868824  0.98569094  0.89698869  1
  O  O339  1  -0.00583067  0.00460798  0.11776326  1
  O  O340  1  -0.00711396  0.02207673  0.61556999  1
  O  O341  1  -0.01018384  0.50333167  0.10900463  1
  O  O342  1  0.00356528  0.51070418  0.61528148  1
  O  O343  1  0.50786577  0.00246170  0.11639938  1
  O  O344  1  0.50520107  0.00957170  0.62637152  1
  O  O345  1  0.50087812  0.51055993  0.11073463  1
  O  O346  1  0.51016398  0.50512250  0.61617431  1
  O  O347  1  0.23749325  0.37779388  0.24469334  1
  O  O348  1  0.24890196  0.39126893  0.75002503  1
  O  O349  1  0.24599930  0.87590907  0.23891001  1
  O  O350  1  0.24667619  0.86164451  0.74194892  1
  O  O351  1  0.74738739  0.38093837  0.24405658  1
  O  O352  1  0.74081099  0.36968432  0.73446491  1
  O  O353  1  0.75350426  0.88564817  0.24357961  1
  O  O354  1  0.75710195  0.87451048  0.73389170  1
  O  O355  1  0.26110984  0.12270104  0.25244652  1
  O  O356  1  0.24058069  0.11920169  0.76007539  1
  O  O357  1  0.25119027  0.62420066  0.26079275  1
  O  O358  1  0.25238451  0.61847563  0.75989826  1
  O  O359  1  0.75522134  0.11318760  0.25081974  1
  O  O360  1  0.76271649  0.12482404  0.75616586  1
  O  O361  1  0.75469778  0.61661986  0.25346971  1
  O  O362  1  0.76189508  0.62589861  0.75761423  1
  O  O363  1  0.39397482  0.11151647  0.36244597  1
  O  O364  1  0.35917230  0.12846013  0.88755121  1
  O  O365  1  0.36758917  0.61938788  0.37616167  1
  O  O366  1  0.36292380  0.62423647  0.87620612  1
  O  O367  1  0.86966802  0.10699552  0.36853468  1
  O  O368  1  0.87842716  0.11801321  0.86680355  1
  O  O369  1  0.86648801  0.62659953  0.36803122  1
  O  O370  1  0.86957251  0.62013283  0.86645386  1
  O  O371  1  0.13157798  0.37365019  0.13238075  1
  O  O372  1  0.12407104  0.39813034  0.61992967  1
  O  O373  1  0.13668712  0.86615773  0.13115908  1
  O  O374  1  0.12718238  0.87489851  0.63147718  1
  O  O375  1  0.63753179  0.37017012  0.13202163  1
  O  O376  1  0.62839840  0.38147649  0.62861842  1
  O  O377  1  0.62922546  0.88488689  0.11914918  1
  O  O378  1  0.63534995  0.88123691  0.61754902  1
  O  O379  1  0.11044393  0.26204326  0.24658949  1
  O  O380  1  0.10903644  0.25494015  0.75871189  1
  O  O381  1  0.12567559  0.75952170  0.26196665  1
  O  O382  1  0.12264937  0.74008988  0.76653970  1
  O  O383  1  0.63276227  0.26362863  0.25525360  1
  O  O384  1  0.62602926  0.25752633  0.75951229  1
  O  O385  1  0.61536908  0.74381289  0.26075225  1
  O  O386  1  0.62263888  0.74493644  0.76335194  1
  O  O387  1  0.37532682  0.23882886  0.24865170  1
  O  O388  1  0.37884310  0.26253148  0.74185365  1
  O  O389  1  0.39094331  0.74501197  0.25371800  1
  O  O390  1  0.38420889  0.74352474  0.73335890  1
  O  O391  1  0.88248058  0.24440468  0.24343663  1
  O  O392  1  0.87499924  0.24795341  0.73645309  1
  O  O393  1  0.86771982  0.73920476  0.24049429  1
  O  O394  1  0.87472284  0.73549775  0.75388398  1
  O  O395  1  0.38263580  0.49666557  0.48996541  1
  O  O396  1  0.38367544  0.48804805  0.99657370  1
  O  O397  1  0.38421503  0.98729411  0.48588169  1
  O  O398  1  0.38854494  0.98751903  0.99742410  1
  O  O399  1  0.88075652  0.49588565  0.50042717  1
  O  O400  1  0.87860781  0.49369692  0.98999209  1
  O  O401  1  0.87775981  0.99065495  0.49335427  1
  O  O402  1  0.87905335  0.99011846  1.00065515  1
  O  O403  1  0.11777928  -0.00305201  0.00374649  1
  O  O404  1  0.11253761  -0.00573981  0.49470999  1
  O  O405  1  0.11534756  0.50688652  -0.00482892  1
  O  O406  1  0.11592965  0.51464720  0.50371002  1
  O  O407  1  0.62340232  0.00545433  0.01013598  1
  O  O408  1  0.62241638  0.00580934  0.50977244  1
  O  O409  1  0.61905675  0.50808465  -0.00474231  1
  O  O410  1  0.61795653  0.50452164  0.50408551  1
  O  O411  1  0.36896890  0.37451709  0.11780304  1
  O  O412  1  0.36912434  0.39286039  0.61018910  1
  O  O413  1  0.36093664  0.88155869  0.11351838  1
  O  O414  1  0.38963637  0.85484212  0.61263671  1
  O  O415  1  0.86430922  0.37033363  0.11895370  1
  O  O416  1  0.86347183  0.37235362  0.61913178  1
  O  O417  1  0.86917251  0.86472374  0.12210813  1
  O  O418  1  0.86316688  0.87862497  0.61280016  1
  O  O419  1  0.11550256  0.12424018  0.36493521  1
  O  O420  1  0.09576454  0.15476141  0.87638989  1
  O  O421  1  0.12925646  0.63337729  0.37934958  1
  O  O422  1  0.13416553  0.62772503  0.88656599  1
  O  O423  1  0.62562437  0.12557596  0.38405958  1
  O  O424  1  0.63374358  0.13053726  0.88122492  1
  O  O425  1  0.63203999  0.62862270  0.37680901  1
  O  O426  1  0.63346936  0.62956795  0.88125864  1
