# generated using pymatgen
data_V85Zn86O256
_symmetry_space_group_name_H-M   'P 1'
_cell_length_a   16.94100462
_cell_length_b   16.93277904
_cell_length_c   16.94374617
_cell_angle_alpha   89.99923878
_cell_angle_beta   89.95110592
_cell_angle_gamma   90.07052366
_symmetry_Int_Tables_number   1
_chemical_formula_structural   V85Zn86O256
_chemical_formula_sum   'V85 Zn86 O256'
_cell_volume   4860.44856525
_cell_formula_units_Z   1
loop_
 _symmetry_equiv_pos_site_id
 _symmetry_equiv_pos_as_xyz
  1  'x, y, z'
loop_
 _atom_site_type_symbol
 _atom_site_label
 _atom_site_symmetry_multiplicity
 _atom_site_fract_x
 _atom_site_fract_y
 _atom_site_fract_z
 _atom_site_occupancy
  V  V0  1  0.74904051  0.00319932  0.24864806  1
  V  V1  1  0.75169661  0.25301033  0.49750726  1
  V  V2  1  0.63995072  0.62528106  0.49826876  1
  V  V3  1  0.36879093  0.74941092  0.12231378  1
  V  V4  1  0.37384689  -0.00391534  0.37344623  1
  V  V5  1  0.73730340  0.12934636  0.87404140  1
  V  V6  1  0.88062481  0.25340323  0.62856776  1
  V  V7  1  -0.00135870  0.36562110  0.87153414  1
  V  V8  1  0.37578719  0.74909549  0.62546758  1
  V  V9  1  0.00405854  0.12398919  0.11895049  1
  V  V10  1  0.62473335  0.12519704  0.50196454  1
  V  V11  1  0.25222478  0.87594167  0.64012633  1
  V  V12  1  0.36760570  0.87431743  -0.00108650  1
  V  V13  1  0.50191360  0.87672688  0.87764461  1
  V  V14  1  0.75085933  0.62274907  0.87139242  1
  V  V15  1  0.74480038  0.48302654  0.75537817  1
  V  V16  1  0.25086476  0.75195750  0.49927928  1
  V  V17  1  0.00081594  0.63191420  0.63484720  1
  V  V18  1  0.24551120  0.63343864  0.88978583  1
  V  V19  1  0.11405107  0.75642285  0.37580081  1
  V  V20  1  0.60920747  0.37339704  0.24718182  1
  V  V21  1  0.37285748  0.49840282  0.87711090  1
  V  V22  1  0.50026673  -0.00072047  0.50628144  1
  V  V23  1  0.87402722  0.38137340  0.49932624  1
  V  V24  1  0.37645152  0.12088687  0.74671870  1
  V  V25  1  0.86628440  0.25038313  0.12514046  1
  V  V26  1  0.50409328  0.62307240  0.12823459  1
  V  V27  1  0.25175594  0.11760835  0.87147392  1
  V  V28  1  0.50185279  0.49824230  0.00496000  1
  V  V29  1  0.25525410  0.37457572  0.62191200  1
  V  V30  1  0.72942649  0.24953092  -0.00330688  1
  V  V31  1  0.12517765  0.12263492  0.49754559  1
  V  V32  1  0.12461953  0.25150123  0.36980077  1
  V  V33  1  0.00041126  0.25115753  0.24908792  1
  V  V34  1  0.24177952  0.49837568  0.25292022  1
  V  V35  1  0.00353697  0.37896365  0.37052949  1
  V  V36  1  0.25065057  0.49954637  0.75269017  1
  V  V37  1  0.11083976  0.75029107  0.88498336  1
  V  V38  1  0.75393961  0.87040882  0.60805549  1
  V  V39  1  0.62911596  0.49456893  0.63162264  1
  V  V40  1  0.50208601  0.74822031  0.75162156  1
  V  V41  1  0.87728125  0.49685480  0.87596808  1
  V  V42  1  0.12602555  0.00165605  0.11361963  1
  V  V43  1  0.50216028  0.62359252  0.62677650  1
  V  V44  1  0.12228192  0.36664007  0.74953430  1
  V  V45  1  0.43474204  0.33473215  0.44420982  1
  V  V46  1  0.49996328  0.87211042  0.37552880  1
  V  V47  1  0.87821991  0.75528347  0.12266750  1
  V  V48  1  0.75110830  0.75191866  0.00130051  1
  V  V49  1  0.63603729  0.74342477  0.37724944  1
  V  V50  1  0.62810364  0.61891507  0.00453350  1
  V  V51  1  0.23729280  0.37125146  0.12727435  1
  V  V52  1  0.24753774  0.24222702  -0.00051933  1
  V  V53  1  0.37322191  0.62360943  0.75185602  1
  V  V54  1  0.12339328  0.24278806  0.87653085  1
  V  V55  1  0.87494522  0.36506477  0.00324456  1
  V  V56  1  0.37941668  0.12634815  0.24981111  1
  V  V57  1  0.49993996  0.74733209  0.25162094  1
  V  V58  1  0.37575870  0.50156642  0.37655633  1
  V  V59  1  0.11885063  0.87920421  0.25143699  1
  V  V60  1  0.25146639  0.25223619  0.49897018  1
  V  V61  1  0.62423984  0.00490507  0.11531701  1
  V  V62  1  0.87649754  0.88668262  -0.01563643  1
  V  V63  1  0.37819641  0.25119809  0.12951211  1
  V  V64  1  0.12371025  0.49901512  0.62648134  1
  V  V65  1  0.51379820  0.24884573  0.75227756  1
  V  V66  1  0.37445683  0.37280702  -0.00025372  1
  V  V67  1  0.62369916  0.87459003  0.24774695  1
  V  V68  1  0.62565916  0.00123518  0.62832238  1
  V  V69  1  0.62537248  0.74927641  0.87569317  1
  V  V70  1  0.49784308  0.50146852  0.49843127  1
  V  V71  1  0.38091935  0.24951845  0.62848287  1
  V  V72  1  0.86568836  0.50703640  0.37164235  1
  V  V73  1  0.75261041  0.12624709  0.37478650  1
  V  V74  1  0.10548507  0.87043997  0.75596232  1
  V  V75  1  0.86861183  0.62907156  0.25066154  1
  V  V76  1  0.50319732  0.12883955  0.11956800  1
  V  V77  1  -0.00446538  -0.01151389  0.49343257  1
  V  V78  1  0.51420081  0.37213305  0.87361217  1
  V  V79  1  0.74665251  0.49045788  0.22983264  1
  V  V80  1  0.12291371  0.62496129  0.49916377  1
  V  V81  1  0.76235376  -0.00101322  0.75461610  1
  V  V82  1  0.12882241  -0.00053786  0.63126871  1
  V  V83  1  0.00054295  0.13003560  0.62643684  1
  V  V84  1  0.12393717  0.50975100  0.12040156  1
  Zn  Zn85  1  0.74908334  0.88108851  0.12104165  1
  Zn  Zn86  1  0.61286224  0.26000661  0.37451490  1
  Zn  Zn87  1  0.37360775  0.62461254  0.25073791  1
  Zn  Zn88  1  0.25042948  -0.00225987  0.24452255  1
  Zn  Zn89  1  0.00707513  0.50040431  -0.00299486  1
  Zn  Zn90  1  0.88095617  0.62674176  0.75213698  1
  Zn  Zn91  1  0.00390584  0.63256156  0.12240506  1
  Zn  Zn92  1  0.24790592  0.62738744  0.37303863  1
  Zn  Zn93  1  0.88598286  0.12529123  0.75920117  1
  Zn  Zn94  1  0.00188730  0.50109288  0.49609583  1
  Zn  Zn95  1  0.75061972  0.37345998  0.63196133  1
  Zn  Zn96  1  0.87720573  0.75809992  0.62751688  1
  Zn  Zn97  1  0.87529876  -0.01265383  0.37656821  1
  Zn  Zn98  1  0.62894962  0.87315717  0.74897949  1
  Zn  Zn99  1  0.24949040  0.12271112  0.37233460  1
  Zn  Zn100  1  0.50209767  0.00666928  -0.00581789  1
  Zn  Zn101  1  0.87615984  0.12354754  0.25196134  1
  Zn  Zn102  1  0.24581068  0.87109770  0.12205980  1
  Zn  Zn103  1  -0.00116155  0.00044210  -0.02328935  1
  Zn  Zn104  1  0.37448851  0.87516618  0.50222817  1
  Zn  Zn105  1  0.37409659  -0.00156658  0.87122658  1
  Zn  Zn106  1  -0.00618131  0.75489320  0.25512402  1
  Zn  Zn107  1  0.18946760  0.18234445  0.18960697  1
  Zn  Zn108  1  0.19094618  0.18613757  0.68836492  1
  Zn  Zn109  1  0.18762259  0.68779960  0.19248107  1
  Zn  Zn110  1  0.18624041  0.68982252  0.69428883  1
  Zn  Zn111  1  0.68225421  0.19389541  0.19060718  1
  Zn  Zn112  1  0.69251967  0.18451526  0.68370651  1
  Zn  Zn113  1  0.69079365  0.68373694  0.18932895  1
  Zn  Zn114  1  0.69217343  0.68550922  0.68730959  1
  Zn  Zn115  1  0.30646759  0.31155260  0.30619310  1
  Zn  Zn116  1  0.31535684  0.31038392  0.81205121  1
  Zn  Zn117  1  0.30783627  0.81355426  0.30952355  1
  Zn  Zn118  1  0.31282504  0.80896971  0.81626357  1
  Zn  Zn119  1  0.81232904  0.31566115  0.31215030  1
  Zn  Zn120  1  0.81429692  0.29372709  0.82368497  1
  Zn  Zn121  1  0.80851100  0.81687826  0.30956138  1
  Zn  Zn122  1  0.81788084  0.80999269  0.80625295  1
  Zn  Zn123  1  0.18819151  0.43630738  0.43777382  1
  Zn  Zn124  1  0.18781635  0.43375597  0.93930232  1
  Zn  Zn125  1  0.18842831  0.93461798  0.44013400  1
  Zn  Zn126  1  0.18552730  0.93409907  0.93621813  1
  Zn  Zn127  1  0.68522899  0.43929198  0.43430930  1
  Zn  Zn128  1  0.69277608  0.43537395  0.94908181  1
  Zn  Zn129  1  0.68564908  0.93811681  0.43272468  1
  Zn  Zn130  1  0.69174357  0.93933817  0.93333067  1
  Zn  Zn131  1  0.31514327  0.06008819  0.05921466  1
  Zn  Zn132  1  0.31130923  0.06316060  0.56402900  1
  Zn  Zn133  1  0.31393856  0.56128681  0.06627856  1
  Zn  Zn134  1  0.31278519  0.56238498  0.56107348  1
  Zn  Zn135  1  0.81110118  0.07087498  0.06144919  1
  Zn  Zn136  1  0.81397450  0.06266055  0.56519937  1
  Zn  Zn137  1  0.82829389  0.56561772  0.05763473  1
  Zn  Zn138  1  0.85536762  0.62381284  0.50702470  1
  Zn  Zn139  1  0.43146798  0.43879728  0.18772938  1
  Zn  Zn140  1  0.44113339  0.43340323  0.68911372  1
  Zn  Zn141  1  0.43893339  0.93789180  0.18515608  1
  Zn  Zn142  1  0.44024947  0.93539728  0.68956776  1
  Zn  Zn143  1  0.93820978  0.43506065  0.18929560  1
  Zn  Zn144  1  0.93693294  0.44014289  0.69026173  1
  Zn  Zn145  1  0.93602607  0.93794288  0.18689021  1
  Zn  Zn146  1  0.93691467  0.94020586  0.67980194  1
  Zn  Zn147  1  0.06272554  0.06265822  0.30951674  1
  Zn  Zn148  1  0.06303555  0.06047594  0.81003818  1
  Zn  Zn149  1  0.05853210  0.56790727  0.30861851  1
  Zn  Zn150  1  0.06698740  0.56026012  0.81701493  1
  Zn  Zn151  1  0.56262714  0.06551684  0.31135846  1
  Zn  Zn152  1  0.56201644  0.06408785  0.80875037  1
  Zn  Zn153  1  0.56636825  0.55584846  0.31414846  1
  Zn  Zn154  1  0.56296287  0.55945074  0.81643235  1
  Zn  Zn155  1  0.43699044  0.17098221  0.44179071  1
  Zn  Zn156  1  0.43915889  0.18915751  0.93507290  1
  Zn  Zn157  1  0.44008853  0.68441969  0.43810533  1
  Zn  Zn158  1  0.43624147  0.68728005  0.93988684  1
  Zn  Zn159  1  0.93702225  0.18625109  0.43928945  1
  Zn  Zn160  1  0.94241784  0.16254511  0.92125517  1
  Zn  Zn161  1  0.92303113  0.80632502  0.44765759  1
  Zn  Zn162  1  0.93817532  0.68364885  0.94268055  1
  Zn  Zn163  1  0.05963997  0.30981116  0.05816993  1
  Zn  Zn164  1  0.06280636  0.31443777  0.55701732  1
  Zn  Zn165  1  0.05631549  0.82134876  0.06011814  1
  Zn  Zn166  1  0.06727130  0.81138980  0.56778865  1
  Zn  Zn167  1  0.56042865  0.32117936  0.07597092  1
  Zn  Zn168  1  0.56950502  0.30828266  0.57158559  1
  Zn  Zn169  1  0.56067648  0.81193596  0.06271678  1
  Zn  Zn170  1  0.56823638  0.81222126  0.56225047  1
  O  O171  1  0.11360148  0.11798663  0.13074262  1
  O  O172  1  0.12359611  0.11821853  0.61883305  1
  O  O173  1  0.12517065  0.61346191  0.12627556  1
  O  O174  1  0.12387305  0.61633762  0.62453084  1
  O  O175  1  0.61357620  0.11862803  0.13408308  1
  O  O176  1  0.63273338  0.11603560  0.61017852  1
  O  O177  1  0.61318652  0.63045523  0.11814313  1
  O  O178  1  0.62245700  0.61689688  0.61668649  1
  O  O179  1  0.36905845  0.38340320  0.37654690  1
  O  O180  1  0.37987431  0.38060109  0.88185507  1
  O  O181  1  0.38067903  0.87965904  0.37800094  1
  O  O182  1  0.38229401  0.87524290  0.88067932  1
  O  O183  1  0.88405036  0.38316113  0.38021285  1
  O  O184  1  0.88317067  0.37360348  0.87943273  1
  O  O185  1  0.87719953  0.87422601  0.37367513  1
  O  O186  1  0.86875222  0.87627714  0.88604641  1
  O  O187  1  0.26495229  -0.00133598  0.37898449  1
  O  O188  1  0.25002076  0.01423269  0.88057961  1
  O  O189  1  0.25457877  0.50011845  0.36916157  1
  O  O190  1  0.25182703  0.50732848  0.87198824  1
  O  O191  1  0.74939049  0.00889580  0.36713934  1
  O  O192  1  0.74928828  0.01050885  0.86206946  1
  O  O193  1  0.76467899  0.49576843  0.36724435  1
  O  O194  1  0.75441454  0.50436187  0.87375915  1
  O  O195  1  0.24132451  0.49334305  0.13072621  1
  O  O196  1  0.24312209  0.49299645  0.62951680  1
  O  O197  1  0.23942211  1.00003304  0.12263721  1
  O  O198  1  0.23731214  0.99048695  0.61803312  1
  O  O199  1  0.75756422  0.50330618  0.13207619  1
  O  O200  1  0.74218562  0.49701799  0.64347529  1
  O  O201  1  0.74115750  1.00635089  0.13176259  1
  O  O202  1  0.74484301  0.99306932  0.63162409  1
  O  O203  1  -0.00218792  0.36104782  0.25782030  1
  O  O204  1  0.00906650  0.37854386  0.76100879  1
  O  O205  1  0.01338341  0.87454555  0.24564855  1
  O  O206  1  0.00708521  0.87628071  0.74722694  1
  O  O207  1  0.50933206  0.38510227  0.25045335  1
  O  O208  1  0.49720209  0.36203428  0.76085201  1
  O  O209  1  0.50535931  0.86899800  0.25538816  1
  O  O210  1  0.50263377  0.86753491  0.76185219  1
  O  O211  1  0.48708367  0.12124883  0.24150575  1
  O  O212  1  0.49267591  0.14082406  0.75471068  1
  O  O213  1  0.50008658  0.62548037  0.24269614  1
  O  O214  1  0.49406354  0.62761740  0.74702957  1
  O  O215  1  0.99752329  0.13616192  0.24522708  1
  O  O216  1  1.00228535  0.12417046  0.72988721  1
  O  O217  1  0.98411044  0.62960157  0.24443207  1
  O  O218  1  1.00364874  0.61463546  0.73813454  1
  O  O219  1  0.36797759  0.25489984  0.00732472  1
  O  O220  1  0.37627884  0.25691758  0.50384778  1
  O  O221  1  0.38332364  0.75967491  0.01084364  1
  O  O222  1  0.36809836  0.74892245  0.50694905  1
  O  O223  1  0.87532816  0.25687572  0.00694345  1
  O  O224  1  0.86959214  0.26129377  0.50326698  1
  O  O225  1  0.86776377  0.75952070  0.00432211  1
  O  O226  1  0.87955936  0.73302761  0.51661680  1
  O  O227  1  0.12822938  0.24225556  0.48974368  1
  O  O228  1  0.13524018  0.25400872  0.98903396  1
  O  O229  1  0.13176171  0.74496942  0.49561632  1
  O  O230  1  0.12153522  0.76172661  0.98416353  1
  O  O231  1  0.63268469  0.24360071  0.49840773  1
  O  O232  1  0.63317930  0.25271844  1.01685784  1
  O  O233  1  0.61989490  0.73366385  0.49345284  1
  O  O234  1  0.63134172  0.74054964  0.99646231  1
  O  O235  1  0.48562217  0.24553207  0.12311847  1
  O  O236  1  0.49166570  0.25678295  0.63788830  1
  O  O237  1  0.49418975  0.74222886  0.13238855  1
  O  O238  1  0.49699723  0.74484307  0.63086580  1
  O  O239  1  0.99805813  0.24285370  0.13293665  1
  O  O240  1  0.99325948  0.24254928  0.61273555  1
  O  O241  1  0.99038643  0.75203164  0.12664099  1
  O  O242  1  1.00849345  0.73423078  0.62962520  1
  O  O243  1  0.00475343  0.25465788  0.36948055  1
  O  O244  1  0.01110908  0.25463061  0.87868550  1
  O  O245  1  0.01214991  0.75242995  0.37819327  1
  O  O246  1  0.01198612  0.73977043  0.87469475  1
  O  O247  1  0.49198370  0.26204311  0.39350456  1
  O  O248  1  0.49970721  0.25825165  0.86380072  1
  O  O249  1  0.50501678  0.75253462  0.36900095  1
  O  O250  1  0.50509516  0.75391012  0.87077711  1
  O  O251  1  0.23954773  0.13157011  0.49862229  1
  O  O252  1  0.25686938  0.13671524  0.99199345  1
  O  O253  1  0.24007092  0.63579612  0.50413188  1
  O  O254  1  0.25385797  0.62146765  0.98764911  1
  O  O255  1  0.74591629  0.13131076  0.49429054  1
  O  O256  1  0.75230966  0.14066912  0.99030155  1
  O  O257  1  0.73768345  0.61713964  0.50250891  1
  O  O258  1  0.74538200  0.62839244  0.99229651  1
  O  O259  1  0.25544076  0.36469814  0.00688643  1
  O  O260  1  0.24447020  0.36898406  0.51410463  1
  O  O261  1  0.26358670  0.87594137  -0.00002897  1
  O  O262  1  0.24921707  0.86284891  0.51219392  1
  O  O263  1  0.75850217  0.35824262  0.00164971  1
  O  O264  1  0.76019880  0.37078426  0.49812251  1
  O  O265  1  0.75687833  0.86753185  0.00033143  1
  O  O266  1  0.74710362  0.87997528  0.50945570  1
  O  O267  1  0.13534578  0.50392761  0.24193393  1
  O  O268  1  0.13235881  0.48835135  0.74582008  1
  O  O269  1  0.12710921  0.99485903  0.24227655  1
  O  O270  1  0.12187076  0.98668125  0.74332408  1
  O  O271  1  0.64099921  0.49429699  0.25221851  1
  O  O272  1  0.63118064  0.50296964  0.74393422  1
  O  O273  1  0.63251580  0.99634963  0.24532260  1
  O  O274  1  0.63062198  1.00016770  0.73751764  1
  O  O275  1  0.37460087  0.00375335  0.25797528  1
  O  O276  1  0.38292245  0.01624431  0.74740470  1
  O  O277  1  0.36431523  0.50126973  0.25905196  1
  O  O278  1  0.37065187  0.50342340  0.75682771  1
  O  O279  1  0.86038310  0.00194134  0.24983540  1
  O  O280  1  0.86482736  0.00682099  0.74306413  1
  O  O281  1  0.86867383  0.50447044  0.25436331  1
  O  O282  1  0.86580824  0.50062658  0.76267585  1
  O  O283  1  0.11189350  0.36710536  0.38225049  1
  O  O284  1  0.12052623  0.36621305  0.86825514  1
  O  O285  1  0.13100079  0.86778156  0.36670452  1
  O  O286  1  0.12593342  0.86606649  0.86380829  1
  O  O287  1  0.63098717  0.37607174  0.35857820  1
  O  O288  1  0.61199989  0.38525396  0.88213448  1
  O  O289  1  0.61887295  0.86604392  0.36907958  1
  O  O290  1  0.61907247  0.86754571  0.87480154  1
  O  O291  1  0.37919326  0.13175155  0.13126467  1
  O  O292  1  0.36916259  0.13942281  0.62986648  1
  O  O293  1  0.38709115  0.63152504  0.12422902  1
  O  O294  1  0.38053192  0.62893242  0.63138115  1
  O  O295  1  0.88629741  0.13310244  0.12909754  1
  O  O296  1  0.88449826  0.13597742  0.62182025  1
  O  O297  1  0.86988141  0.64158611  0.13326175  1
  O  O298  1  0.89978119  0.61009400  0.62359567  1
  O  O299  1  0.25423067  0.25372191  0.11929136  1
  O  O300  1  0.25710519  0.25681450  0.61880711  1
  O  O301  1  0.26518249  0.74753512  0.12921137  1
  O  O302  1  0.25489483  0.75630145  0.62163203  1
  O  O303  1  0.76256361  0.23930649  0.11729794  1
  O  O304  1  0.75711344  0.25329234  0.61199195  1
  O  O305  1  0.75178227  0.75033499  0.11139041  1
  O  O306  1  0.74202816  0.76909708  0.62634525  1
  O  O307  1  0.24158612  0.25053621  0.38106870  1
  O  O308  1  0.24601402  0.24449781  0.88239215  1
  O  O309  1  0.24490465  0.74842643  0.38587353  1
  O  O310  1  0.24430694  0.73678986  0.87430134  1
  O  O311  1  0.75222616  0.24491002  0.38563008  1
  O  O312  1  0.72850653  0.25270184  0.89092505  1
  O  O313  1  0.73482089  0.74858001  0.36852609  1
  O  O314  1  0.74723333  0.74179358  0.88494261  1
  O  O315  1  -0.00053957  0.13194782  0.01911123  1
  O  O316  1  0.01169474  0.11957228  0.50566925  1
  O  O317  1  -0.02590303  0.60717482  0.01489986  1
  O  O318  1  0.01790452  0.61878096  0.51569905  1
  O  O319  1  0.49348737  0.12519360  0.01423245  1
  O  O320  1  0.51090301  0.10998166  0.50025714  1
  O  O321  1  0.50836841  0.61825535  0.00516802  1
  O  O322  1  0.50512859  0.61427117  0.50863132  1
  O  O323  1  0.50249915  0.38571299  0.50858607  1
  O  O324  1  0.49537731  0.38153416  0.99763850  1
  O  O325  1  0.50116213  0.88358541  0.49410313  1
  O  O326  1  0.49532987  0.87416677  0.98757995  1
  O  O327  1  0.98991587  0.37938656  0.49099388  1
  O  O328  1  0.99432381  0.37767442  0.98818002  1
  O  O329  1  1.00414710  0.88512221  0.50480495  1
  O  O330  1  0.98166230  0.88396625  0.99790487  1
  O  O331  1  0.49041644  0.50085080  0.38613581  1
  O  O332  1  0.49257251  0.49635761  0.88681130  1
  O  O333  1  0.49128148  0.99514541  0.38153229  1
  O  O334  1  0.50022167  0.99074236  0.87452379  1
  O  O335  1  0.99333122  0.49198498  0.37014347  1
  O  O336  1  0.99274539  0.49065800  0.87562369  1
  O  O337  1  1.00071260  1.00556006  0.39086957  1
  O  O338  1  0.97896872  1.05701237  0.88145157  1
  O  O339  1  0.00356678  0.01466393  0.12757665  1
  O  O340  1  0.01099819  0.00600397  0.61379631  1
  O  O341  1  0.01970587  0.49397700  0.13061402  1
  O  O342  1  0.01586056  0.49894520  0.62461431  1
  O  O343  1  0.50794473  0.00949720  0.12314815  1
  O  O344  1  0.51118466  -0.00801188  0.61659282  1
  O  O345  1  0.49230156  0.50763002  0.11285632  1
  O  O346  1  0.50636707  0.50480883  0.62193213  1
  O  O347  1  0.25103782  0.38411705  0.23828242  1
  O  O348  1  0.24461002  0.37876179  0.74169259  1
  O  O349  1  0.23784457  0.87729678  0.24365811  1
  O  O350  1  0.25060246  0.87342663  0.74186970  1
  O  O351  1  0.75492158  0.38860971  0.24540939  1
  O  O352  1  0.75380211  0.38091304  0.75724742  1
  O  O353  1  0.73983771  0.88536880  0.24375401  1
  O  O354  1  0.74783891  0.89039963  0.75047921  1
  O  O355  1  0.26344956  0.11942301  0.25254203  1
  O  O356  1  0.26294934  0.13165586  0.75896094  1
  O  O357  1  0.25360367  0.61445322  0.25295320  1
  O  O358  1  0.25546807  0.61805793  0.75746160  1
  O  O359  1  0.74820999  0.12115050  0.25906948  1
  O  O360  1  0.75001603  0.11252808  0.75089523  1
  O  O361  1  0.76079685  0.61246837  0.24764027  1
  O  O362  1  0.74619685  0.61567620  0.76473750  1
  O  O363  1  0.37351867  0.11515691  0.36710468  1
  O  O364  1  0.36895415  0.12463030  0.86607325  1
  O  O365  1  0.37125506  0.61264801  0.37606630  1
  O  O366  1  0.36486121  0.62049043  0.87236950  1
  O  O367  1  0.86265241  0.12214409  0.37532001  1
  O  O368  1  0.84728120  0.16860721  0.85860273  1
  O  O369  1  0.87712242  0.61003934  0.36954805  1
  O  O370  1  0.86661202  0.61309660  0.87611434  1
  O  O371  1  0.13494224  0.37811957  0.12097691  1
  O  O372  1  0.13058012  0.37881609  0.63109864  1
  O  O373  1  0.12538241  0.88449282  0.12984999  1
  O  O374  1  0.13104128  0.87931180  0.63856826  1
  O  O375  1  0.62697198  0.37912179  0.14551966  1
  O  O376  1  0.63106778  0.39026430  0.62064879  1
  O  O377  1  0.62352885  0.88426430  0.13079570  1
  O  O378  1  0.63514149  0.88431048  0.62607126  1
  O  O379  1  0.12050398  0.24502126  0.26313106  1
  O  O380  1  0.13156115  0.26168730  0.75495345  1
  O  O381  1  0.12291284  0.75644804  0.25991589  1
  O  O382  1  0.12732741  0.76528579  0.75889889  1
  O  O383  1  0.62337732  0.26570619  0.25631299  1
  O  O384  1  0.61222147  0.24737689  0.73833255  1
  O  O385  1  0.61881650  0.75201613  0.25532878  1
  O  O386  1  0.62009224  0.74865195  0.75758617  1
  O  O387  1  0.36949401  0.24124846  0.24049706  1
  O  O388  1  0.38207557  0.24317254  0.74317892  1
  O  O389  1  0.38304044  0.74750940  0.24443320  1
  O  O390  1  0.38150833  0.74294270  0.74549088  1
  O  O391  1  0.88184841  0.24907993  0.24269874  1
  O  O392  1  0.87310135  0.25695547  0.72968591  1
  O  O393  1  0.87088550  0.74472806  0.24181920  1
  O  O394  1  0.86609248  0.73796162  0.73876975  1
  O  O395  1  0.38362226  0.49927304  0.49344643  1
  O  O396  1  0.38122549  0.49384414  0.99681634  1
  O  O397  1  0.38377319  1.00002716  0.49563693  1
  O  O398  1  0.38185300  0.98901063  0.99647110  1
  O  O399  1  0.87880941  0.50196712  0.48419115  1
  O  O400  1  0.86749784  0.48196016  0.98702973  1
  O  O401  1  0.89315943  1.00488029  0.50128029  1
  O  O402  1  0.86869631  0.98844287  1.00344145  1
  O  O403  1  0.11658020  -0.00604346  0.00908229  1
  O  O404  1  0.11882799  0.00550162  0.50552373  1
  O  O405  1  0.12721741  0.49637356  0.01578494  1
  O  O406  1  0.12817154  0.50712964  0.50887759  1
  O  O407  1  0.62545369  -0.00351615  0.01229656  1
  O  O408  1  0.62007847  0.00576707  0.50521900  1
  O  O409  1  0.61874191  0.51120993  -0.00040965  1
  O  O410  1  0.61916014  0.50846190  0.50518739  1
  O  O411  1  0.36549971  0.36728568  0.12056681  1
  O  O412  1  0.36567341  0.36460624  0.63136368  1
  O  O413  1  0.37643589  0.86701351  0.11686402  1
  O  O414  1  0.36878800  0.86894009  0.62453224  1
  O  O415  1  0.88601278  0.36266590  0.11570280  1
  O  O416  1  0.87559992  0.37495228  0.61368753  1
  O  O417  1  0.86964135  0.86597281  0.12059429  1
  O  O418  1  0.85873692  0.87775113  0.62437989  1
  O  O419  1  0.12724984  0.13108596  0.38193937  1
  O  O420  1  0.13665301  0.13792897  0.86218403  1
  O  O421  1  0.12548676  0.63176666  0.38460416  1
  O  O422  1  0.13547225  0.63663611  0.87274618  1
  O  O423  1  0.63319727  0.12929605  0.38438305  1
  O  O424  1  0.63639301  0.12565425  0.86964803  1
  O  O425  1  0.61958444  0.62849986  0.38978619  1
  O  O426  1  0.63075487  0.62890148  0.88501585  1
