# generated using pymatgen
data_V85Zn86O256
_symmetry_space_group_name_H-M   'P 1'
_cell_length_a   16.98230806
_cell_length_b   16.96654513
_cell_length_c   17.00859760
_cell_angle_alpha   90.00794340
_cell_angle_beta   89.92024030
_cell_angle_gamma   89.94139813
_symmetry_Int_Tables_number   1
_chemical_formula_structural   V85Zn86O256
_chemical_formula_sum   'V85 Zn86 O256'
_cell_volume   4900.69850861
_cell_formula_units_Z   1
loop_
 _symmetry_equiv_pos_site_id
 _symmetry_equiv_pos_as_xyz
  1  'x, y, z'
loop_
 _atom_site_type_symbol
 _atom_site_label
 _atom_site_symmetry_multiplicity
 _atom_site_fract_x
 _atom_site_fract_y
 _atom_site_fract_z
 _atom_site_occupancy
  V  V0  1  0.87067142  0.12725446  0.24650020  1
  V  V1  1  -0.00266312  0.25589941  0.25209767  1
  V  V2  1  0.24248526  0.37321734  0.62853212  1
  V  V3  1  0.87327906  0.25975553  0.11804241  1
  V  V4  1  -0.01369775  0.48817761  0.00715482  1
  V  V5  1  0.62070154  0.00320175  0.10601736  1
  V  V6  1  0.37718467  0.61590188  0.25182822  1
  V  V7  1  0.87351171  0.62744237  0.25196306  1
  V  V8  1  0.87424411  0.37471630  0.50253936  1
  V  V9  1  0.37683518  0.37777556  -0.00074546  1
  V  V10  1  0.74728350  0.24802668  0.49949491  1
  V  V11  1  0.50570583  0.38064786  0.37000592  1
  V  V12  1  0.50278923  0.50015673  0.00496050  1
  V  V13  1  0.62526581  0.24470645  0.88139477  1
  V  V14  1  0.87440108  0.50166956  0.37719813  1
  V  V15  1  0.36128937  0.87497632  0.50384150  1
  V  V16  1  0.75290767  0.51210008  0.75070313  1
  V  V17  1  0.36197099  -0.00297677  0.37328415  1
  V  V18  1  0.50963726  0.25292587  0.74589747  1
  V  V19  1  -0.00335699  0.62509684  0.62813459  1
  V  V20  1  0.50399489  0.37592562  0.86765484  1
  V  V21  1  0.38241064  0.00029007  0.87548015  1
  V  V22  1  0.63126436  0.63512579  0.50291091  1
  V  V23  1  0.13901576  0.71865423  0.38796923  1
  V  V24  1  0.24572359  0.24997746  -0.01113104  1
  V  V25  1  0.24957568  0.49667235  0.75346778  1
  V  V26  1  0.37354646  0.24830704  0.12604595  1
  V  V27  1  0.75360017  0.63445070  0.38046641  1
  V  V28  1  0.87340224  0.24801263  0.62655761  1
  V  V29  1  0.87497042  0.86907864  0.49641190  1
  V  V30  1  0.12602000  0.74630732  0.86731165  1
  V  V31  1  0.87341026  0.87659177  0.00136761  1
  V  V32  1  0.01628900  0.25099688  0.75535663  1
  V  V33  1  -0.00414295  0.74945472  0.74483783  1
  V  V34  1  0.50224586  0.75485815  0.25817192  1
  V  V35  1  0.12547000  0.50101688  0.12554788  1
  V  V36  1  -0.00113982  -0.00153191  0.49760977  1
  V  V37  1  0.68107312  0.43877420  0.07887992  1
  V  V38  1  0.62616464  0.25377393  0.36564622  1
  V  V39  1  0.37711831  0.87110515  -0.00323050  1
  V  V40  1  0.50177218  -0.00545322  0.48998794  1
  V  V41  1  0.25077304  0.50524506  0.24554792  1
  V  V42  1  0.74698336  0.12274884  0.88687823  1
  V  V43  1  0.62409017  0.49801611  0.63160481  1
  V  V44  1  0.75046079  0.87329876  0.61874999  1
  V  V45  1  0.87163298  0.75393684  0.12766055  1
  V  V46  1  0.50071366  0.86578417  0.87106266  1
  V  V47  1  0.37849466  0.37539118  0.50132375  1
  V  V48  1  0.62543218  0.64118102  0.00270721  1
  V  V49  1  0.12648937  0.37551648  0.25266681  1
  V  V50  1  0.50250771  0.11997003  0.11722280  1
  V  V51  1  0.50212330  0.63815685  0.62770150  1
  V  V52  1  0.12305051  0.50473439  0.62788145  1
  V  V53  1  0.36097489  0.78333790  0.16723796  1
  V  V54  1  0.25265774  0.37389280  0.12326754  1
  V  V55  1  0.62602031  0.75878981  0.37730258  1
  V  V56  1  0.87572350  -0.00341246  0.37029810  1
  V  V57  1  0.74567048  0.37252415  0.63837598  1
  V  V58  1  0.50056889  0.62158972  0.12933845  1
  V  V59  1  0.12926910  0.87738348  0.73851613  1
  V  V60  1  0.61919485  0.87068267  0.74553941  1
  V  V61  1  0.87353408  0.12516831  0.75240928  1
  V  V62  1  0.00057436  0.50439183  0.50221115  1
  V  V63  1  0.50775590  0.50189122  0.49898838  1
  V  V64  1  0.74652720  0.00001886  0.74901004  1
  V  V65  1  0.37843594  0.25248799  0.62467416  1
  V  V66  1  -0.00021650  0.12296009  0.62410322  1
  V  V67  1  0.02406860  0.10555020  0.14512680  1
  V  V68  1  0.25120359  0.62737319  0.87770883  1
  V  V69  1  0.25145056  0.25143856  0.49685429  1
  V  V70  1  0.12402055  0.62398222  -0.00052590  1
  V  V71  1  0.34070144  0.51670995  0.40337693  1
  V  V72  1  0.13127680  0.25397009  0.37302706  1
  V  V73  1  0.73777979  0.49246186  0.25509136  1
  V  V74  1  -0.00032435  0.87292652  0.87459919  1
  V  V75  1  0.74151124  -0.00105301  0.24837361  1
  V  V76  1  0.37983398  0.63418219  0.75124789  1
  V  V77  1  0.12964675  0.12874624  0.49718840  1
  V  V78  1  0.37782909  0.50315416  0.87500229  1
  V  V79  1  0.35978224  0.75326838  0.62102224  1
  V  V80  1  0.01203152  -0.00101640  0.00041171  1
  V  V81  1  0.37723603  0.12521638  0.74897086  1
  V  V82  1  0.23220836  0.76793678  0.02774498  1
  V  V83  1  0.36626049  0.12851889  0.25884940  1
  V  V84  1  0.00185086  0.62844934  0.12801443  1
  Zn  Zn85  1  0.01347821  0.75712407  0.25516092  1
  Zn  Zn86  1  0.74561183  0.12458963  0.37457918  1
  Zn  Zn87  1  0.73949069  0.87116942  0.12278306  1
  Zn  Zn88  1  0.86823418  0.50135032  0.88282495  1
  Zn  Zn89  1  0.61027271  0.88556343  0.25165438  1
  Zn  Zn90  1  0.13393267  -0.00425218  0.61892980  1
  Zn  Zn91  1  0.75049129  0.25721926  0.00418531  1
  Zn  Zn92  1  0.11539909  0.13653676  -0.01153653  1
  Zn  Zn93  1  -0.00033926  0.36467065  0.88156442  1
  Zn  Zn94  1  0.00025953  0.37622605  0.37997197  1
  Zn  Zn95  1  0.87296064  0.63054137  0.76194877  1
  Zn  Zn96  1  0.62651407  0.74257954  0.86266494  1
  Zn  Zn97  1  0.50333751  0.25279388  0.24785537  1
  Zn  Zn98  1  0.62235624  0.00247535  0.62034439  1
  Zn  Zn99  1  0.76052702  0.74514697  -0.01555517  1
  Zn  Zn100  1  0.24390651  0.12105236  0.86968369  1
  Zn  Zn101  1  0.61951479  0.12654872  0.49842268  1
  Zn  Zn102  1  0.04151195  0.87551625  0.35882902  1
  Zn  Zn103  1  0.87459669  -0.00147134  0.87583151  1
  Zn  Zn104  1  0.50234717  0.12249477  0.62114126  1
  Zn  Zn105  1  0.87189050  0.74807315  0.61833983  1
  Zn  Zn106  1  0.25946396  -0.00849950  0.74284931  1
  Zn  Zn107  1  0.19027281  0.07747969  0.17620492  1
  Zn  Zn108  1  0.19269328  0.17801898  0.68166620  1
  Zn  Zn109  1  0.18828213  0.70066936  0.18828022  1
  Zn  Zn110  1  0.18504954  0.68158240  0.68751263  1
  Zn  Zn111  1  0.68764818  0.18714299  0.18418316  1
  Zn  Zn112  1  0.68461563  0.18328671  0.68773455  1
  Zn  Zn113  1  0.68670968  0.68556681  0.18882751  1
  Zn  Zn114  1  0.68877951  0.69351781  0.68356802  1
  Zn  Zn115  1  0.31598718  0.32047295  0.31339643  1
  Zn  Zn116  1  0.31952578  0.31414793  0.80950725  1
  Zn  Zn117  1  0.25692006  0.82996872  0.33381111  1
  Zn  Zn118  1  0.31169946  0.81218032  0.81089308  1
  Zn  Zn119  1  0.81262492  0.31410006  0.31466431  1
  Zn  Zn120  1  0.81980823  0.31488884  0.82096414  1
  Zn  Zn121  1  0.81219525  0.81639418  0.30869990  1
  Zn  Zn122  1  0.80943919  0.81208757  0.81277063  1
  Zn  Zn123  1  0.18688986  0.44782912  0.44328840  1
  Zn  Zn124  1  0.18208892  0.42941838  0.93860224  1
  Zn  Zn125  1  0.19178306  0.94624001  0.44312306  1
  Zn  Zn126  1  0.19024688  0.94007550  0.92720273  1
  Zn  Zn127  1  0.68862397  0.43864526  0.44046979  1
  Zn  Zn128  1  0.68264247  0.43532095  0.91831567  1
  Zn  Zn129  1  0.69040491  0.93934345  0.43540902  1
  Zn  Zn130  1  0.69001162  0.92857668  0.93296985  1
  Zn  Zn131  1  0.32115716  0.06693953  0.05263015  1
  Zn  Zn132  1  0.31408943  0.06409556  0.56343273  1
  Zn  Zn133  1  0.31241368  0.57082038  0.06273787  1
  Zn  Zn134  1  0.31467396  0.56216086  0.57091071  1
  Zn  Zn135  1  0.81745104  0.06026758  0.06713165  1
  Zn  Zn136  1  0.81151230  0.06028931  0.56169860  1
  Zn  Zn137  1  0.81026785  0.57010510  0.06687542  1
  Zn  Zn138  1  0.81384866  0.56468617  0.56693072  1
  Zn  Zn139  1  0.44048789  0.43996973  0.18757414  1
  Zn  Zn140  1  0.43698263  0.44058035  0.68687953  1
  Zn  Zn141  1  0.32352441  0.94827747  0.18386664  1
  Zn  Zn142  1  0.44071216  0.93854430  0.68180889  1
  Zn  Zn143  1  0.93319914  0.43997746  0.19005928  1
  Zn  Zn144  1  0.93475972  0.43311643  0.69274307  1
  Zn  Zn145  1  0.94060517  0.93538428  0.18900440  1
  Zn  Zn146  1  0.93751300  0.93764825  0.68573706  1
  Zn  Zn147  1  0.05998291  0.06869626  0.31976766  1
  Zn  Zn148  1  0.06268928  0.06082308  0.81540592  1
  Zn  Zn149  1  0.06300117  0.56574985  0.31306798  1
  Zn  Zn150  1  0.08106512  0.52232570  0.83584804  1
  Zn  Zn151  1  0.55487391  0.06964224  0.31166853  1
  Zn  Zn152  1  0.56139999  0.06019805  0.81251804  1
  Zn  Zn153  1  0.56562970  0.56883002  0.31820485  1
  Zn  Zn154  1  0.56380912  0.56504972  0.81327208  1
  Zn  Zn155  1  0.44239079  0.18801275  0.43646140  1
  Zn  Zn156  1  0.43584561  0.18892114  0.93572673  1
  Zn  Zn157  1  0.43577653  0.69180960  0.43878407  1
  Zn  Zn158  1  0.43836605  0.69326638  0.94147020  1
  Zn  Zn159  1  0.93687730  0.18662094  0.43434593  1
  Zn  Zn160  1  0.93729280  0.18370592  0.93804085  1
  Zn  Zn161  1  0.95033354  0.69084916  0.43561300  1
  Zn  Zn162  1  0.93608676  0.68099426  0.93580619  1
  Zn  Zn163  1  0.06451373  0.30720649  0.07146314  1
  Zn  Zn164  1  0.06195995  0.31290142  0.56717673  1
  Zn  Zn165  1  0.06059213  0.80902843  0.06400961  1
  Zn  Zn166  1  0.06408457  0.80895143  0.55470562  1
  Zn  Zn167  1  0.55619831  0.30510591  0.05718322  1
  Zn  Zn168  1  0.56597130  0.31373014  0.55967710  1
  Zn  Zn169  1  0.54625961  0.81767929  0.07160722  1
  Zn  Zn170  1  0.55802263  0.81914767  0.55891637  1
  O  O171  1  0.11354919  0.14192066  0.10700825  1
  O  O172  1  0.11430923  0.12833316  0.61180791  1
  O  O173  1  0.11733991  0.62189020  0.12343830  1
  O  O174  1  0.11731642  0.61154443  0.62440859  1
  O  O175  1  0.61290363  0.11867348  0.12637579  1
  O  O176  1  0.62216733  0.12156726  0.61732140  1
  O  O177  1  0.61052506  0.63162380  0.11738918  1
  O  O178  1  0.61977433  0.62288392  0.61968062  1
  O  O179  1  0.37893153  0.39412366  0.38794884  1
  O  O180  1  0.38607482  0.38334646  0.87860612  1
  O  O181  1  0.35834066  0.89069798  0.38709228  1
  O  O182  1  0.38240247  0.87901929  0.87292759  1
  O  O183  1  0.87554483  0.38280078  0.38667806  1
  O  O184  1  0.88677530  0.38778169  0.87036807  1
  O  O185  1  0.86823886  0.88883438  0.38027229  1
  O  O186  1  0.88278659  0.87373443  0.88405469  1
  O  O187  1  0.26573183  0.01767712  0.38508332  1
  O  O188  1  0.26549209  -0.00109061  0.86200356  1
  O  O189  1  0.24898841  0.47790322  0.34910012  1
  O  O190  1  0.25799342  0.50575489  0.86984158  1
  O  O191  1  0.75732943  0.00474284  0.36628623  1
  O  O192  1  0.75148328  0.00515680  0.86592698  1
  O  O193  1  0.75479090  0.51018631  0.37038106  1
  O  O194  1  0.74604978  0.49926248  0.85367767  1
  O  O195  1  0.24680723  0.49510125  0.12895052  1
  O  O196  1  0.24295492  0.49439521  0.63395808  1
  O  O197  1  0.25550048  1.00714144  0.12057816  1
  O  O198  1  0.24343963  1.01657484  0.63489849  1
  O  O199  1  0.74506269  0.49933520  0.13672950  1
  O  O200  1  0.74308431  0.49321046  0.63192675  1
  O  O201  1  0.73410512  1.00381267  0.13017085  1
  O  O202  1  0.74874806  0.99273211  0.63196393  1
  O  O203  1  0.00244207  0.36840133  0.25234654  1
  O  O204  1  -0.00182800  0.35122013  0.74048012  1
  O  O205  1  -0.00332442  0.87021696  0.25517287  1
  O  O206  1  0.00586244  0.86771039  0.75340245  1
  O  O207  1  0.49265011  0.37608951  0.26740323  1
  O  O208  1  0.49373646  0.36817996  0.75708940  1
  O  O209  1  0.49565935  0.85438756  0.25370620  1
  O  O210  1  0.50975222  0.88069496  0.75453387  1
  O  O211  1  0.48888661  0.13140962  0.23819074  1
  O  O212  1  0.49293384  0.13394445  0.74749334  1
  O  O213  1  0.49758618  0.62411308  0.24490118  1
  O  O214  1  0.49171917  0.61926546  0.73986971  1
  O  O215  1  0.98823189  0.14219233  0.25226254  1
  O  O216  1  0.99250028  0.12892742  0.74228343  1
  O  O217  1  0.99119320  0.62269073  0.24079266  1
  O  O218  1  0.99954983  0.63366740  0.73763860  1
  O  O219  1  0.37167223  0.26030360  0.00474692  1
  O  O220  1  0.37168421  0.25669646  0.50330631  1
  O  O221  1  0.36056530  0.76425630  -0.00961939  1
  O  O222  1  0.37729404  0.76645428  0.50352159  1
  O  O223  1  0.87624658  0.24757481  0.01447152  1
  O  O224  1  0.86932258  0.25613218  0.50498174  1
  O  O225  1  0.87811428  0.75833063  0.00993726  1
  O  O226  1  0.88253083  0.76652184  0.49593835  1
  O  O227  1  0.12877301  0.24868425  0.49386353  1
  O  O228  1  0.14268194  0.25950951  0.99913720  1
  O  O229  1  0.12653541  0.75013962  0.48592161  1
  O  O230  1  0.12530033  0.74252599  0.98117577  1
  O  O231  1  0.63478648  0.25095121  0.49124308  1
  O  O232  1  0.62777205  0.25056329  0.98573058  1
  O  O233  1  0.62113790  0.74208135  0.49520992  1
  O  O234  1  0.61831875  0.74329079  1.00628540  1
  O  O235  1  0.48945540  0.24475657  0.12728847  1
  O  O236  1  0.49668335  0.25384250  0.63098466  1
  O  O237  1  0.48101172  0.74314504  0.13963042  1
  O  O238  1  0.49269831  0.73961910  0.61812478  1
  O  O239  1  0.99097239  0.24244760  0.13620589  1
  O  O240  1  0.99397322  0.23805250  0.63008970  1
  O  O241  1  0.98889749  0.74296856  0.13136128  1
  O  O242  1  0.99846999  0.74271868  0.62832365  1
  O  O243  1  0.00553686  0.25499922  0.36957183  1
  O  O244  1  -0.00161567  0.24569319  0.85985850  1
  O  O245  1  0.01776699  0.75538064  0.37514578  1
  O  O246  1  0.00937475  0.75051025  0.86519442  1
  O  O247  1  0.50890855  0.26227170  0.37518382  1
  O  O248  1  0.50558187  0.25563419  0.86799230  1
  O  O249  1  0.51492568  0.73655726  0.36952917  1
  O  O250  1  0.50349871  0.76121999  0.87205313  1
  O  O251  1  0.24012817  0.13945015  0.50580535  1
  O  O252  1  0.25623662  0.14454780  0.99313673  1
  O  O253  1  0.26353683  0.54714414  0.47170014  1
  O  O254  1  0.24224920  0.63867064  0.99678006  1
  O  O255  1  0.75335682  0.13922388  0.49846442  1
  O  O256  1  0.75849727  0.12353816  0.98779875  1
  O  O257  1  0.74351616  0.62246422  0.49322203  1
  O  O258  1  0.72990011  0.62997983  1.01095141  1
  O  O259  1  0.25706005  0.37210096  0.00402911  1
  O  O260  1  0.25648240  0.37102734  0.51007285  1
  O  O261  1  0.25237561  0.86345082  -0.00973970  1
  O  O262  1  0.26352646  0.88639058  0.51348128  1
  O  O263  1  0.73556375  0.38377484  0.01110709  1
  O  O264  1  0.75860861  0.36756033  0.50805218  1
  O  O265  1  0.75946110  0.87033666  0.00433784  1
  O  O266  1  0.76194935  0.88535367  0.50774222  1
  O  O267  1  0.13078246  0.49631601  0.24379559  1
  O  O268  1  0.14233105  0.50686689  0.74064683  1
  O  O269  1  0.08992541  1.04327308  0.21608765  1
  O  O270  1  0.11990284  0.98225960  0.74821550  1
  O  O271  1  0.63899993  0.50452444  0.25719525  1
  O  O272  1  0.63378746  0.50643446  0.73838590  1
  O  O273  1  0.62960538  1.00199228  0.25150803  1
  O  O274  1  0.63303026  0.99263197  0.74617822  1
  O  O275  1  0.37594164  0.01209054  0.26652406  1
  O  O276  1  0.37935804  0.01012080  0.75197085  1
  O  O277  1  0.36867425  0.50485061  0.25757426  1
  O  O278  1  0.36830670  0.51112556  0.75352235  1
  O  O279  1  0.86780558  0.00779565  0.25456021  1
  O  O280  1  0.86865389  0.01021819  0.74936457  1
  O  O281  1  0.86788471  0.51189593  0.25548788  1
  O  O282  1  0.85885423  0.50325591  0.74266185  1
  O  O283  1  0.12112446  0.37108009  0.37174920  1
  O  O284  1  0.10358468  0.41007307  0.86507831  1
  O  O285  1  0.15482006  0.87593608  0.36660341  1
  O  O286  1  0.11893467  0.86355466  0.86288752  1
  O  O287  1  0.61661850  0.36928017  0.38311530  1
  O  O288  1  0.61092921  0.36390795  0.87060891  1
  O  O289  1  0.63228176  0.86173131  0.37280489  1
  O  O290  1  0.61493038  0.87716688  0.86352631  1
  O  O291  1  0.38420895  0.13171753  0.13197216  1
  O  O292  1  0.38017750  0.13709560  0.63161542  1
  O  O293  1  0.39001141  0.61023444  0.13870604  1
  O  O294  1  0.38300750  0.63076552  0.63035805  1
  O  O295  1  0.88466631  0.12707419  0.13916983  1
  O  O296  1  0.88064783  0.12850621  0.63025317  1
  O  O297  1  0.88092077  0.63223315  0.13410593  1
  O  O298  1  0.88158906  0.63016085  0.63194515  1
  O  O299  1  0.26645800  0.25760451  0.11051847  1
  O  O300  1  0.25674454  0.25900207  0.62060815  1
  O  O301  1  0.28952456  0.72391537  0.12128558  1
  O  O302  1  0.26147790  0.73721510  0.62274423  1
  O  O303  1  0.76678954  0.24298473  0.12230296  1
  O  O304  1  0.75160487  0.25624520  0.61978743  1
  O  O305  1  0.76270604  0.74987184  0.12723512  1
  O  O306  1  0.75476006  0.76800468  0.62699043  1
  O  O307  1  0.23832364  0.26097698  0.37955118  1
  O  O308  1  0.25823974  0.25769482  0.88774509  1
  O  O309  1  0.24072053  0.72810005  0.38101421  1
  O  O310  1  0.23572387  0.74268865  0.86645271  1
  O  O311  1  0.74434233  0.25090427  0.38328940  1
  O  O312  1  0.74325586  0.24390314  0.87878551  1
  O  O313  1  0.74532949  0.73952045  0.36921652  1
  O  O314  1  0.73826355  0.75561781  0.87487803  1
  O  O315  1  -0.00191393  0.11142935  0.00500591  1
  O  O316  1  0.00244051  0.11810788  0.50564690  1
  O  O317  1  0.00463341  0.62448026  0.01677810  1
  O  O318  1  -0.01119218  0.61401627  0.51464059  1
  O  O319  1  0.49150695  0.13066404  0.01812364  1
  O  O320  1  0.49815656  0.11230819  0.50052924  1
  O  O321  1  0.50495309  0.62198235  0.01023066  1
  O  O322  1  0.50905574  0.61856310  0.50778870  1
  O  O323  1  0.49765557  0.38322319  0.49408581  1
  O  O324  1  0.49502241  0.38091585  0.99081321  1
  O  O325  1  0.48850974  0.88930509  0.49730438  1
  O  O326  1  0.48863443  0.86909449  0.98627381  1
  O  O327  1  0.98607324  0.37999645  0.50639793  1
  O  O328  1  1.00401663  0.38680444  1.00794102  1
  O  O329  1  0.99510075  0.88983313  0.50041837  1
  O  O330  1  0.99520649  0.87749221  0.99723458  1
  O  O331  1  0.51160528  0.49684846  0.39068274  1
  O  O332  1  0.49864043  0.49302812  0.88045992  1
  O  O333  1  0.48603610  1.00507173  0.38551255  1
  O  O334  1  0.48858966  0.98997419  0.86974672  1
  O  O335  1  0.99177927  0.49912615  0.38658239  1
  O  O336  1  0.99184925  0.51569453  0.90658174  1
  O  O337  1  0.99420724  0.99696463  0.38209706  1
  O  O338  1  0.99498992  0.99020750  0.88269522  1
  O  O339  1  -0.01016574  0.00544408  0.11162188  1
  O  O340  1  0.00108941  0.01138724  0.61789507  1
  O  O341  1  0.00347801  0.50716866  0.12144109  1
  O  O342  1  0.00527425  0.50398322  0.62629568  1
  O  O343  1  0.51338859  0.01399729  0.12364394  1
  O  O344  1  0.50072502  0.00165835  0.60707897  1
  O  O345  1  0.50197471  0.50649517  0.11695640  1
  O  O346  1  0.50869998  0.50705758  0.61885703  1
  O  O347  1  0.24776699  0.37812548  0.23697220  1
  O  O348  1  0.26062625  0.38532385  0.74059381  1
  O  O349  1  0.29770110  0.84660310  0.22901196  1
  O  O350  1  0.23238071  0.87086042  0.74837525  1
  O  O351  1  0.75446288  0.39399427  0.25772235  1
  O  O352  1  0.75220241  0.38109103  0.73982883  1
  O  O353  1  0.74743593  0.88974380  0.24401829  1
  O  O354  1  0.74651037  0.88742422  0.74239461  1
  O  O355  1  0.26797558  0.13218473  0.24437721  1
  O  O356  1  0.26953221  0.13586173  0.75394910  1
  O  O357  1  0.26187275  0.61267434  0.24148957  1
  O  O358  1  0.25928794  0.61749650  0.75642005  1
  O  O359  1  0.75550558  0.11621004  0.25010857  1
  O  O360  1  0.75592551  0.11551631  0.75417672  1
  O  O361  1  0.75664403  0.61801693  0.25848535  1
  O  O362  1  0.74977101  0.61450213  0.74059970  1
  O  O363  1  0.37949194  0.12498000  0.36240309  1
  O  O364  1  0.37749488  0.11659061  0.86741936  1
  O  O365  1  0.38344834  0.60825744  0.37307224  1
  O  O366  1  0.37416031  0.62360713  0.86832003  1
  O  O367  1  0.87403831  0.11559967  0.36393708  1
  O  O368  1  0.86645871  0.12253692  0.86603534  1
  O  O369  1  0.87135435  0.62328508  0.37114328  1
  O  O370  1  0.86994828  0.61718475  0.87472387  1
  O  O371  1  0.13197526  0.38018407  0.13372590  1
  O  O372  1  0.13680850  0.38301773  0.62413877  1
  O  O373  1  0.16453162  0.79600038  0.10976306  1
  O  O374  1  0.11625415  0.87542340  0.63611314  1
  O  O375  1  0.62085833  0.37586095  0.12580825  1
  O  O376  1  0.63413562  0.38666759  0.61889196  1
  O  O377  1  0.61896613  0.89101892  0.12810164  1
  O  O378  1  0.63156246  0.87954209  0.62744744  1
  O  O379  1  0.11344430  0.25860388  0.26119325  1
  O  O380  1  0.11361300  0.24083737  0.74333507  1
  O  O381  1  0.12599760  0.73213396  0.27456817  1
  O  O382  1  0.11497210  0.75551182  0.74881420  1
  O  O383  1  0.62657187  0.24959165  0.26183691  1
  O  O384  1  0.61378829  0.24664416  0.75718235  1
  O  O385  1  0.61838782  0.74934459  0.25881063  1
  O  O386  1  0.62549078  0.76557530  0.74494840  1
  O  O387  1  0.37622217  0.24507094  0.24379263  1
  O  O388  1  0.38897464  0.24645600  0.74471050  1
  O  O389  1  0.38705566  0.72671333  0.26172043  1
  O  O390  1  0.37145754  0.73963372  0.74087341  1
  O  O391  1  0.87779321  0.24513608  0.24702055  1
  O  O392  1  0.87354093  0.23640231  0.74382153  1
  O  O393  1  0.87432713  0.73872088  0.24670582  1
  O  O394  1  0.88767737  0.75413737  0.74698416  1
  O  O395  1  0.39436057  0.49513193  0.50559850  1
  O  O396  1  0.38050620  0.49831581  0.99298089  1
  O  O397  1  0.38097305  0.99573849  0.49349409  1
  O  O398  1  0.36847164  0.98499281  0.98512512  1
  O  O399  1  0.88004147  0.49241144  0.50005592  1
  O  O400  1  0.88421101  0.49963329  1.01452707  1
  O  O401  1  0.88239468  0.99816240  0.48973701  1
  O  O402  1  0.87936535  0.98624754  0.99979759  1
  O  O403  1  0.11357796  -0.00805569  -0.00294757  1
  O  O404  1  0.11621612  0.01168460  0.50023019  1
  O  O405  1  0.11897296  0.50760242  0.01110158  1
  O  O406  1  0.10555804  0.48944621  0.51282001  1
  O  O407  1  0.62914178  -0.00200516  0.00865773  1
  O  O408  1  0.61201764  0.00009522  0.49359926  1
  O  O409  1  0.62647934  0.49904716  0.00858985  1
  O  O410  1  0.62503675  0.51118998  0.51173885  1
  O  O411  1  0.37339224  0.36987380  0.11999409  1
  O  O412  1  0.36809163  0.37211111  0.61930559  1
  O  O413  1  0.38606049  0.87377019  0.11007675  1
  O  O414  1  0.37961178  0.86547966  0.61454129  1
  O  O415  1  0.87833591  0.35769813  0.13107004  1
  O  O416  1  0.86568477  0.36751956  0.62045189  1
  O  O417  1  0.87179419  0.86756053  0.11878385  1
  O  O418  1  0.86955222  0.87715453  0.61330753  1
  O  O419  1  0.11903687  0.13843360  0.38948790  1
  O  O420  1  0.13125974  0.11854140  0.87933156  1
  O  O421  1  0.12143534  0.61822254  0.39203797  1
  O  O422  1  0.13055238  0.62610220  0.87803692  1
  O  O423  1  0.62533193  0.13779254  0.37872792  1
  O  O424  1  0.63474324  0.13219022  0.86758072  1
  O  O425  1  0.63628805  0.63302561  0.38596293  1
  O  O426  1  0.61314030  0.62654023  0.89778438  1
