# generated using pymatgen
data_V85Zn86O256
_symmetry_space_group_name_H-M   'P 1'
_cell_length_a   16.94854656
_cell_length_b   16.95741516
_cell_length_c   16.95534623
_cell_angle_alpha   90.04425122
_cell_angle_beta   90.03636837
_cell_angle_gamma   89.99792485
_symmetry_Int_Tables_number   1
_chemical_formula_structural   V85Zn86O256
_chemical_formula_sum   'V85 Zn86 O256'
_cell_volume   4873.02409375
_cell_formula_units_Z   1
loop_
 _symmetry_equiv_pos_site_id
 _symmetry_equiv_pos_as_xyz
  1  'x, y, z'
loop_
 _atom_site_type_symbol
 _atom_site_label
 _atom_site_symmetry_multiplicity
 _atom_site_fract_x
 _atom_site_fract_y
 _atom_site_fract_z
 _atom_site_occupancy
  V  V0  1  0.75336745  0.74354028  0.48767064  1
  V  V1  1  0.24692124  0.24889118  0.00177058  1
  V  V2  1  0.62330194  0.87194871  0.74629558  1
  V  V3  1  0.00024817  0.13293402  0.62300307  1
  V  V4  1  0.64164587  0.90765498  0.21519667  1
  V  V5  1  0.51315972  0.62062884  0.62333353  1
  V  V6  1  0.24797798  0.61525484  0.86893702  1
  V  V7  1  0.87365588  0.13863669  0.25433526  1
  V  V8  1  0.81472121  0.94280227  0.05303097  1
  V  V9  1  0.12140349  0.62428051  -0.00142650  1
  V  V10  1  0.37688056  0.74802894  0.62207534  1
  V  V11  1  0.12456719  0.62396258  0.49800035  1
  V  V12  1  0.50784639  0.25131538  0.75512426  1
  V  V13  1  0.25274375  0.86965366  0.13327664  1
  V  V14  1  0.37457790  0.37582463  0.00089996  1
  V  V15  1  0.38580176  0.74547054  0.13215031  1
  V  V16  1  0.37436748  0.12542083  0.75101012  1
  V  V17  1  0.50162547  0.36921354  0.37458734  1
  V  V18  1  -0.00053623  -0.00244032  -0.00016367  1
  V  V19  1  0.37097442  0.61565351  0.74585546  1
  V  V20  1  0.12677836  0.75158225  0.86796498  1
  V  V21  1  0.12535154  0.00539893  0.62342979  1
  V  V22  1  0.12450189  -0.00093626  0.13534833  1
  V  V23  1  0.11784613  0.24639744  0.37461940  1
  V  V24  1  0.62611127  0.12197551  0.50200055  1
  V  V25  1  0.50482750  0.37389391  0.88069704  1
  V  V26  1  0.00500970  0.00495724  0.50088332  1
  V  V27  1  0.74948477  0.00015597  0.74771252  1
  V  V28  1  0.11878141  0.25403092  0.87769465  1
  V  V29  1  -0.00524436  0.75213750  0.74107190  1
  V  V30  1  0.87804231  0.87078253  0.50551439  1
  V  V31  1  0.75230512  0.24786768  0.51152384  1
  V  V32  1  0.87322954  0.65272057  0.24449181  1
  V  V33  1  0.87330113  0.62422177  0.74519804  1
  V  V34  1  0.13322359  0.38137356  0.75099810  1
  V  V35  1  0.87637720  0.49042781  0.87441682  1
  V  V36  1  0.00031003  0.49916017  0.50321730  1
  V  V37  1  0.50311083  0.49794986  0.00878723  1
  V  V38  1  0.24799160  0.12603822  0.36774853  1
  V  V39  1  0.24760405  0.12476543  0.87634719  1
  V  V40  1  0.24840804  -0.00171609  0.74943895  1
  V  V41  1  0.62514777  0.74959057  0.87829078  1
  V  V42  1  0.86693345  0.51004795  0.37237376  1
  V  V43  1  0.37543366  0.37172655  0.50052169  1
  V  V44  1  0.12412146  0.12371588  0.00198371  1
  V  V45  1  0.87515810  0.37202149  0.50681673  1
  V  V46  1  0.37262552  -0.00323039  0.87460366  1
  V  V47  1  0.00011652  0.13304862  0.13508389  1
  V  V48  1  -0.00345960  0.37345334  0.36660289  1
  V  V49  1  0.00566098  0.86843045  0.37788817  1
  V  V50  1  0.24449885  0.24414707  0.50093243  1
  V  V51  1  0.37304993  0.24910581  0.62603523  1
  V  V52  1  0.37420936  0.49711905  0.37217209  1
  V  V53  1  0.76474612  0.75846336  0.00669228  1
  V  V54  1  0.74443055  0.39013547  0.62672469  1
  V  V55  1  0.24321588  0.37528989  0.12699888  1
  V  V56  1  0.62556402  -0.00432693  0.62477343  1
  V  V57  1  -0.00305721  0.25982587  0.74994555  1
  V  V58  1  0.37431666  0.87114057  0.00014256  1
  V  V59  1  0.75093740  0.86210329  0.62598885  1
  V  V60  1  0.63200667  0.62230751  0.48234200  1
  V  V61  1  0.37272149  0.24234788  0.13111837  1
  V  V62  1  0.62391821  0.39182414  0.74544134  1
  V  V63  1  0.63512684  0.37537975  0.24456533  1
  V  V64  1  0.37532353  0.87431317  0.49193062  1
  V  V65  1  0.62849911  0.62489007  0.00814959  1
  V  V66  1  0.50137255  0.74800529  0.74627808  1
  V  V67  1  0.37610849  0.00444651  0.36600391  1
  V  V68  1  0.24904314  0.74929397  0.49669709  1
  V  V69  1  0.50353587  0.12081458  0.12780723  1
  V  V70  1  0.87199312  -0.00338059  0.87132810  1
  V  V71  1  0.62655950  0.24190938  0.37436974  1
  V  V72  1  0.61778219  0.13629377  -0.01276422  1
  V  V73  1  -0.00320749  0.48744664  -0.00339058  1
  V  V74  1  0.49817374  -0.00281472  0.49843075  1
  V  V75  1  0.87385427  0.13089394  0.74460346  1
  V  V76  1  0.87293321  -0.00308439  0.37267615  1
  V  V77  1  0.49965798  0.12406740  0.62805400  1
  V  V78  1  0.11592859  0.50223026  0.13058077  1
  V  V79  1  0.50915459  0.49613548  0.50246763  1
  V  V80  1  0.74477132  0.13897289  0.87340405  1
  V  V81  1  0.49733103  0.23864635  0.24954957  1
  V  V82  1  0.50393527  -0.00305954  0.00145500  1
  V  V83  1  0.06904401  0.81647900  0.20365118  1
  V  V84  1  0.75208661  0.62163683  0.87141148  1
  Zn  Zn85  1  0.83517382  0.32447285  0.03592445  1
  Zn  Zn86  1  0.56474536  0.80934936  0.32487142  1
  Zn  Zn87  1  0.24869770  0.87529759  0.62419447  1
  Zn  Zn88  1  -0.00404531  0.62935252  0.62186809  1
  Zn  Zn89  1  0.49727424  0.87120432  0.87371541  1
  Zn  Zn90  1  0.12184621  0.87648907  0.74947708  1
  Zn  Zn91  1  0.25267479  0.74678052  -0.00228510  1
  Zn  Zn92  1  0.74337037  0.51604585  0.25039877  1
  Zn  Zn93  1  0.13281582  0.50449083  0.62863453  1
  Zn  Zn94  1  0.12588494  0.75181475  0.37152365  1
  Zn  Zn95  1  0.68812145  0.45451336  0.08698824  1
  Zn  Zn96  1  0.24691831  0.50000527  0.25273000  1
  Zn  Zn97  1  0.75134282  0.11857793  0.37810009  1
  Zn  Zn98  1  -0.00741468  0.87314602  0.87280996  1
  Zn  Zn99  1  0.00100119  0.63834721  0.13289109  1
  Zn  Zn100  1  0.25301219  0.38301323  0.62715732  1
  Zn  Zn101  1  0.50915098  0.62110312  0.13459720  1
  Zn  Zn102  1  0.11937369  0.37465384  0.25273485  1
  Zn  Zn103  1  0.38163432  0.62611185  0.25437237  1
  Zn  Zn104  1  0.24930239  0.62211609  0.37228162  1
  Zn  Zn105  1  0.25155240  0.00055593  0.24999339  1
  Zn  Zn106  1  0.37289028  0.49804361  0.87455164  1
  Zn  Zn107  1  0.18158123  0.18876826  0.19206805  1
  Zn  Zn108  1  0.18484693  0.18887316  0.68816538  1
  Zn  Zn109  1  0.20044459  0.67840946  0.18428415  1
  Zn  Zn110  1  0.18714758  0.68504539  0.68299702  1
  Zn  Zn111  1  0.68368461  0.16663621  0.19440826  1
  Zn  Zn112  1  0.68653326  0.19053707  0.68775760  1
  Zn  Zn113  1  0.68782594  0.69318548  0.18928119  1
  Zn  Zn114  1  0.68928621  0.68457021  0.68660177  1
  Zn  Zn115  1  0.30983719  0.31198799  0.31173240  1
  Zn  Zn116  1  0.31350295  0.31198221  0.81520248  1
  Zn  Zn117  1  0.31404412  0.81295386  0.31263784  1
  Zn  Zn118  1  0.31121391  0.80789889  0.81034748  1
  Zn  Zn119  1  0.81071421  0.31182958  0.32240752  1
  Zn  Zn120  1  0.80937911  0.31527314  0.80707918  1
  Zn  Zn121  1  0.76557882  0.80544710  0.28505390  1
  Zn  Zn122  1  0.81104114  0.80921325  0.81245887  1
  Zn  Zn123  1  0.18719308  0.43355403  0.44060946  1
  Zn  Zn124  1  0.18186514  0.43645486  0.93939814  1
  Zn  Zn125  1  0.18747175  0.93835005  0.43710453  1
  Zn  Zn126  1  0.18719744  0.93462354  0.94077411  1
  Zn  Zn127  1  0.68781444  0.43300039  0.43564700  1
  Zn  Zn128  1  0.69021375  0.43405243  0.92418811  1
  Zn  Zn129  1  0.68964435  0.92784080  0.43628647  1
  Zn  Zn130  1  0.68201995  0.94063571  0.93235137  1
  Zn  Zn131  1  0.31309807  0.05835478  0.06413680  1
  Zn  Zn132  1  0.31062809  0.06485525  0.55920397  1
  Zn  Zn133  1  0.30875786  0.56120161  0.06108730  1
  Zn  Zn134  1  0.31312950  0.56029007  0.55916807  1
  Zn  Zn135  1  0.80523001  0.15109092  0.06630664  1
  Zn  Zn136  1  0.81568002  0.05932885  0.56344806  1
  Zn  Zn137  1  0.82126365  0.57696990  0.06278180  1
  Zn  Zn138  1  0.81336720  0.56225052  0.56108074  1
  Zn  Zn139  1  0.44118329  0.42743231  0.18774384  1
  Zn  Zn140  1  0.43882927  0.43661308  0.68530881  1
  Zn  Zn141  1  0.44805123  0.93157736  0.19056724  1
  Zn  Zn142  1  0.43575861  0.93380374  0.68414715  1
  Zn  Zn143  1  0.88892597  0.45159281  0.16885171  1
  Zn  Zn144  1  0.93600277  0.43997955  0.68697520  1
  Zn  Zn145  1  0.93365476  0.94599315  0.19116908  1
  Zn  Zn146  1  0.93785013  0.93815061  0.68698384  1
  Zn  Zn147  1  0.06214265  0.06379777  0.31674590  1
  Zn  Zn148  1  0.06027651  0.06538487  0.81093788  1
  Zn  Zn149  1  0.05267278  0.56615647  0.31380029  1
  Zn  Zn150  1  0.05619302  0.56361330  0.81215618  1
  Zn  Zn151  1  0.58203920  0.02541871  0.32500251  1
  Zn  Zn152  1  0.55909090  0.05768400  0.81327173  1
  Zn  Zn153  1  0.55806019  0.55796253  0.30956826  1
  Zn  Zn154  1  0.55808370  0.56411071  0.81941969  1
  Zn  Zn155  1  0.43617224  0.18162449  0.43762505  1
  Zn  Zn156  1  0.43545914  0.19019903  0.93898230  1
  Zn  Zn157  1  0.44267642  0.68281805  0.42988463  1
  Zn  Zn158  1  0.43917927  0.68360203  0.93864092  1
  Zn  Zn159  1  0.93645622  0.18823677  0.43984088  1
  Zn  Zn160  1  0.93997281  0.18329056  0.93397946  1
  Zn  Zn161  1  0.93532900  0.68841434  0.43776826  1
  Zn  Zn162  1  0.94015119  0.68474855  0.93091087  1
  Zn  Zn163  1  0.01814938  0.33677357  0.09456262  1
  Zn  Zn164  1  0.06448785  0.31437694  0.56293951  1
  Zn  Zn165  1  0.06269338  0.81391661  0.04138355  1
  Zn  Zn166  1  0.06654443  0.81523499  0.56411437  1
  Zn  Zn167  1  0.66878767  0.29125082  0.06514094  1
  Zn  Zn168  1  0.56434885  0.31025947  0.56612478  1
  Zn  Zn169  1  0.56688816  0.81568085  0.06800812  1
  Zn  Zn170  1  0.54857508  0.79334923  0.52007643  1
  O  O171  1  0.12424193  0.11379615  0.12200893  1
  O  O172  1  0.11570873  0.11423368  0.63146005  1
  O  O173  1  0.12370027  0.62006772  0.11649791  1
  O  O174  1  0.12023703  0.62394893  0.61130532  1
  O  O175  1  0.60713293  0.12821042  0.10680513  1
  O  O176  1  0.61957756  0.11754467  0.62155135  1
  O  O177  1  0.62843152  0.62944384  0.11308146  1
  O  O178  1  0.61512651  0.62448312  0.62190686  1
  O  O179  1  0.38268221  0.37417441  0.38221773  1
  O  O180  1  0.38173506  0.37731383  0.88149849  1
  O  O181  1  0.37161507  0.88337010  0.38680335  1
  O  O182  1  0.37363659  0.87625893  0.88273977  1
  O  O183  1  0.87933710  0.38166271  0.38823920  1
  O  O184  1  0.86603892  0.39086130  0.87308645  1
  O  O185  1  0.88564423  0.88766621  0.39015767  1
  O  O186  1  0.87212311  0.89216965  0.86512670  1
  O  O187  1  0.25662365  0.00805922  0.37496187  1
  O  O188  1  0.25246553  0.00343084  0.86833529  1
  O  O189  1  0.26013454  0.49597591  0.37582897  1
  O  O190  1  0.24968006  0.51164775  0.87811323  1
  O  O191  1  0.77185523  0.00151266  0.39439064  1
  O  O192  1  0.75347782  0.00801052  0.86520197  1
  O  O193  1  0.76430276  0.49579413  0.37523436  1
  O  O194  1  0.76247539  0.51157893  0.87954435  1
  O  O195  1  0.23592323  0.49166759  0.12358380  1
  O  O196  1  0.24661972  0.49630683  0.61984494  1
  O  O197  1  0.24190221  0.99009910  0.12611826  1
  O  O198  1  0.24299228  1.00319133  0.63151658  1
  O  O199  1  0.77844636  0.49877018  0.13703619  1
  O  O200  1  0.74775199  0.48936890  0.62051995  1
  O  O201  1  0.76777624  1.01421553  0.09869736  1
  O  O202  1  0.74474560  0.99131837  0.62944138  1
  O  O203  1  -0.00343010  0.37765827  0.26708897  1
  O  O204  1  0.00627573  0.36300269  0.74406803  1
  O  O205  1  0.00319139  0.87715031  0.25830642  1
  O  O206  1  0.00066804  0.86855283  0.75334511  1
  O  O207  1  0.51074810  0.36034181  0.25633435  1
  O  O208  1  0.50378313  0.36925994  0.75505879  1
  O  O209  1  0.53139493  0.87180908  0.23146447  1
  O  O210  1  0.50413395  0.86574715  0.74922071  1
  O  O211  1  0.50447987  0.13439885  0.24177747  1
  O  O212  1  0.49439389  0.13207170  0.74819915  1
  O  O213  1  0.49537152  0.62274445  0.24654622  1
  O  O214  1  0.49456007  0.62948774  0.74155275  1
  O  O215  1  0.99073309  0.11853935  0.24586518  1
  O  O216  1  0.99221425  0.13397952  0.74335496  1
  O  O217  1  0.98050921  0.63047611  0.25242714  1
  O  O218  1  0.99205203  0.63378043  0.74669129  1
  O  O219  1  0.36595807  0.25642304  0.00736130  1
  O  O220  1  0.37167227  0.25252300  0.50778181  1
  O  O221  1  0.37504052  0.75951739  0.00300151  1
  O  O222  1  0.36950960  0.75538743  0.50463129  1
  O  O223  1  0.85895947  0.22403753  -0.00569573  1
  O  O224  1  0.86382871  0.25932885  0.49694918  1
  O  O225  1  0.86306155  0.75040552  -0.01177587  1
  O  O226  1  0.86575021  0.75737665  0.50184168  1
  O  O227  1  0.13570467  0.25606866  0.49157310  1
  O  O228  1  0.13111607  0.24132750  0.98973322  1
  O  O229  1  0.13376775  0.74416663  0.50040685  1
  O  O230  1  0.12943523  0.74204229  0.98627544  1
  O  O231  1  0.62776139  0.24071667  0.49503934  1
  O  O232  1  0.60488401  0.23481892  0.98845297  1
  O  O233  1  0.64548816  0.73596566  0.50836693  1
  O  O234  1  0.63112262  0.74523740  0.99210633  1
  O  O235  1  0.48730371  0.23918449  0.13445819  1
  O  O236  1  0.49195258  0.24329186  0.63248911  1
  O  O237  1  0.48763762  0.74584095  0.11514367  1
  O  O238  1  0.49316789  0.73964152  0.62099847  1
  O  O239  1  1.02203154  0.22947206  0.12850094  1
  O  O240  1  1.00677526  0.23937903  0.63239139  1
  O  O241  1  1.01574004  0.76193967  0.13393173  1
  O  O242  1  1.00292847  0.75135962  0.63697068  1
  O  O243  1  0.00860519  0.25972385  0.38754429  1
  O  O244  1  0.01183207  0.24210425  0.86522706  1
  O  O245  1  0.00106095  0.76506271  0.38177213  1
  O  O246  1  0.01026749  0.75144741  0.86475170  1
  O  O247  1  0.50861108  0.24736747  0.37146035  1
  O  O248  1  0.48939616  0.26036266  0.86438371  1
  O  O249  1  0.51133369  0.76597624  0.41119526  1
  O  O250  1  0.51158846  0.74673430  0.86931398  1
  O  O251  1  0.25385408  0.13785517  0.49081684  1
  O  O252  1  0.24415750  0.12756096  0.99599139  1
  O  O253  1  0.24263456  0.63282996  0.49581128  1
  O  O254  1  0.23784747  0.62529230  0.99084489  1
  O  O255  1  0.74608234  0.13162422  0.50371563  1
  O  O256  1  0.72458375  0.11967049  0.98526746  1
  O  O257  1  0.74760441  0.63472437  0.50209966  1
  O  O258  1  0.74681485  0.63641697  0.99068422  1
  O  O259  1  0.25049966  0.37000730  0.01097019  1
  O  O260  1  0.25936573  0.36093891  0.50056371  1
  O  O261  1  0.25787546  0.87308630  0.01167112  1
  O  O262  1  0.25805948  0.86872645  0.50294153  1
  O  O263  1  0.73384774  0.37408113  0.01104534  1
  O  O264  1  0.75464827  0.36820924  0.50677296  1
  O  O265  1  0.75442583  0.87296087  -0.00618711  1
  O  O266  1  0.75604406  0.86466275  0.50677236  1
  O  O267  1  0.12206024  0.50124835  0.24260261  1
  O  O268  1  0.11589328  0.48367906  0.75228460  1
  O  O269  1  0.12608478  1.00168432  0.23870729  1
  O  O270  1  0.13269717  1.00024622  0.74509720  1
  O  O271  1  0.62944519  0.48065269  0.25819283  1
  O  O272  1  0.61473676  0.49095522  0.75068207  1
  O  O273  1  0.62195080  1.00923739  0.22071315  1
  O  O274  1  0.62856074  0.99245748  0.74461234  1
  O  O275  1  0.37728562  -0.00903144  0.26363870  1
  O  O276  1  0.36826594  0.00449568  0.75340294  1
  O  O277  1  0.37908683  0.48885828  0.26541767  1
  O  O278  1  0.38139035  0.51297582  0.75111671  1
  O  O279  1  0.88115745  0.00633791  0.27102939  1
  O  O280  1  0.86962713  0.00882431  0.75248558  1
  O  O281  1  0.87582814  0.50136796  0.26881119  1
  O  O282  1  0.88297402  0.50815778  0.76481851  1
  O  O283  1  0.11395335  0.36892200  0.37630635  1
  O  O284  1  0.12938047  0.36493850  0.86383202  1
  O  O285  1  0.11506241  0.87315954  0.37764331  1
  O  O286  1  0.12737177  0.86236749  0.87215484  1
  O  O287  1  0.61917311  0.36051559  0.37083986  1
  O  O288  1  0.61156985  0.37639981  0.86306663  1
  O  O289  1  0.61963376  0.91377430  0.35269412  1
  O  O290  1  0.62173704  0.86567273  0.86617836  1
  O  O291  1  0.37853521  0.13700845  0.11819657  1
  O  O292  1  0.37929261  0.12915165  0.63194967  1
  O  O293  1  0.37359110  0.63957601  0.12000766  1
  O  O294  1  0.38197469  0.63316122  0.62755961  1
  O  O295  1  0.88643231  0.12372147  0.14653315  1
  O  O296  1  0.88337250  0.12108551  0.63706836  1
  O  O297  1  0.88297405  0.63979969  0.13880476  1
  O  O298  1  0.87430777  0.61783998  0.64087292  1
  O  O299  1  0.25131501  0.25501073  0.12263493  1
  O  O300  1  0.25648374  0.24811121  0.61839765  1
  O  O301  1  0.26063162  0.75560195  0.11941931  1
  O  O302  1  0.25845247  0.74965776  0.61367178  1
  O  O303  1  0.74322674  0.23056421  0.12243462  1
  O  O304  1  0.74311831  0.25928290  0.61431860  1
  O  O305  1  0.75322819  0.75029560  0.10412166  1
  O  O306  1  0.75197758  0.75990223  0.62309684  1
  O  O307  1  0.24499242  0.24354338  0.38163766  1
  O  O308  1  0.24219794  0.24360520  0.88023560  1
  O  O309  1  0.25102740  0.74955480  0.38635112  1
  O  O310  1  0.24223998  0.73906142  0.87369845  1
  O  O311  1  0.73716021  0.24710029  0.38902599  1
  O  O312  1  0.74521107  0.23771283  0.86276276  1
  O  O313  1  0.75319818  0.75496423  0.39068521  1
  O  O314  1  0.73896066  0.74580379  0.88027772  1
  O  O315  1  0.00613079  0.11395338  0.00805378  1
  O  O316  1  -0.00566353  0.11801504  0.51258977  1
  O  O317  1  0.01293176  0.62599120  0.00057680  1
  O  O318  1  0.00467403  0.61829764  0.50094073  1
  O  O319  1  0.50142534  0.11675623  0.00019401  1
  O  O320  1  0.50348649  0.11602323  0.50990564  1
  O  O321  1  0.51172754  0.61550615  0.00079948  1
  O  O322  1  0.51162280  0.61468347  0.50507402  1
  O  O323  1  0.49714799  0.37784820  0.49645328  1
  O  O324  1  0.49380216  0.38127153  0.99101407  1
  O  O325  1  0.48888692  0.89110920  0.51340607  1
  O  O326  1  0.49177923  0.88097528  0.99902621  1
  O  O327  1  0.99155284  0.38123176  0.49912905  1
  O  O328  1  1.01378664  0.38978455  0.98974762  1
  O  O329  1  0.99487316  0.88141933  0.49849808  1
  O  O330  1  1.00222218  0.89169594  0.99000120  1
  O  O331  1  0.49552704  0.48866019  0.38543806  1
  O  O332  1  0.49654979  0.49275961  0.88756921  1
  O  O333  1  0.48792383  1.01283987  0.39058215  1
  O  O334  1  0.48777714  0.99527762  0.88105816  1
  O  O335  1  0.99107561  0.49261580  0.38653854  1
  O  O336  1  0.98609235  0.50605264  0.88285050  1
  O  O337  1  0.99684312  0.99344172  0.38570046  1
  O  O338  1  0.99023092  1.00465362  0.88114696  1
  O  O339  1  0.00795904  0.00497046  0.11833103  1
  O  O340  1  0.00679353  0.00877075  0.62108784  1
  O  O341  1  0.00742654  0.50752525  0.11471743  1
  O  O342  1  0.00252959  0.50115854  0.61238234  1
  O  O343  1  0.48067778  0.01213749  0.11184831  1
  O  O344  1  0.50376268  0.00638613  0.62192310  1
  O  O345  1  0.49569577  0.49776373  0.11273346  1
  O  O346  1  0.49251643  0.50753498  0.61093846  1
  O  O347  1  0.24685264  0.37751362  0.23696427  1
  O  O348  1  0.23660799  0.36967156  0.74969054  1
  O  O349  1  0.25396005  0.87794324  0.23727374  1
  O  O350  1  0.25157871  0.88787718  0.74692030  1
  O  O351  1  0.73607195  0.36878998  0.25663979  1
  O  O352  1  0.73525238  0.37221923  0.74001744  1
  O  O353  1  0.74272545  0.90573169  0.23942960  1
  O  O354  1  0.74525829  0.87826208  0.74266506  1
  O  O355  1  0.24856551  0.12295034  0.26301765  1
  O  O356  1  0.25331767  0.11527939  0.75492881  1
  O  O357  1  0.26288540  0.61652783  0.25464830  1
  O  O358  1  0.25950746  0.62997120  0.75534086  1
  O  O359  1  0.76826802  0.12286669  0.26077125  1
  O  O360  1  0.75539269  0.12110891  0.75029834  1
  O  O361  1  0.76695248  0.62956739  0.24943522  1
  O  O362  1  0.75621217  0.63133915  0.76274432  1
  O  O363  1  0.36362809  0.11493489  0.37954173  1
  O  O364  1  0.36719565  0.11925429  0.86982132  1
  O  O365  1  0.37441246  0.61079943  0.37767443  1
  O  O366  1  0.36661170  0.62539253  0.86485025  1
  O  O367  1  0.87984048  0.11346764  0.37194401  1
  O  O368  1  0.86521732  0.11537390  0.86133361  1
  O  O369  1  0.87726394  0.61387720  0.37107895  1
  O  O370  1  0.86774321  0.61937396  0.86643267  1
  O  O371  1  0.12488431  0.38384241  0.12982061  1
  O  O372  1  0.12809334  0.37363681  0.64040143  1
  O  O373  1  0.12855808  0.87533136  0.12966513  1
  O  O374  1  0.12820880  0.89056708  0.62842038  1
  O  O375  1  0.62254083  0.37148654  0.14169887  1
  O  O376  1  0.62995261  0.37516569  0.63358828  1
  O  O377  1  0.63926804  0.88686568  0.11503540  1
  O  O378  1  0.63452711  0.87906817  0.63001072  1
  O  O379  1  0.12848841  0.25489547  0.26924320  1
  O  O380  1  0.11876345  0.25701109  0.75791780  1
  O  O381  1  0.13148659  0.74970075  0.25097760  1
  O  O382  1  0.11940305  0.75114484  0.75349320  1
  O  O383  1  0.61957135  0.24984748  0.25964060  1
  O  O384  1  0.60980178  0.25586000  0.74450619  1
  O  O385  1  0.65420500  0.77846863  0.25367418  1
  O  O386  1  0.61974369  0.75169621  0.75597993  1
  O  O387  1  0.38314805  0.25452203  0.24230084  1
  O  O388  1  0.37967770  0.24456039  0.74343670  1
  O  O389  1  0.37619628  0.75238559  0.23527854  1
  O  O390  1  0.38164333  0.74292753  0.73979232  1
  O  O391  1  0.87890249  0.23672704  0.26850257  1
  O  O392  1  0.88444277  0.24336975  0.75464497  1
  O  O393  1  0.86689977  0.75070582  0.25980393  1
  O  O394  1  0.88429481  0.73987952  0.75732266  1
  O  O395  1  0.38403025  0.49075023  0.49040472  1
  O  O396  1  0.38072198  0.49271445  0.99942677  1
  O  O397  1  0.37911725  0.99259334  0.49632918  1
  O  O398  1  0.37730249  0.98755062  0.99369590  1
  O  O399  1  0.88052311  0.49583392  0.49099713  1
  O  O400  1  0.88523746  0.50956421  0.98742018  1
  O  O401  1  0.88924014  0.99507633  0.49794629  1
  O  O402  1  0.88203470  1.00044435  0.98857626  1
  O  O403  1  0.11917987  0.00399100  0.00811885  1
  O  O404  1  0.11398181  -0.00166308  0.50830919  1
  O  O405  1  0.11738912  0.50839844  0.00449641  1
  O  O406  1  0.11622894  0.50672769  0.49871933  1
  O  O407  1  0.60632039  0.00736169  -0.01026410  1
  O  O408  1  0.61648448  0.00234472  0.50643660  1
  O  O409  1  0.62249104  0.50732819  0.00184675  1
  O  O410  1  0.61771999  0.50418546  0.49523190  1
  O  O411  1  0.36462989  0.36487330  0.12000771  1
  O  O412  1  0.37480722  0.36496669  0.61987848  1
  O  O413  1  0.37126355  0.86469495  0.11917786  1
  O  O414  1  0.37271618  0.86178150  0.61691591  1
  O  O415  1  0.90825860  0.36310178  0.11053796  1
  O  O416  1  0.86606520  0.38099699  0.61385429  1
  O  O417  1  0.87233025  0.88950294  0.11534584  1
  O  O418  1  0.86694142  0.88324374  0.61273210  1
  O  O419  1  0.13261181  0.13301826  0.37728719  1
  O  O420  1  0.13029084  0.13098008  0.87924143  1
  O  O421  1  0.12385615  0.62898339  0.38605205  1
  O  O422  1  0.13006978  0.63062317  0.87663618  1
  O  O423  1  0.62825792  0.12504408  0.38318347  1
  O  O424  1  0.62711907  0.12247457  0.87904791  1
  O  O425  1  0.62548321  0.61978489  0.38343915  1
  O  O426  1  0.63266697  0.63015115  0.88346819  1
