# generated using pymatgen
data_V85Zn86O256
_symmetry_space_group_name_H-M   'P 1'
_cell_length_a   16.96418874
_cell_length_b   16.97285768
_cell_length_c   16.96316172
_cell_angle_alpha   89.97531080
_cell_angle_beta   90.05646836
_cell_angle_gamma   89.97744896
_symmetry_Int_Tables_number   1
_chemical_formula_structural   V85Zn86O256
_chemical_formula_sum   'V85 Zn86 O256'
_cell_volume   4884.21286144
_cell_formula_units_Z   1
loop_
 _symmetry_equiv_pos_site_id
 _symmetry_equiv_pos_as_xyz
  1  'x, y, z'
loop_
 _atom_site_type_symbol
 _atom_site_label
 _atom_site_symmetry_multiplicity
 _atom_site_fract_x
 _atom_site_fract_y
 _atom_site_fract_z
 _atom_site_occupancy
  V  V0  1  0.63097704  0.62235039  -0.00216275  1
  V  V1  1  0.87766782  0.12587209  0.25397391  1
  V  V2  1  -0.00404891  0.75259130  0.23927113  1
  V  V3  1  0.87617998  0.24922165  0.12696852  1
  V  V4  1  0.74926548  0.50192296  0.75804939  1
  V  V5  1  0.01808889  0.37484718  0.88504642  1
  V  V6  1  0.87442379  0.37901326  0.00164623  1
  V  V7  1  0.86864221  0.63010024  0.24215770  1
  V  V8  1  0.87055814  0.75116797  0.63308320  1
  V  V9  1  0.75054365  0.37619029  0.62801640  1
  V  V10  1  0.62787161  0.25525188  0.36137149  1
  V  V11  1  0.01621144  0.24907424  0.76197769  1
  V  V12  1  0.25301207  0.62274872  0.87332029  1
  V  V13  1  0.12746365  0.75422530  0.87353312  1
  V  V14  1  0.49846972  0.62521236  0.62342023  1
  V  V15  1  0.62461455  0.62670453  0.49398604  1
  V  V16  1  0.86805522  0.62412796  0.75712735  1
  V  V17  1  0.61855044  0.37593975  0.75050070  1
  V  V18  1  0.61897052  0.49120383  0.12807373  1
  V  V19  1  0.75191213  -0.01067650  0.75033018  1
  V  V20  1  0.24587230  0.75195004  0.48632170  1
  V  V21  1  0.12158227  0.62224523  0.00198493  1
  V  V22  1  0.87540270  0.38103330  0.50504577  1
  V  V23  1  0.74820833  0.24961379  0.00053432  1
  V  V24  1  0.49929180  0.49836882  -0.00697107  1
  V  V25  1  0.61764356  0.25450435  0.87517971  1
  V  V26  1  0.25453519  0.00391573  0.26003970  1
  V  V27  1  0.49517898  0.25961144  0.74629561  1
  V  V28  1  0.74321168  0.49240994  0.25004793  1
  V  V29  1  0.51332900  0.74872835  0.25142115  1
  V  V30  1  0.12749040  0.13139916  -0.00095979  1
  V  V31  1  0.38343016  0.22486527  0.14608396  1
  V  V32  1  0.75206380  0.25171993  0.50444088  1
  V  V33  1  0.00351399  0.37454285  0.36850435  1
  V  V34  1  0.12148431  0.00585408  0.62467880  1
  V  V35  1  0.24744394  0.61249566  0.36768741  1
  V  V36  1  0.25051973  0.75374444  0.00190021  1
  V  V37  1  0.87495911  0.00460128  0.87971256  1
  V  V38  1  0.02073742  0.59412878  0.66024874  1
  V  V39  1  0.75653967  0.12695003  0.37864036  1
  V  V40  1  0.49560050  0.49547970  0.49771440  1
  V  V41  1  0.50365468  0.87550695  0.87254140  1
  V  V42  1  0.37485666  0.87432300  0.48941034  1
  V  V43  1  0.38020739  0.36477360  0.00353618  1
  V  V44  1  0.37594651  0.12573458  0.74536276  1
  V  V45  1  0.50161164  0.12599087  0.62280337  1
  V  V46  1  0.74753102  0.74829933  0.49972988  1
  V  V47  1  0.62452358  0.50068620  0.62525459  1
  V  V48  1  0.00119452  0.86602306  0.37844505  1
  V  V49  1  0.88565082  0.25614923  0.63203486  1
  V  V50  1  0.11551389  0.63510226  0.48718457  1
  V  V51  1  0.00240076  0.88047309  0.87654546  1
  V  V52  1  0.86951177  0.87276966  0.50920155  1
  V  V53  1  0.37416426  0.62427619  0.74941001  1
  V  V54  1  0.62706896  0.12728890  0.50200592  1
  V  V55  1  0.37870022  0.87489710  0.00093578  1
  V  V56  1  0.62530022  0.74222200  0.87356882  1
  V  V57  1  0.25321120  -0.00185068  0.74824961  1
  V  V58  1  0.25155079  0.86833790  0.62280222  1
  V  V59  1  0.00091614  0.75435319  0.75000434  1
  V  V60  1  0.62178223  -0.00295011  0.13274885  1
  V  V61  1  0.50266130  0.37440573  0.36624283  1
  V  V62  1  0.63060100  -0.00792223  0.62598567  1
  V  V63  1  0.74541168  0.12641954  0.87596639  1
  V  V64  1  0.86933910  0.50515639  0.37538787  1
  V  V65  1  0.49774577  0.00090017  0.49934697  1
  V  V66  1  0.12746823  0.87465028  0.74845582  1
  V  V67  1  0.36297411  0.37429454  0.49417156  1
  V  V68  1  0.37161049  0.62057262  0.25190376  1
  V  V69  1  0.87630925  0.12991453  0.74731166  1
  V  V70  1  0.00064885  0.00258645  0.00369518  1
  V  V71  1  0.12649717  0.86975034  0.25497438  1
  V  V72  1  -0.00163084  0.00140185  0.50511774  1
  V  V73  1  0.37194191  0.48931284  0.87438829  1
  V  V74  1  0.36112973  0.25101173  0.60929687  1
  V  V75  1  0.87454604  0.49785596  0.87787774  1
  V  V76  1  0.51703673  0.86763645  0.37436233  1
  V  V77  1  0.24779506  0.13234594  0.87213852  1
  V  V78  1  0.50177785  0.00629282  0.00279771  1
  V  V79  1  0.12869559  0.00077365  0.12781359  1
  V  V80  1  0.00227328  0.50500253  0.49754946  1
  V  V81  1  0.75321639  -0.01242473  0.24960268  1
  V  V82  1  -0.00424939  0.61602456  0.12125058  1
  V  V83  1  0.24947088  0.14080388  0.38230168  1
  V  V84  1  0.87657643  -0.00015933  0.37950384  1
  Zn  Zn85  1  0.61922305  0.12821053  0.00804420  1
  Zn  Zn86  1  0.25273531  0.37780728  0.12771575  1
  Zn  Zn87  1  0.14059223  0.37507180  0.24927931  1
  Zn  Zn88  1  0.01166264  0.24606394  0.25505788  1
  Zn  Zn89  1  0.74179809  0.62983618  0.36933460  1
  Zn  Zn90  1  0.12910317  0.13319529  0.49922590  1
  Zn  Zn91  1  0.62963593  0.86995630  0.74866700  1
  Zn  Zn92  1  0.75483704  0.74793060  0.00115011  1
  Zn  Zn93  1  0.21198607  0.44125945  0.66714434  1
  Zn  Zn94  1  0.87675145  0.86418233  0.01333529  1
  Zn  Zn95  1  0.49738339  0.62534399  0.12404050  1
  Zn  Zn96  1  0.74314965  0.36906601  0.13110575  1
  Zn  Zn97  1  0.75351954  0.86369611  0.12410054  1
  Zn  Zn98  1  0.00331563  0.12622413  0.13016904  1
  Zn  Zn99  1  0.37302450  0.74844802  0.62137626  1
  Zn  Zn100  1  0.25322263  0.87625778  0.12814454  1
  Zn  Zn101  1  0.25061101  0.24825347  0.00259463  1
  Zn  Zn102  1  0.13432799  0.50093180  0.14066200  1
  Zn  Zn103  1  0.41239436  0.03588027  0.33202709  1
  Zn  Zn104  1  0.37729507  0.00021688  0.87404402  1
  Zn  Zn105  1  0.37775650  0.75044841  0.12854088  1
  Zn  Zn106  1  0.49992172  0.75271787  0.74607538  1
  Zn  Zn107  1  0.19413810  0.19442492  0.18950076  1
  Zn  Zn108  1  0.18820033  0.18529397  0.68400954  1
  Zn  Zn109  1  0.18471623  0.68945172  0.18711464  1
  Zn  Zn110  1  0.20567610  0.64985193  0.66294612  1
  Zn  Zn111  1  0.69159833  0.17803072  0.18668823  1
  Zn  Zn112  1  0.68825857  0.18644790  0.68909977  1
  Zn  Zn113  1  0.68522194  0.68193066  0.18059314  1
  Zn  Zn114  1  0.68577758  0.68758957  0.68745289  1
  Zn  Zn115  1  0.30848554  0.31925206  0.31129117  1
  Zn  Zn116  1  0.30241419  0.31344830  0.80838678  1
  Zn  Zn117  1  0.31806226  0.81191373  0.30972098  1
  Zn  Zn118  1  0.31746771  0.80981714  0.81324475  1
  Zn  Zn119  1  0.81853671  0.31343814  0.31607482  1
  Zn  Zn120  1  0.81012001  0.31578228  0.81493116  1
  Zn  Zn121  1  0.81552357  0.80975697  0.31778245  1
  Zn  Zn122  1  0.82132623  0.80531363  0.84229856  1
  Zn  Zn123  1  0.18094404  0.44270762  0.43618661  1
  Zn  Zn124  1  0.19879904  0.45108521  0.97238900  1
  Zn  Zn125  1  0.18347018  0.93840675  0.43702005  1
  Zn  Zn126  1  0.19040477  0.94261317  0.93716571  1
  Zn  Zn127  1  0.68514950  0.43859319  0.43745707  1
  Zn  Zn128  1  0.68649417  0.43388371  0.93929306  1
  Zn  Zn129  1  0.69172381  0.93730227  0.44126572  1
  Zn  Zn130  1  0.68587027  0.93502578  0.94332716  1
  Zn  Zn131  1  0.31244453  0.06050952  0.06414775  1
  Zn  Zn132  1  0.31337669  0.06283382  0.55632756  1
  Zn  Zn133  1  0.31571737  0.56583231  0.06423548  1
  Zn  Zn134  1  0.31280018  0.56044138  0.55339335  1
  Zn  Zn135  1  0.81015368  0.06028048  0.06617135  1
  Zn  Zn136  1  0.81532440  0.06462998  0.56781182  1
  Zn  Zn137  1  0.80748114  0.56090900  0.06537559  1
  Zn  Zn138  1  0.81656367  0.56723695  0.57094855  1
  Zn  Zn139  1  0.43297416  0.43904522  0.18598491  1
  Zn  Zn140  1  0.39270307  0.42052254  0.70267120  1
  Zn  Zn141  1  0.44294293  0.93147826  0.18578759  1
  Zn  Zn142  1  0.43745533  0.93492908  0.68280068  1
  Zn  Zn143  1  0.93457584  0.44158945  0.18700297  1
  Zn  Zn144  1  1.03342887  0.42620550  0.68690948  1
  Zn  Zn145  1  0.93704208  0.93781508  0.18729983  1
  Zn  Zn146  1  0.93500455  0.93768264  0.68944340  1
  Zn  Zn147  1  0.06569749  0.06058621  0.31759691  1
  Zn  Zn148  1  0.06418099  0.06602007  0.81207765  1
  Zn  Zn149  1  0.06115349  0.56392763  0.30958730  1
  Zn  Zn150  1  0.06162539  0.55974536  0.83354246  1
  Zn  Zn151  1  0.57802928  0.06214580  0.31444931  1
  Zn  Zn152  1  0.56272295  0.06297852  0.81123472  1
  Zn  Zn153  1  0.55839960  0.56074241  0.31239083  1
  Zn  Zn154  1  0.55623350  0.56173366  0.81175460  1
  Zn  Zn155  1  0.43877005  0.19245065  0.33017175  1
  Zn  Zn156  1  0.43759281  0.18406004  0.92975230  1
  Zn  Zn157  1  0.43387034  0.68778895  0.43352786  1
  Zn  Zn158  1  0.44098456  0.68722366  0.93806091  1
  Zn  Zn159  1  0.96657762  0.20658873  0.46026429  1
  Zn  Zn160  1  0.93880502  0.18930190  0.93952906  1
  Zn  Zn161  1  0.93071948  0.69015281  0.43324406  1
  Zn  Zn162  1  0.93797792  0.68627247  0.93673995  1
  Zn  Zn163  1  0.06209073  0.31336792  0.07025317  1
  Zn  Zn164  1  0.08693539  0.31560655  0.55855075  1
  Zn  Zn165  1  0.06303813  0.81476143  0.06422930  1
  Zn  Zn166  1  0.06218378  0.81115692  0.56581469  1
  Zn  Zn167  1  0.55469499  0.31141328  0.06363507  1
  Zn  Zn168  1  0.55969218  0.31220966  0.55898073  1
  Zn  Zn169  1  0.57017638  0.81317370  0.06477190  1
  Zn  Zn170  1  0.56313564  0.81136798  0.56227674  1
  O  O171  1  0.12735499  0.11361631  0.12001724  1
  O  O172  1  0.12836596  0.10914250  0.62238912  1
  O  O173  1  0.11701801  0.62404424  0.11765349  1
  O  O174  1  0.09802633  0.64187113  0.61203673  1
  O  O175  1  0.63123752  0.10587122  0.12249659  1
  O  O176  1  0.62125715  0.11658271  0.62183479  1
  O  O177  1  0.61810463  0.60934885  0.11442063  1
  O  O178  1  0.61772212  0.61905045  0.61839997  1
  O  O179  1  0.38849896  0.36503396  0.38900304  1
  O  O180  1  0.37331852  0.38635631  0.88033146  1
  O  O181  1  0.38438650  0.87510519  0.38592062  1
  O  O182  1  0.38520554  0.87653602  0.88358828  1
  O  O183  1  0.87512616  0.39103908  0.38391784  1
  O  O184  1  0.87442777  0.38268155  0.88385463  1
  O  O185  1  0.88125111  0.88040498  0.38691422  1
  O  O186  1  0.88607028  0.89851066  0.86755240  1
  O  O187  1  0.25020956  -0.00605271  0.36173044  1
  O  O188  1  0.25289910  0.00406579  0.85963615  1
  O  O189  1  0.24827922  0.51471854  0.37613462  1
  O  O190  1  0.25941451  0.51375274  0.88519883  1
  O  O191  1  0.75668641  0.00555248  0.37205975  1
  O  O192  1  0.75655756  0.00935137  0.87193704  1
  O  O193  1  0.75323178  0.50439439  0.36905073  1
  O  O194  1  0.75432203  0.49360684  0.86410306  1
  O  O195  1  0.23457564  0.49324019  0.08218039  1
  O  O196  1  0.23544317  0.54302746  0.62974533  1
  O  O197  1  0.24279380  0.99696800  0.13515454  1
  O  O198  1  0.24499467  0.99264601  0.63289968  1
  O  O199  1  0.73927195  0.49560252  0.13366941  1
  O  O200  1  0.74664478  0.49679513  0.63767825  1
  O  O201  1  0.74413365  0.99774237  0.13652685  1
  O  O202  1  0.74263437  1.00619062  0.63751888  1
  O  O203  1  -0.01122129  0.37778230  0.26463327  1
  O  O204  1  0.00045434  0.35912659  0.77241185  1
  O  O205  1  0.00391842  0.86963048  0.25804750  1
  O  O206  1  0.00545869  0.87287916  0.75754760  1
  O  O207  1  0.49348886  0.38403257  0.26798299  1
  O  O208  1  0.49624675  0.36393236  0.74197719  1
  O  O209  1  0.50042522  0.86413882  0.26496165  1
  O  O210  1  0.50042651  0.87516524  0.75919687  1
  O  O211  1  0.48594373  0.10592374  0.27607663  1
  O  O212  1  0.49459664  0.13036909  0.74101811  1
  O  O213  1  0.49272886  0.63726998  0.25420967  1
  O  O214  1  0.49410486  0.62754809  0.73859155  1
  O  O215  1  0.98946384  0.12431591  0.25413692  1
  O  O216  1  0.99036587  0.13967902  0.76036139  1
  O  O217  1  0.99156883  0.63449122  0.24181605  1
  O  O218  1  0.98812989  0.63909544  0.76037240  1
  O  O219  1  0.38101172  0.26092051  -0.00786078  1
  O  O220  1  0.37345131  0.25934873  0.50796490  1
  O  O221  1  0.36856374  0.75746150  0.00023393  1
  O  O222  1  0.36576616  0.75769124  0.49914199  1
  O  O223  1  0.86833575  0.25430156  0.00727418  1
  O  O224  1  0.87382524  0.25740677  0.51530615  1
  O  O225  1  0.86235042  0.76454420  -0.04687012  1
  O  O226  1  0.87207018  0.75369506  0.51338530  1
  O  O227  1  0.07274690  0.22980694  0.49850502  1
  O  O228  1  0.12719670  0.23352685  1.00843725  1
  O  O229  1  0.12835409  0.74303931  0.49870523  1
  O  O230  1  0.13257078  0.75085689  0.99317670  1
  O  O231  1  0.63422141  0.24384503  0.49890015  1
  O  O232  1  0.62612637  0.24794101  0.99215062  1
  O  O233  1  0.63692329  0.74038714  0.51074868  1
  O  O234  1  0.61752124  0.73696481  0.99124547  1
  O  O235  1  0.47907614  0.25027603  0.12186381  1
  O  O236  1  0.49522932  0.24202796  0.62892419  1
  O  O237  1  0.50322995  0.75175881  0.14040898  1
  O  O238  1  0.49754962  0.73679910  0.62145301  1
  O  O239  1  0.98573768  0.24543810  0.12788910  1
  O  O240  1  0.98782845  0.26121647  0.64912834  1
  O  O241  1  1.00016603  0.74706629  0.13584225  1
  O  O242  1  0.98943422  0.75800923  0.64221800  1
  O  O243  1  -0.02241131  0.27275073  0.36731515  1
  O  O244  1  0.00099190  0.25841116  0.87044678  1
  O  O245  1  -0.00799550  0.76179816  0.36469996  1
  O  O246  1  0.00665857  0.76001042  0.86594965  1
  O  O247  1  0.51406208  0.26484434  0.37822749  1
  O  O248  1  0.50809208  0.24337278  0.85989840  1
  O  O249  1  0.49914156  0.76030243  0.36892850  1
  O  O250  1  0.50580057  0.75963688  0.87291377  1
  O  O251  1  0.24507460  0.12234711  0.48895294  1
  O  O252  1  0.24553142  0.12213989  0.98958884  1
  O  O253  1  0.24077383  0.63403118  0.48411518  1
  O  O254  1  0.24318596  0.63822899  0.99121444  1
  O  O255  1  0.74932496  0.13112863  0.49744472  1
  O  O256  1  0.74982675  0.12972961  0.98815028  1
  O  O257  1  0.74160282  0.63040543  0.50394049  1
  O  O258  1  0.73416054  0.62025379  0.99806166  1
  O  O259  1  0.26976298  0.36383037  -0.00629243  1
  O  O260  1  0.26313338  0.38373844  0.49266226  1
  O  O261  1  0.25985252  0.87104518  -0.00152310  1
  O  O262  1  0.25617376  0.87142951  0.50185973  1
  O  O263  1  0.75771273  0.36514542  0.00235178  1
  O  O264  1  0.75532409  0.37236464  0.50720225  1
  O  O265  1  0.75785096  0.87293831  -0.00072363  1
  O  O266  1  0.76164532  0.86596012  0.50047419  1
  O  O267  1  0.11701130  0.48982908  0.25149672  1
  O  O268  1  0.07948829  0.52662319  0.72571729  1
  O  O269  1  0.13245677  0.99103462  0.24511070  1
  O  O270  1  0.13120156  0.99477386  0.74356905  1
  O  O271  1  0.63055218  0.50516584  0.24072552  1
  O  O272  1  0.62867661  0.49545363  0.74679169  1
  O  O273  1  0.63799444  0.99904577  0.24163779  1
  O  O274  1  0.63522952  0.99914591  0.74397897  1
  O  O275  1  0.35727786  -0.01681044  0.24646960  1
  O  O276  1  0.36760638  0.00628588  0.74515965  1
  O  O277  1  0.38341255  0.52123292  0.24763965  1
  O  O278  1  0.38626588  0.51756923  0.76286897  1
  O  O279  1  0.87144431  0.00705720  0.25854385  1
  O  O280  1  0.87033865  0.01179715  0.75490434  1
  O  O281  1  0.86645239  0.51084499  0.25612305  1
  O  O282  1  0.86472979  0.50871510  0.76023994  1
  O  O283  1  0.10541402  0.37709571  0.37950092  1
  O  O284  1  0.11471919  0.38422954  0.89354920  1
  O  O285  1  0.11306585  0.87875392  0.36682243  1
  O  O286  1  0.12151225  0.87460859  0.86920714  1
  O  O287  1  0.61467866  0.36750177  0.37972949  1
  O  O288  1  0.62766547  0.36179106  0.86711999  1
  O  O289  1  0.61515813  0.87106172  0.38444295  1
  O  O290  1  0.61415418  0.86931448  0.87398347  1
  O  O291  1  0.37872453  0.12658600  0.12936021  1
  O  O292  1  0.38036067  0.13502915  0.62340341  1
  O  O293  1  0.37693510  0.63141386  0.13284211  1
  O  O294  1  0.38261533  0.62525047  0.63164061  1
  O  O295  1  0.87553483  0.13088714  0.13570415  1
  O  O296  1  0.87108430  0.13657647  0.64079392  1
  O  O297  1  0.88000694  0.62232465  0.13166705  1
  O  O298  1  0.89238251  0.63032895  0.64205546  1
  O  O299  1  0.27458242  0.24679028  0.12066704  1
  O  O300  1  0.26229273  0.24703979  0.62339618  1
  O  O301  1  0.24835436  0.75460049  0.11157288  1
  O  O302  1  0.24977049  0.75105026  0.61038974  1
  O  O303  1  0.75844778  0.24880196  0.11971296  1
  O  O304  1  0.75694579  0.25624657  0.62392771  1
  O  O305  1  0.74046657  0.74939148  0.11452154  1
  O  O306  1  0.76488377  0.74150946  0.62020987  1
  O  O307  1  0.24952698  0.23904110  0.37287526  1
  O  O308  1  0.25201556  0.23569234  0.87316259  1
  O  O309  1  0.24925192  0.75360539  0.38420596  1
  O  O310  1  0.24739831  0.74808009  0.88465452  1
  O  O311  1  0.74871085  0.24796676  0.38513184  1
  O  O312  1  0.74126400  0.24368599  0.87903203  1
  O  O313  1  0.75889740  0.74481093  0.39443943  1
  O  O314  1  0.72690258  0.74941070  0.87330760  1
  O  O315  1  0.00858601  0.11591098  0.00093409  1
  O  O316  1  -0.01574908  0.10044643  0.50013232  1
  O  O317  1  0.00871989  0.64293566  0.01254085  1
  O  O318  1  0.00445055  0.62117543  0.48786668  1
  O  O319  1  0.49904863  0.10927795  -0.00787380  1
  O  O320  1  0.50997452  0.11190534  0.50618372  1
  O  O321  1  0.50498132  0.61457434  0.00245482  1
  O  O322  1  0.50347821  0.61953117  0.50228355  1
  O  O323  1  0.49463921  0.38276565  0.49451141  1
  O  O324  1  0.48965386  0.38304656  0.99583543  1
  O  O325  1  0.49530797  0.87648218  0.49232631  1
  O  O326  1  0.49550195  0.88196029  0.99330405  1
  O  O327  1  0.99108335  0.38866047  0.48974350  1
  O  O328  1  0.98757109  0.36355577  0.98996647  1
  O  O329  1  0.99037885  0.87608808  0.49578032  1
  O  O330  1  0.99930110  0.88799569  0.99548956  1
  O  O331  1  0.50793940  0.48847032  0.38847382  1
  O  O332  1  0.48916171  0.50350055  0.88552399  1
  O  O333  1  0.50609157  0.98376797  0.38579613  1
  O  O334  1  0.50109045  0.99178830  0.88154789  1
  O  O335  1  0.98757270  0.49600697  0.38052538  1
  O  O336  1  0.98833288  0.48070900  0.87449446  1
  O  O337  1  0.99399721  0.98732019  0.38335196  1
  O  O338  1  0.99496655  1.00188725  0.88326643  1
  O  O339  1  0.00865924  0.00443047  0.11905312  1
  O  O340  1  0.01011386  -0.01090617  0.61903866  1
  O  O341  1  -0.00116015  0.51405947  0.12387046  1
  O  O342  1  -0.01471032  0.50298627  0.60733266  1
  O  O343  1  0.51261741  -0.00654233  0.11890450  1
  O  O344  1  0.50896817  0.00477842  0.61895311  1
  O  O345  1  0.50407782  0.49947543  0.11362610  1
  O  O346  1  0.50521844  0.51218975  0.61260532  1
  O  O347  1  0.25696582  0.38516933  0.24211938  1
  O  O348  1  0.28421113  0.39438027  0.73757717  1
  O  O349  1  0.24029072  0.87787086  0.24972566  1
  O  O350  1  0.24915904  0.87995666  0.74517034  1
  O  O351  1  0.75704588  0.38913166  0.25087641  1
  O  O352  1  0.74232979  0.38317993  0.74539193  1
  O  O353  1  0.75566685  0.88577322  0.25741225  1
  O  O354  1  0.75336922  0.88862244  0.76190918  1
  O  O355  1  0.24634122  0.10811759  0.25964894  1
  O  O356  1  0.25421611  0.11647298  0.75288187  1
  O  O357  1  0.25399120  0.63377634  0.26075831  1
  O  O358  1  0.25908868  0.63584421  0.76611298  1
  O  O359  1  0.76251147  0.11533406  0.25861248  1
  O  O360  1  0.75679876  0.12092812  0.76198291  1
  O  O361  1  0.75472047  0.61619830  0.25036627  1
  O  O362  1  0.76040999  0.61845870  0.74682341  1
  O  O363  1  0.35578688  0.12171534  0.38209839  1
  O  O364  1  0.36685459  0.11959658  0.86341612  1
  O  O365  1  0.35667716  0.63109941  0.36860164  1
  O  O366  1  0.36943939  0.62130643  0.87052577  1
  O  O367  1  0.87100338  0.11916662  0.37110906  1
  O  O368  1  0.86911182  0.12042361  0.86880658  1
  O  O369  1  0.87089233  0.61572218  0.36636662  1
  O  O370  1  0.88127969  0.60656778  0.87173541  1
  O  O371  1  0.13209774  0.38257646  0.11819497  1
  O  O372  1  0.12243670  0.38430289  0.63207572  1
  O  O373  1  0.12488742  0.88683724  0.13317231  1
  O  O374  1  0.13349140  0.88114113  0.63006550  1
  O  O375  1  0.62455203  0.38602211  0.11836821  1
  O  O376  1  0.62949289  0.38110182  0.63091636  1
  O  O377  1  0.63253152  0.89234859  0.12057628  1
  O  O378  1  0.62166223  0.88807350  0.62780764  1
  O  O379  1  0.12210911  0.26005844  0.24192894  1
  O  O380  1  0.11418933  0.24186853  0.75126090  1
  O  O381  1  0.11428062  0.76310992  0.24512600  1
  O  O382  1  0.11564046  0.75855478  0.75461594  1
  O  O383  1  0.63725811  0.24525842  0.26261747  1
  O  O384  1  0.61628811  0.25603659  0.75352715  1
  O  O385  1  0.61191900  0.73824467  0.25479828  1
  O  O386  1  0.61968591  0.75145864  0.75510597  1
  O  O387  1  0.37682580  0.24622144  0.24812408  1
  O  O388  1  0.38052978  0.24426761  0.73839001  1
  O  O389  1  0.38562372  0.74292562  0.24828588  1
  O  O390  1  0.37921414  0.73839887  0.74679348  1
  O  O391  1  0.87242229  0.24097461  0.24272404  1
  O  O392  1  0.87463692  0.24481404  0.74966518  1
  O  O393  1  0.88002192  0.73727799  0.25508595  1
  O  O394  1  0.87710108  0.74551343  0.75184061  1
  O  O395  1  0.38344383  0.48596518  0.50272911  1
  O  O396  1  0.38327494  0.49326391  0.99219154  1
  O  O397  1  0.39027771  0.99118925  0.50639067  1
  O  O398  1  0.38220044  0.99116272  0.99886262  1
  O  O399  1  0.87661092  0.50313005  0.49215064  1
  O  O400  1  0.86588376  0.48754044  0.99447068  1
  O  O401  1  0.87616976  0.98808627  0.50229732  1
  O  O402  1  0.88509719  1.00724507  0.99291064  1
  O  O403  1  0.12010640  0.00445035  0.00890417  1
  O  O404  1  0.11400781  -0.00342720  0.50899769  1
  O  O405  1  0.10945537  0.52532914  -0.02005977  1
  O  O406  1  0.11130256  0.51713868  0.49351636  1
  O  O407  1  0.61732665  0.00400894  0.00788325  1
  O  O408  1  0.62181793  0.00421406  0.50834866  1
  O  O409  1  0.61659042  0.50244386  0.00120164  1
  O  O410  1  0.61988632  0.50672015  0.50830939  1
  O  O411  1  0.37605312  0.37608077  0.10853880  1
  O  O412  1  0.38272345  0.35956850  0.60654381  1
  O  O413  1  0.37538858  0.87097520  0.11211144  1
  O  O414  1  0.36857448  0.87126349  0.61298858  1
  O  O415  1  0.87294696  0.36781531  0.11794449  1
  O  O416  1  0.86524118  0.36897788  0.62108277  1
  O  O417  1  0.86985783  0.87804398  0.12494490  1
  O  O418  1  0.87594252  0.86530220  0.62045371  1
  O  O419  1  0.14256790  0.11480547  0.37977849  1
  O  O420  1  0.13663605  0.11493718  0.88582598  1
  O  O421  1  0.13428850  0.62944916  0.37657623  1
  O  O422  1  0.13344734  0.63747955  0.87789123  1
  O  O423  1  0.63822238  0.13338206  0.38454177  1
  O  O424  1  0.63209302  0.13524279  0.87397272  1
  O  O425  1  0.62400198  0.62036380  0.39074620  1
  O  O426  1  0.61413491  0.63148533  0.88279621  1
