# generated using pymatgen
data_V85Zn86O256
_symmetry_space_group_name_H-M   'P 1'
_cell_length_a   16.91870890
_cell_length_b   16.91610955
_cell_length_c   16.91174650
_cell_angle_alpha   89.99949856
_cell_angle_beta   90.00480805
_cell_angle_gamma   90.02374989
_symmetry_Int_Tables_number   1
_chemical_formula_structural   V85Zn86O256
_chemical_formula_sum   'V85 Zn86 O256'
_cell_volume   4840.11999122
_cell_formula_units_Z   1
loop_
 _symmetry_equiv_pos_site_id
 _symmetry_equiv_pos_as_xyz
  1  'x, y, z'
loop_
 _atom_site_type_symbol
 _atom_site_label
 _atom_site_symmetry_multiplicity
 _atom_site_fract_x
 _atom_site_fract_y
 _atom_site_fract_z
 _atom_site_occupancy
  V  V0  1  0.37315677  0.24208961  0.62848743  1
  V  V1  1  0.13334984  0.50441345  0.13097818  1
  V  V2  1  0.87492873  0.12351968  0.75496075  1
  V  V3  1  0.13272215  0.49639493  0.62822620  1
  V  V4  1  0.75334413  0.74416683  0.00398160  1
  V  V5  1  0.62631697  0.75079229  0.37078830  1
  V  V6  1  0.49852042  0.24275107  0.75491425  1
  V  V7  1  0.62423874  -0.00940904  0.12906635  1
  V  V8  1  0.62970203  0.13051033  0.00219697  1
  V  V9  1  0.62998734  -0.00108122  0.62216289  1
  V  V10  1  0.37295503  0.74552986  0.61828307  1
  V  V11  1  0.13257628  0.63077895  0.50008695  1
  V  V12  1  0.49834988  0.38172026  0.37701440  1
  V  V13  1  0.37327063  0.61370677  0.74604630  1
  V  V14  1  0.25557279  0.37373254  0.12665317  1
  V  V15  1  0.87169095  0.36900760  -0.00500606  1
  V  V16  1  0.00164055  0.62539626  0.62341989  1
  V  V17  1  0.49854364  0.24979261  0.25143872  1
  V  V18  1  0.12494748  0.75059880  0.87600833  1
  V  V19  1  0.75161256  0.49820735  0.24784406  1
  V  V20  1  0.74974312  0.11972533  0.37966251  1
  V  V21  1  0.62059851  0.61653771  0.51176332  1
  V  V22  1  -0.00685988  0.00128250  0.49582496  1
  V  V23  1  0.87850244  0.12123430  0.24960989  1
  V  V24  1  0.37335881  0.87544794  -0.00227421  1
  V  V25  1  0.88360199  0.24808016  0.12340798  1
  V  V26  1  0.50003167  -0.00016125  -0.00013025  1
  V  V27  1  0.12695807  0.00101731  0.13375551  1
  V  V28  1  0.74683398  0.49936649  0.74452610  1
  V  V29  1  0.74913041  0.36578386  0.11928720  1
  V  V30  1  0.87397039  0.75909518  0.62515950  1
  V  V31  1  0.36899692  0.12484412  0.24664893  1
  V  V32  1  0.49933474  0.12295199  0.12618032  1
  V  V33  1  0.00130662  0.74953039  0.74984761  1
  V  V34  1  0.87511700  0.63216613  0.24769362  1
  V  V35  1  -0.00632445  0.87759276  0.37421486  1
  V  V36  1  0.49851567  0.74361687  0.74289446  1
  V  V37  1  0.62703508  0.50513434  0.11428226  1
  V  V38  1  0.49504937  0.50822446  -0.00636082  1
  V  V39  1  -0.00068408  0.12993186  0.62633509  1
  V  V40  1  0.87898839  0.49628255  0.87347374  1
  V  V41  1  0.87845226  0.49777292  0.37406430  1
  V  V42  1  0.74751031  -0.00573575  0.25488414  1
  V  V43  1  0.25015613  0.62133166  0.37010416  1
  V  V44  1  0.50248699  0.12211329  0.62765979  1
  V  V45  1  0.62642925  0.37468130  0.24928690  1
  V  V46  1  0.00249282  0.49652683  0.49540015  1
  V  V47  1  -0.00223809  0.63122265  0.12388223  1
  V  V48  1  0.25145801  0.25220391  0.49986600  1
  V  V49  1  0.37255636  0.01104051  0.86860438  1
  V  V50  1  0.00510896  0.75625947  0.24874604  1
  V  V51  1  0.12333431  0.12530398  0.50008962  1
  V  V52  1  0.12630574  0.00153300  0.62280709  1
  V  V53  1  0.13082880  0.87729579  0.75098947  1
  V  V54  1  0.24931605  0.61816800  0.87076413  1
  V  V55  1  0.49958201  0.87381798  0.87300797  1
  V  V56  1  0.12220872  0.38230390  0.25475263  1
  V  V57  1  0.37026335  -0.00303820  0.37176359  1
  V  V58  1  0.74593200  0.24760101  0.50367117  1
  V  V59  1  0.11551643  0.25566593  0.37567226  1
  V  V60  1  0.49373909  0.37056574  0.88535927  1
  V  V61  1  0.50170143  0.00285995  0.49917624  1
  V  V62  1  0.62436139  0.73854159  0.87919240  1
  V  V63  1  0.23389395  0.13362378  0.87259267  1
  V  V64  1  0.75453563  -0.00384167  0.75310606  1
  V  V65  1  0.24953818  0.87178536  0.61047899  1
  V  V66  1  0.24790264  0.12261181  0.37221982  1
  V  V67  1  0.24930562  0.75293304  0.00159614  1
  V  V68  1  0.75860611  0.87359117  0.12586407  1
  V  V69  1  0.87736271  0.37330509  0.49656603  1
  V  V70  1  0.62300364  0.24446126  0.38049701  1
  V  V71  1  -0.00091951  0.49588538  0.00169327  1
  V  V72  1  0.74978187  0.62414448  0.37746132  1
  V  V73  1  -0.00484914  0.88471198  0.87895673  1
  V  V74  1  0.00077729  0.25942131  0.76343828  1
  V  V75  1  0.75219183  0.12739797  0.87930006  1
  V  V76  1  0.37685051  0.61791612  0.24825286  1
  V  V77  1  0.62096934  0.37755900  0.74528616  1
  V  V78  1  0.74874989  0.75545071  0.50517887  1
  V  V79  1  0.37822284  0.75048742  0.12619381  1
  V  V80  1  0.62907341  0.87288910  0.74619160  1
  V  V81  1  0.50496918  0.87581166  0.36782377  1
  V  V82  1  0.13289820  0.75978562  0.37592369  1
  V  V83  1  0.12972586  0.37593359  0.76386878  1
  V  V84  1  0.87500890  0.62385098  0.75119842  1
  Zn  Zn85  1  0.87303590  0.25308341  0.62636120  1
  Zn  Zn86  1  0.24837521  0.87846718  0.14539281  1
  Zn  Zn87  1  0.49651631  0.49971999  0.51756180  1
  Zn  Zn88  1  0.12400050  0.62572571  0.00050141  1
  Zn  Zn89  1  0.37754086  0.25610786  0.11857768  1
  Zn  Zn90  1  0.25089842  0.37429286  0.63072253  1
  Zn  Zn91  1  0.87444186  0.87775892  -0.00133242  1
  Zn  Zn92  1  0.37448283  0.86985631  0.49788209  1
  Zn  Zn93  1  0.36647448  0.49305574  0.87631278  1
  Zn  Zn94  1  -0.00234494  0.25567799  0.25229403  1
  Zn  Zn95  1  0.25635680  0.00489635  0.74516866  1
  Zn  Zn96  1  -0.00550595  0.01493174  0.01247355  1
  Zn  Zn97  1  0.11440212  0.13519026  0.00991715  1
  Zn  Zn98  1  0.50755288  0.75175587  0.24557648  1
  Zn  Zn99  1  0.62940693  0.25211161  0.87938732  1
  Zn  Zn100  1  0.37642369  0.37647690  0.50239915  1
  Zn  Zn101  1  0.36988021  0.49714733  0.37570082  1
  Zn  Zn102  1  0.74607306  0.38033846  0.62178919  1
  Zn  Zn103  1  0.50588088  0.62795136  0.12210199  1
  Zn  Zn104  1  0.25106922  0.25615010  -0.00543610  1
  Zn  Zn105  1  0.74607555  0.61990777  0.87978039  1
  Zn  Zn106  1  0.86911485  0.88263114  0.50118880  1
  Zn  Zn107  1  0.18324466  0.19042094  0.18723424  1
  Zn  Zn108  1  0.18645354  0.18859802  0.69471163  1
  Zn  Zn109  1  0.18912844  0.69058413  0.18931122  1
  Zn  Zn110  1  0.19116922  0.68739645  0.68696354  1
  Zn  Zn111  1  0.68884413  0.18396810  0.18954863  1
  Zn  Zn112  1  0.68347109  0.18563536  0.68921363  1
  Zn  Zn113  1  0.68959648  0.68657152  0.18666828  1
  Zn  Zn114  1  0.69276103  0.69014904  0.69022790  1
  Zn  Zn115  1  0.30839116  0.31430714  0.30805089  1
  Zn  Zn116  1  0.31487772  0.30887571  0.81043816  1
  Zn  Zn117  1  0.31998746  0.80225570  0.31771370  1
  Zn  Zn118  1  0.31275877  0.81074057  0.80982251  1
  Zn  Zn119  1  0.81216275  0.31034096  0.31374960  1
  Zn  Zn120  1  0.81163846  0.31137857  0.81215848  1
  Zn  Zn121  1  0.81313424  0.81345405  0.31441296  1
  Zn  Zn122  1  0.81091601  0.81021683  0.81420585  1
  Zn  Zn123  1  0.18850634  0.43813781  0.43902335  1
  Zn  Zn124  1  0.18446556  0.43697875  0.94512620  1
  Zn  Zn125  1  0.18699461  0.93608999  0.31357688  1
  Zn  Zn126  1  0.18451910  0.94573667  0.94620427  1
  Zn  Zn127  1  0.68769919  0.43544367  0.43634677  1
  Zn  Zn128  1  0.68554410  0.43732560  0.93215080  1
  Zn  Zn129  1  0.68596516  0.93586051  0.43921333  1
  Zn  Zn130  1  0.68819820  0.93759321  0.93700226  1
  Zn  Zn131  1  0.30481857  0.06269173  0.06018890  1
  Zn  Zn132  1  0.31332523  0.06176853  0.55947879  1
  Zn  Zn133  1  0.31353145  0.56469695  0.06038598  1
  Zn  Zn134  1  0.31455416  0.56119434  0.55920856  1
  Zn  Zn135  1  0.81717175  0.05963534  0.06249189  1
  Zn  Zn136  1  0.81152278  0.06496900  0.56775319  1
  Zn  Zn137  1  0.81399634  0.56148921  0.06356625  1
  Zn  Zn138  1  0.81372255  0.56655539  0.56290526  1
  Zn  Zn139  1  0.44218675  0.44158005  0.18728962  1
  Zn  Zn140  1  0.43363902  0.42822595  0.69055585  1
  Zn  Zn141  1  0.43170724  0.93599355  0.18940873  1
  Zn  Zn142  1  0.43810345  0.93219758  0.68701969  1
  Zn  Zn143  1  0.94075997  0.43800166  0.18593573  1
  Zn  Zn144  1  0.93810503  0.43644742  0.68190488  1
  Zn  Zn145  1  0.93760173  0.94060429  0.18614339  1
  Zn  Zn146  1  0.94077916  0.93969616  0.69075010  1
  Zn  Zn147  1  0.05881219  0.06470675  0.31095553  1
  Zn  Zn148  1  0.06159225  0.06223407  0.81002073  1
  Zn  Zn149  1  0.06316004  0.56676178  0.31324224  1
  Zn  Zn150  1  0.06223339  0.55950438  0.81384098  1
  Zn  Zn151  1  0.56339500  0.06269203  0.31185856  1
  Zn  Zn152  1  0.56459492  0.06131222  0.81343276  1
  Zn  Zn153  1  0.56459226  0.56494213  0.31022112  1
  Zn  Zn154  1  0.56221450  0.56096476  0.69261822  1
  Zn  Zn155  1  0.43750144  0.18532323  0.43956958  1
  Zn  Zn156  1  0.43258553  0.18930419  0.94426035  1
  Zn  Zn157  1  0.44112575  0.68463206  0.43680948  1
  Zn  Zn158  1  0.43686322  0.68513175  0.93350808  1
  Zn  Zn159  1  0.93232684  0.18583754  0.43570693  1
  Zn  Zn160  1  0.93691016  0.18609663  0.93815251  1
  Zn  Zn161  1  0.93974004  0.68860163  0.43729218  1
  Zn  Zn162  1  0.93476521  0.68833971  0.93814717  1
  Zn  Zn163  1  0.06644815  0.31291844  0.05946348  1
  Zn  Zn164  1  0.06258766  0.31408011  0.56493385  1
  Zn  Zn165  1  0.06690484  0.81983117  0.06577396  1
  Zn  Zn166  1  0.06284019  0.81487180  0.55970034  1
  Zn  Zn167  1  0.56245433  0.31136037  0.06450045  1
  Zn  Zn168  1  0.56067183  0.31330554  0.56413661  1
  Zn  Zn169  1  0.56556959  0.81256267  0.05951668  1
  Zn  Zn170  1  0.56149513  0.81368334  0.56001862  1
  O  O171  1  0.13478665  0.10994284  0.12669236  1
  O  O172  1  0.11818799  0.12242471  0.62232378  1
  O  O173  1  0.11854143  0.62025339  0.12507204  1
  O  O174  1  0.12103075  0.62052809  0.61947021  1
  O  O175  1  0.62162545  0.11510710  0.12026614  1
  O  O176  1  0.61214834  0.11399593  0.62856043  1
  O  O177  1  0.62570908  0.60910751  0.12938854  1
  O  O178  1  0.62693598  0.62811722  0.61623874  1
  O  O179  1  0.38399240  0.37457248  0.37380460  1
  O  O180  1  0.38939134  0.37626740  0.86833131  1
  O  O181  1  0.38425855  0.88144469  0.37939301  1
  O  O182  1  0.38089156  0.87750622  0.88021784  1
  O  O183  1  0.86990294  0.38207983  0.38655893  1
  O  O184  1  0.87036617  0.38198933  0.88394106  1
  O  O185  1  0.88857020  0.86925637  0.38199757  1
  O  O186  1  0.89348999  0.87025440  0.86823408  1
  O  O187  1  0.25626008  0.01397632  0.37723808  1
  O  O188  1  0.26100765  0.00476315  0.87341889  1
  O  O189  1  0.24840790  0.51600752  0.37861046  1
  O  O190  1  0.24857310  0.51381725  0.88534673  1
  O  O191  1  0.74192741  0.00792555  0.36923486  1
  O  O192  1  0.74337857  0.00958281  0.86086648  1
  O  O193  1  0.75590835  0.50486158  0.36836334  1
  O  O194  1  0.76099040  0.50097180  0.86647771  1
  O  O195  1  0.23821601  0.49925153  0.12211612  1
  O  O196  1  0.23591255  0.49839803  0.62104572  1
  O  O197  1  0.23869488  0.99271050  0.11938657  1
  O  O198  1  0.24451757  0.99391878  0.62510709  1
  O  O199  1  0.74469392  0.49090693  0.12822224  1
  O  O200  1  0.75822103  0.50026910  0.63971755  1
  O  O201  1  0.74246164  0.99193306  0.13371847  1
  O  O202  1  0.73967657  1.00573839  0.63662404  1
  O  O203  1  0.01435832  0.37529864  0.24840238  1
  O  O204  1  0.00480341  0.36392328  0.74430796  1
  O  O205  1  -0.00956341  0.86225671  0.25654736  1
  O  O206  1  0.01167279  0.86983025  0.75746703  1
  O  O207  1  0.50644016  0.36891526  0.25548005  1
  O  O208  1  0.50569018  0.36545308  0.76182477  1
  O  O209  1  0.49761845  0.87373763  0.26339956  1
  O  O210  1  0.50613817  0.86463270  0.75552098  1
  O  O211  1  0.49118165  0.12979199  0.24659688  1
  O  O212  1  0.50415703  0.13081777  0.74251093  1
  O  O213  1  0.49325080  0.62987063  0.24685164  1
  O  O214  1  0.49167158  0.63649336  0.74949463  1
  O  O215  1  0.98150805  0.12974686  0.25484255  1
  O  O216  1  0.99500483  0.13469533  0.74589763  1
  O  O217  1  0.99368875  0.63430013  0.24487823  1
  O  O218  1  0.99599954  0.63030912  0.74440767  1
  O  O219  1  0.36600161  0.25081965  0.00640118  1
  O  O220  1  0.36703490  0.24906419  0.50695171  1
  O  O221  1  0.37061981  0.75289048  0.00762606  1
  O  O222  1  0.38216971  0.74819918  0.51394721  1
  O  O223  1  0.87465464  0.26197190  0.00673487  1
  O  O224  1  0.86654667  0.25759107  0.49916967  1
  O  O225  1  0.85768263  0.75691963  -0.00656300  1
  O  O226  1  0.86752402  0.74759515  0.50910192  1
  O  O227  1  0.13104068  0.24587842  0.49519860  1
  O  O228  1  0.13708558  0.24835967  1.00677729  1
  O  O229  1  0.11755649  0.74144274  0.48970738  1
  O  O230  1  0.13215971  0.74899197  0.99257460  1
  O  O231  1  0.63209273  0.25353821  0.49145745  1
  O  O232  1  0.62331506  0.23461860  1.00223395  1
  O  O233  1  0.63123904  0.74100646  0.49594874  1
  O  O234  1  0.63625251  0.75512522  0.98890064  1
  O  O235  1  0.49939967  0.24262444  0.13397181  1
  O  O236  1  0.49544907  0.23998690  0.63082441  1
  O  O237  1  0.49424291  0.74882899  0.12331123  1
  O  O238  1  0.49060785  0.75699073  0.63406374  1
  O  O239  1  0.98563663  0.25832936  0.12896554  1
  O  O240  1  0.99884369  0.23892747  0.62863108  1
  O  O241  1  1.00751064  0.74037336  0.13241584  1
  O  O242  1  0.99645315  0.74487443  0.63024150  1
  O  O243  1  0.01256569  0.24751175  0.37831639  1
  O  O244  1  -0.00495618  0.25380295  0.86134570  1
  O  O245  1  0.00770724  0.75570720  0.36876082  1
  O  O246  1  0.01143501  0.75216227  0.86991745  1
  O  O247  1  0.50640569  0.25503591  0.37186865  1
  O  O248  1  0.50110076  0.25567111  0.87182376  1
  O  O249  1  0.50896814  0.75854254  0.37623165  1
  O  O250  1  0.50655260  0.75508366  0.86889497  1
  O  O251  1  0.24445505  0.13345890  0.49317409  1
  O  O252  1  0.25012154  0.12313626  0.97970677  1
  O  O253  1  0.23686436  0.62450192  0.49544814  1
  O  O254  1  0.25012545  0.63871474  0.99225633  1
  O  O255  1  0.75690541  0.13074362  0.48827347  1
  O  O256  1  0.74215495  0.11595836  0.99114836  1
  O  O257  1  0.74186834  0.63314077  0.49760561  1
  O  O258  1  0.75344141  0.63894838  1.00110483  1
  O  O259  1  0.24570926  0.37923620  0.02165438  1
  O  O260  1  0.24999782  0.36115621  0.50302999  1
  O  O261  1  0.25608124  0.86198308  -0.00919326  1
  O  O262  1  0.25153000  0.87552200  0.51167340  1
  O  O263  1  0.75848776  0.38067867  0.00771652  1
  O  O264  1  0.75499565  0.36624357  0.50147692  1
  O  O265  1  0.75001309  0.86809202  0.00824077  1
  O  O266  1  0.75168461  0.86090571  0.49822604  1
  O  O267  1  0.11967090  0.49708320  0.24225404  1
  O  O268  1  0.11447442  0.48532247  0.74176832  1
  O  O269  1  0.12610854  1.00357698  0.24402222  1
  O  O270  1  0.12558866  0.99201053  0.74105753  1
  O  O271  1  0.63155875  0.49274321  0.24285443  1
  O  O272  1  0.63530609  0.49201613  0.75393762  1
  O  O273  1  0.63441908  1.00510432  0.24114039  1
  O  O274  1  0.62983102  0.99170650  0.74253260  1
  O  O275  1  0.38118036  0.00954499  0.26413956  1
  O  O276  1  0.37536429  -0.00849369  0.76504852  1
  O  O277  1  0.38085581  0.51390797  0.25377137  1
  O  O278  1  0.37681239  0.51052799  0.75395528  1
  O  O279  1  0.86491604  0.01355955  0.24472034  1
  O  O280  1  0.86642231  0.00877195  0.74519657  1
  O  O281  1  0.87296803  0.50722072  0.25542924  1
  O  O282  1  0.87372580  0.50194788  0.75681323  1
  O  O283  1  0.13117913  0.36719879  0.36878527  1
  O  O284  1  0.12368029  0.38317084  0.86281858  1
  O  O285  1  0.11395569  0.86524336  0.37539814  1
  O  O286  1  0.12019176  0.86949979  0.86872860  1
  O  O287  1  0.61990625  0.36482372  0.36941411  1
  O  O288  1  0.61464931  0.37070826  0.86652684  1
  O  O289  1  0.61733775  0.86386473  0.38133061  1
  O  O290  1  0.61803739  0.87137229  0.86411533  1
  O  O291  1  0.37932391  0.12061785  0.13392749  1
  O  O292  1  0.38612144  0.13204363  0.62049808  1
  O  O293  1  0.37810642  0.63246251  0.13024636  1
  O  O294  1  0.36478782  0.63302818  0.63430927  1
  O  O295  1  0.85954343  0.13708180  0.13997701  1
  O  O296  1  0.88238625  0.12889777  0.63689520  1
  O  O297  1  0.88437756  0.62065578  0.13560096  1
  O  O298  1  0.88372816  0.63324941  0.63089840  1
  O  O299  1  0.25266495  0.26712831  0.13309367  1
  O  O300  1  0.25724498  0.24380379  0.61870174  1
  O  O301  1  0.25790497  0.75290531  0.11638396  1
  O  O302  1  0.25966054  0.76000799  0.63000561  1
  O  O303  1  0.75375751  0.26234184  0.13074363  1
  O  O304  1  0.74896701  0.24523775  0.61243636  1
  O  O305  1  0.74038652  0.75800170  0.11251769  1
  O  O306  1  0.76164184  0.74649655  0.61820845  1
  O  O307  1  0.24450216  0.24114063  0.38242128  1
  O  O308  1  0.25146217  0.23635409  0.87132508  1
  O  O309  1  0.23964653  0.73991636  0.37659912  1
  O  O310  1  0.23979964  0.74382863  0.87787944  1
  O  O311  1  0.74198182  0.24367947  0.38372088  1
  O  O312  1  0.74691468  0.23322870  0.86887659  1
  O  O313  1  0.74528958  0.74407197  0.38328142  1
  O  O314  1  0.74140889  0.74978786  0.88521989  1
  O  O315  1  -0.00078051  0.12907675  0.00566146  1
  O  O316  1  0.00104856  0.12235451  0.50701114  1
  O  O317  1  -0.00245238  0.61886912  0.00860802  1
  O  O318  1  0.00919547  0.61912198  0.50502884  1
  O  O319  1  0.50673568  0.11782194  0.00696070  1
  O  O320  1  0.49883740  0.11083052  0.50633727  1
  O  O321  1  0.50168642  0.61186971  -0.00192433  1
  O  O322  1  0.51740167  0.62074287  0.49700718  1
  O  O323  1  0.49951925  0.37552724  0.49027765  1
  O  O324  1  0.50434908  0.37670272  0.98876485  1
  O  O325  1  0.49802829  0.88689979  0.49246433  1
  O  O326  1  0.49491929  0.88088686  0.99269135  1
  O  O327  1  0.99169784  0.38437746  0.50364959  1
  O  O328  1  0.98956477  0.38942451  1.01011003  1
  O  O329  1  0.99851152  0.88510147  0.49317316  1
  O  O330  1  0.99936245  0.86749060  0.98369758  1
  O  O331  1  0.50487579  0.48646575  0.37382058  1
  O  O332  1  0.49907003  0.48625233  0.88875683  1
  O  O333  1  0.49716882  0.99574434  0.38143253  1
  O  O334  1  0.49120329  0.99430118  0.87809079  1
  O  O335  1  0.99546752  0.50712716  0.38798945  1
  O  O336  1  0.98756012  0.50523243  0.88554429  1
  O  O337  1  1.00371378  0.99171228  0.38377020  1
  O  O338  1  1.00393352  0.98559530  0.87389226  1
  O  O339  1  0.01792421  -0.00777953  0.12837585  1
  O  O340  1  0.00530028  0.01259823  0.62337918  1
  O  O341  1  0.00640450  0.51243025  0.12013293  1
  O  O342  1  0.00699024  0.50643584  0.61454349  1
  O  O343  1  0.50590919  0.00268203  0.12270075  1
  O  O344  1  0.50327567  0.00361605  0.61972707  1
  O  O345  1  0.50918556  0.49748892  0.11038167  1
  O  O346  1  0.50271053  0.49112818  0.63007622  1
  O  O347  1  0.23517727  0.37760259  0.24206414  1
  O  O348  1  0.23413671  0.36880553  0.75009940  1
  O  O349  1  0.26022049  0.87409292  0.25825690  1
  O  O350  1  0.23885440  0.87668982  0.74566902  1
  O  O351  1  0.74620516  0.38011246  0.24358280  1
  O  O352  1  0.74148277  0.38096230  0.74952770  1
  O  O353  1  0.75362300  0.88617419  0.24680517  1
  O  O354  1  0.74151622  0.88197067  0.75490117  1
  O  O355  1  0.26163737  0.13355849  0.25843928  1
  O  O356  1  0.24729356  0.12047715  0.76494948  1
  O  O357  1  0.26166108  0.63175361  0.25822969  1
  O  O358  1  0.25889694  0.62915591  0.75987560  1
  O  O359  1  0.75393408  0.11675293  0.26035131  1
  O  O360  1  0.75716844  0.11861635  0.75421373  1
  O  O361  1  0.75863686  0.61937601  0.25408942  1
  O  O362  1  0.75760627  0.61763859  0.75372067  1
  O  O363  1  0.36805549  0.11917099  0.36942540  1
  O  O364  1  0.37695930  0.11170849  0.87390105  1
  O  O365  1  0.36760403  0.62824458  0.36719579  1
  O  O366  1  0.36577939  0.62457125  0.86547166  1
  O  O367  1  0.86272822  0.13023597  0.36101129  1
  O  O368  1  0.86828020  0.12822717  0.86279109  1
  O  O369  1  0.86980972  0.61821672  0.37014858  1
  O  O370  1  0.87260976  0.61717268  0.86795997  1
  O  O371  1  0.13109813  0.38692859  0.13446626  1
  O  O372  1  0.12694364  0.38266243  0.63224986  1
  O  O373  1  0.13350295  0.88747314  0.12470997  1
  O  O374  1  0.13014437  0.87985538  0.63112844  1
  O  O375  1  0.63203187  0.38139270  0.12869284  1
  O  O376  1  0.62756593  0.36781312  0.64051047  1
  O  O377  1  0.63153758  0.88628115  0.12268365  1
  O  O378  1  0.61933777  0.88167423  0.63794949  1
  O  O379  1  0.12096888  0.25794538  0.25980322  1
  O  O380  1  0.11115200  0.26322835  0.74706483  1
  O  O381  1  0.11503405  0.74412122  0.26176862  1
  O  O382  1  0.12168545  0.75685989  0.75606386  1
  O  O383  1  0.61944546  0.25439429  0.25696726  1
  O  O384  1  0.61334093  0.25451002  0.75339864  1
  O  O385  1  0.62723840  0.74363861  0.26555562  1
  O  O386  1  0.61930745  0.75569406  0.75432409  1
  O  O387  1  0.38253249  0.24158478  0.24816589  1
  O  O388  1  0.38862503  0.24928563  0.74265165  1
  O  O389  1  0.38104637  0.74245731  0.23673729  1
  O  O390  1  0.38276399  0.74379285  0.74276551  1
  O  O391  1  0.87477012  0.24274627  0.24403558  1
  O  O392  1  0.88532243  0.24617108  0.74646507  1
  O  O393  1  0.88162967  0.73700899  0.25691081  1
  O  O394  1  0.87958435  0.74476023  0.74371159  1
  O  O395  1  0.37948026  0.49592811  0.49421397  1
  O  O396  1  0.39009981  0.50133215  0.99862436  1
  O  O397  1  0.38208724  0.99948803  0.48707170  1
  O  O398  1  0.38009390  0.99447566  0.98935818  1
  O  O399  1  0.88170323  0.49528485  0.49551783  1
  O  O400  1  0.87902913  0.49310386  0.99362685  1
  O  O401  1  0.88772122  1.00076026  0.50952735  1
  O  O402  1  0.88261599  0.99035787  1.00770545  1
  O  O403  1  0.11621377  0.00682517  0.01102451  1
  O  O404  1  0.10976046  0.01122640  0.51047164  1
  O  O405  1  0.11416532  0.50439098  0.00982409  1
  O  O406  1  0.11815929  0.50574052  0.50642206  1
  O  O407  1  0.61861217  0.00608893  0.00746230  1
  O  O408  1  0.61889978  -0.00588398  0.51419630  1
  O  O409  1  0.61517733  0.49414723  0.00529722  1
  O  O410  1  0.62955363  0.51436099  0.49913122  1
  O  O411  1  0.35856891  0.38051277  0.13799646  1
  O  O412  1  0.36971403  0.35716512  0.62447859  1
  O  O413  1  0.37300452  0.86760410  0.11618470  1
  O  O414  1  0.36576033  0.86748180  0.62363978  1
  O  O415  1  0.86671407  0.36962003  0.11985122  1
  O  O416  1  0.87005179  0.37297886  0.61120872  1
  O  O417  1  0.86119846  0.87217188  0.12886262  1
  O  O418  1  0.88383058  0.86250756  0.62443789  1
  O  O419  1  0.13153035  0.13210695  0.37912553  1
  O  O420  1  0.13252839  0.12348398  0.87537807  1
  O  O421  1  0.13045570  0.63353597  0.38173843  1
  O  O422  1  0.13033044  0.63311995  0.87512640  1
  O  O423  1  0.63189807  0.13700133  0.37120324  1
  O  O424  1  0.63171035  0.12444192  0.88509075  1
  O  O425  1  0.63217315  0.63046338  0.38434268  1
  O  O426  1  0.62675285  0.64014823  0.87017956  1
