# generated using pymatgen
data_V85Zn86O256
_symmetry_space_group_name_H-M   'P 1'
_cell_length_a   16.93118628
_cell_length_b   16.92423304
_cell_length_c   16.93328088
_cell_angle_alpha   89.98759640
_cell_angle_beta   89.97460901
_cell_angle_gamma   90.05239154
_symmetry_Int_Tables_number   1
_chemical_formula_structural   V85Zn86O256
_chemical_formula_sum   'V85 Zn86 O256'
_cell_volume   4852.18401468
_cell_formula_units_Z   1
loop_
 _symmetry_equiv_pos_site_id
 _symmetry_equiv_pos_as_xyz
  1  'x, y, z'
loop_
 _atom_site_type_symbol
 _atom_site_label
 _atom_site_symmetry_multiplicity
 _atom_site_fract_x
 _atom_site_fract_y
 _atom_site_fract_z
 _atom_site_occupancy
  V  V0  1  0.88446180  0.49990363  0.88053642  1
  V  V1  1  0.88232092  0.49800612  0.39514901  1
  V  V2  1  0.12318919  0.62453579  0.49189301  1
  V  V3  1  0.88066825  0.75284889  0.63115933  1
  V  V4  1  0.25861767  0.37725104  0.62575270  1
  V  V5  1  0.62579143  0.50479037  0.62038691  1
  V  V6  1  0.62914783  0.38093901  0.25054998  1
  V  V7  1  0.37780417  0.74731931  0.62885306  1
  V  V8  1  0.12663446  0.37465216  0.75181348  1
  V  V9  1  0.74795257  0.88686387  0.63186980  1
  V  V10  1  0.75593080  0.25164200  0.50260156  1
  V  V11  1  0.00278754  0.74479236  0.24943626  1
  V  V12  1  0.62587240  0.25087714  0.37581712  1
  V  V13  1  0.74501896  0.61824943  0.37731365  1
  V  V14  1  0.25011614  0.01173759  0.75400920  1
  V  V15  1  0.11691809  0.49855799  0.13218778  1
  V  V16  1  0.37192203  0.24475692  0.12032204  1
  V  V17  1  0.25182563  0.38269594  0.12976650  1
  V  V18  1  0.00651598  0.86669427  0.37406297  1
  V  V19  1  0.62632145  0.87435701  0.25401304  1
  V  V20  1  0.12504495  0.00097750  0.62670323  1
  V  V21  1  0.50220591  0.24528098  0.24944074  1
  V  V22  1  0.87413509  0.87367677  -0.00158776  1
  V  V23  1  0.12530490  0.23923878  0.87135298  1
  V  V24  1  0.75447273  0.37210187  0.62447983  1
  V  V25  1  0.37629297  0.12363190  0.24945492  1
  V  V26  1  0.88238749  0.62940158  0.75336890  1
  V  V27  1  0.86732435  0.61163023  0.24967119  1
  V  V28  1  0.24762378  0.87294664  0.62815968  1
  V  V29  1  0.87816605  0.00019970  0.36714352  1
  V  V30  1  0.74778733  0.74667253  0.50482021  1
  V  V31  1  0.75455202  0.37607691  0.12610963  1
  V  V32  1  0.74688098  0.74835596  0.00249448  1
  V  V33  1  0.11807822  0.86912701  0.75045363  1
  V  V34  1  0.87190762  0.74598393  0.12698572  1
  V  V35  1  -0.01222044  0.24841980  0.25257667  1
  V  V36  1  0.75317027  0.00269970  0.24764301  1
  V  V37  1  0.62270306  0.75214980  0.86857193  1
  V  V38  1  0.86720713  0.00053425  0.87025515  1
  V  V39  1  0.48561354  0.86807291  0.87330623  1
  V  V40  1  0.61921069  -0.00175578  0.12136888  1
  V  V41  1  0.48984111  -0.00884959  0.00714842  1
  V  V42  1  0.62470293  0.50018943  0.12192370  1
  V  V43  1  0.38220911  0.38210672  0.50056081  1
  V  V44  1  0.24780890  0.24356157  -0.00504501  1
  V  V45  1  0.24733863  0.00274275  0.25251868  1
  V  V46  1  0.25280724  0.62450880  0.36420807  1
  V  V47  1  0.74797394  0.87380761  0.12527767  1
  V  V48  1  0.88335823  0.37310744  0.00203510  1
  V  V49  1  -0.00773898  0.25303791  0.74660240  1
  V  V50  1  0.37112218  0.00712856  0.37587982  1
  V  V51  1  0.38776716  0.23773796  0.62930550  1
  V  V52  1  0.48543743  0.37548964  0.87019274  1
  V  V53  1  0.37302673  0.87570674  0.50191842  1
  V  V54  1  0.24598187  0.74795921  0.49554092  1
  V  V55  1  0.62636014  0.36768562  0.75944074  1
  V  V56  1  0.75526272  0.12561995  0.37188840  1
  V  V57  1  0.00079282  0.00025420  0.49788317  1
  V  V58  1  0.62228230  0.62186199  -0.00299300  1
  V  V59  1  0.49651711  0.87680055  0.37583321  1
  V  V60  1  0.37452214  0.50421484  0.35848801  1
  V  V61  1  0.25619663  0.50449224  0.76168704  1
  V  V62  1  0.74110030  0.13043512  0.88283719  1
  V  V63  1  0.12584027  0.50015120  0.62013092  1
  V  V64  1  0.50357015  0.62990678  0.62177558  1
  V  V65  1  0.00149830  0.62342491  0.62199188  1
  V  V66  1  0.87503480  0.87396056  0.49992606  1
  V  V67  1  0.37924382  0.62612985  0.76164209  1
  V  V68  1  0.12008938  0.61378752  -0.00726771  1
  V  V69  1  0.55794220  0.16736743  0.06648143  1
  V  V70  1  0.11762716  0.74609322  0.87437954  1
  V  V71  1  0.25787902  0.24696571  0.49403713  1
  V  V72  1  0.62321208  0.74864040  0.38663315  1
  V  V73  1  -0.00497375  0.13146283  0.62153338  1
  V  V74  1  0.12301361  -0.00170442  0.12380081  1
  V  V75  1  0.25203472  0.74594027  -0.00477463  1
  V  V76  1  -0.00165226  0.00145574  -0.00287446  1
  V  V77  1  0.36824321  0.01654533  0.87576196  1
  V  V78  1  0.62248338  0.11803853  0.50443299  1
  V  V79  1  0.62645695  0.88933667  0.75287270  1
  V  V80  1  0.86671601  0.12436182  0.74611547  1
  V  V81  1  0.75075409  0.50169522  0.75227789  1
  V  V82  1  0.13173726  0.25071228  0.36962421  1
  V  V83  1  0.25606672  0.87449653  0.11886637  1
  V  V84  1  0.13148287  0.12355449  0.49416855  1
  Zn  Zn85  1  0.12561431  0.86873897  0.25022430  1
  Zn  Zn86  1  0.12485472  0.12206240  -0.00260765  1
  Zn  Zn87  1  0.48901738  0.74007158  0.25153518  1
  Zn  Zn88  1  -0.00672899  0.61799773  0.12055555  1
  Zn  Zn89  1  0.37173769  0.74165875  0.13101548  1
  Zn  Zn90  1  0.48574538  0.50510131  -0.01150601  1
  Zn  Zn91  1  0.00414918  0.37563161  0.88061287  1
  Zn  Zn92  1  0.50198727  0.37805166  0.37414899  1
  Zn  Zn93  1  -0.00508208  0.87165200  0.86865645  1
  Zn  Zn94  1  0.87170086  0.23888815  0.12258490  1
  Zn  Zn95  1  0.12815719  0.37892803  0.25597577  1
  Zn  Zn96  1  0.00327688  0.37848720  0.38766429  1
  Zn  Zn97  1  0.74194137  0.24894654  -0.00035560  1
  Zn  Zn98  1  0.36637758  0.38219479  -0.00675835  1
  Zn  Zn99  1  0.75103565  0.62630053  0.87337306  1
  Zn  Zn100  1  0.49684928  0.00401116  0.50579560  1
  Zn  Zn101  1  -0.00768010  0.12003160  0.13414391  1
  Zn  Zn102  1  0.91719216  0.32166267  0.55569582  1
  Zn  Zn103  1  0.55548229  0.05933991  0.66571456  1
  Zn  Zn104  1  0.50574004  0.23276544  0.75246830  1
  Zn  Zn105  1  0.50570002  0.50549890  0.49760651  1
  Zn  Zn106  1  0.48708948  0.62132768  0.13142398  1
  Zn  Zn107  1  0.18798062  0.18236704  0.18376587  1
  Zn  Zn108  1  0.18761197  0.19061202  0.68130203  1
  Zn  Zn109  1  0.18528664  0.68508758  0.17994763  1
  Zn  Zn110  1  0.19049280  0.68561809  0.68871258  1
  Zn  Zn111  1  0.69539490  0.19196452  0.19155643  1
  Zn  Zn112  1  0.69234053  0.18876012  0.68719149  1
  Zn  Zn113  1  0.65825415  0.67181287  0.20626105  1
  Zn  Zn114  1  0.68982800  0.69055739  0.68923350  1
  Zn  Zn115  1  0.31604671  0.31586940  0.31075235  1
  Zn  Zn116  1  0.31015653  0.30408598  0.80703872  1
  Zn  Zn117  1  0.30715451  0.81474355  0.31254936  1
  Zn  Zn118  1  0.30367570  0.80938704  0.81226099  1
  Zn  Zn119  1  0.81072855  0.32043165  0.31697274  1
  Zn  Zn120  1  0.81232891  0.31122043  0.81678891  1
  Zn  Zn121  1  0.81389364  0.80827335  0.31323016  1
  Zn  Zn122  1  0.80814501  0.81312085  0.81269803  1
  Zn  Zn123  1  0.19378647  0.43875730  0.43724227  1
  Zn  Zn124  1  0.18767335  0.43113923  0.94015866  1
  Zn  Zn125  1  0.18804942  0.93596551  0.43615884  1
  Zn  Zn126  1  0.18703811  0.93334904  0.93590882  1
  Zn  Zn127  1  0.69089636  0.43662190  0.43996072  1
  Zn  Zn128  1  0.69358073  0.43713813  0.93834651  1
  Zn  Zn129  1  0.69123829  0.93687616  0.44023290  1
  Zn  Zn130  1  0.68472668  0.94071998  0.93841831  1
  Zn  Zn131  1  0.31197011  0.06306150  0.06196402  1
  Zn  Zn132  1  0.31125755  0.06103323  0.56490263  1
  Zn  Zn133  1  0.31437880  0.56430645  0.06019623  1
  Zn  Zn134  1  0.31297071  0.56424675  0.56255905  1
  Zn  Zn135  1  0.81484821  0.06441872  0.06233190  1
  Zn  Zn136  1  0.81377550  0.06484414  0.55769904  1
  Zn  Zn137  1  0.80738173  0.55938102  0.06142859  1
  Zn  Zn138  1  0.80957916  0.56650629  0.56631400  1
  Zn  Zn139  1  0.44115837  0.43385022  0.18130199  1
  Zn  Zn140  1  0.44113342  0.44093407  0.68956278  1
  Zn  Zn141  1  0.43317604  0.92419222  0.19170936  1
  Zn  Zn142  1  0.43357115  0.93418289  0.69525984  1
  Zn  Zn143  1  0.94051175  0.43022453  0.19409469  1
  Zn  Zn144  1  0.94063346  0.44372845  0.69120430  1
  Zn  Zn145  1  0.93839798  0.93346693  0.18585882  1
  Zn  Zn146  1  0.93721288  0.94164568  0.68687801  1
  Zn  Zn147  1  0.06471236  0.06460505  0.31227845  1
  Zn  Zn148  1  0.05655215  0.06133020  0.80976121  1
  Zn  Zn149  1  0.05893296  0.56322535  0.31074810  1
  Zn  Zn150  1  0.06420119  0.56229924  0.80808753  1
  Zn  Zn151  1  0.56301489  0.06253594  0.31460812  1
  Zn  Zn152  1  0.55595433  0.06194293  0.82992361  1
  Zn  Zn153  1  0.56179749  0.56211548  0.31547649  1
  Zn  Zn154  1  0.56093929  0.56127051  0.80878495  1
  Zn  Zn155  1  0.44060559  0.18891740  0.43765973  1
  Zn  Zn156  1  0.43670881  0.19598638  0.92976301  1
  Zn  Zn157  1  0.43589925  0.68690386  0.43918793  1
  Zn  Zn158  1  0.43812329  0.68820284  0.94404708  1
  Zn  Zn159  1  0.94147744  0.18517853  0.42977221  1
  Zn  Zn160  1  0.93571496  0.18768551  0.93629643  1
  Zn  Zn161  1  0.93539483  0.68488712  0.43818763  1
  Zn  Zn162  1  0.94073658  0.68662392  0.93906666  1
  Zn  Zn163  1  0.06343449  0.31031059  0.06510862  1
  Zn  Zn164  1  0.07778973  0.31298418  0.56058340  1
  Zn  Zn165  1  0.06191388  0.81158166  0.06143138  1
  Zn  Zn166  1  0.06221973  0.80940383  0.56208120  1
  Zn  Zn167  1  0.55912971  0.33093178  0.05831232  1
  Zn  Zn168  1  0.56823505  0.31502534  0.56392664  1
  Zn  Zn169  1  0.55631681  0.80924417  0.06146358  1
  Zn  Zn170  1  0.55772006  0.82602658  0.57039389  1
  O  O171  1  0.11886708  0.11039079  0.12229278  1
  O  O172  1  0.11665616  0.12339547  0.61337703  1
  O  O173  1  0.12204352  0.61029760  0.11607653  1
  O  O174  1  0.12005207  0.61916570  0.61977797  1
  O  O175  1  0.62262911  0.11608372  0.13284650  1
  O  O176  1  0.63573515  0.12377521  0.60909931  1
  O  O177  1  0.63624282  0.61205687  0.11090003  1
  O  O178  1  0.61609390  0.61960740  0.63595718  1
  O  O179  1  0.37671367  0.38735940  0.38167461  1
  O  O180  1  0.38330421  0.37337996  0.86585080  1
  O  O181  1  0.38058628  0.88551015  0.38030433  1
  O  O182  1  0.38427637  0.87114001  0.87143360  1
  O  O183  1  0.87200531  0.39537530  0.37716569  1
  O  O184  1  0.87660832  0.38242307  0.88332462  1
  O  O185  1  0.88294736  0.87976742  0.38055768  1
  O  O186  1  0.87448196  0.88179207  0.87868885  1
  O  O187  1  0.25783553  -0.00590954  0.36490160  1
  O  O188  1  0.26078107  -0.00335552  0.87146518  1
  O  O189  1  0.26557093  0.50830634  0.37648889  1
  O  O190  1  0.24446717  0.49364254  0.85908717  1
  O  O191  1  0.75869416  0.00540423  0.37055335  1
  O  O192  1  0.76162208  0.00835312  0.88114229  1
  O  O193  1  0.75817006  0.51322713  0.38503041  1
  O  O194  1  0.75895432  0.50148633  0.86347678  1
  O  O195  1  0.24049256  0.48520469  0.12037896  1
  O  O196  1  0.24797001  0.49222887  0.63118207  1
  O  O197  1  0.24171151  0.99399149  0.12754499  1
  O  O198  1  0.24433776  0.99328502  0.63250906  1
  O  O199  1  0.73899979  0.48587019  0.12129119  1
  O  O200  1  0.74621493  0.49755819  0.63563836  1
  O  O201  1  0.74000954  0.99421809  0.12832706  1
  O  O202  1  0.75519031  0.98538518  0.61732632  1
  O  O203  1  0.00808095  0.36165539  0.25955275  1
  O  O204  1  0.00751563  0.36715381  0.74783410  1
  O  O205  1  -0.00124215  0.86457598  0.25807688  1
  O  O206  1  0.01381226  0.87900702  0.74704110  1
  O  O207  1  0.50863435  0.36155277  0.24737366  1
  O  O208  1  0.51303701  0.37577607  0.75485795  1
  O  O209  1  0.51072038  0.87731562  0.26396051  1
  O  O210  1  0.50703467  0.87510115  0.76807770  1
  O  O211  1  0.49576021  0.13680845  0.25385962  1
  O  O212  1  0.51020017  0.12026593  0.74779783  1
  O  O213  1  0.54214730  0.63784375  0.23632174  1
  O  O214  1  0.48540478  0.62115985  0.74058420  1
  O  O215  1  1.00528729  0.14326879  0.25408545  1
  O  O216  1  0.99196708  0.13352007  0.74128589  1
  O  O217  1  0.98781265  0.62981181  0.24628794  1
  O  O218  1  0.99054946  0.62318519  0.73934415  1
  O  O219  1  0.36708205  0.25406134  0.00489735  1
  O  O220  1  0.37401200  0.26054228  0.50452170  1
  O  O221  1  0.35483138  0.74360496  0.00027844  1
  O  O222  1  0.36716224  0.75592936  0.50775224  1
  O  O223  1  0.87312170  0.25933301  0.00173471  1
  O  O224  1  0.86182997  0.24123693  0.49498839  1
  O  O225  1  0.86683460  0.75227995  0.00435462  1
  O  O226  1  0.86817000  0.75526197  0.50825159  1
  O  O227  1  0.13865681  0.24252927  0.49088134  1
  O  O228  1  0.12821612  0.24733603  0.99010431  1
  O  O229  1  0.13439568  0.73832954  0.50618807  1
  O  O230  1  0.12680798  0.73969759  0.99357220  1
  O  O231  1  0.63491670  0.24243179  0.49508405  1
  O  O232  1  0.61615264  0.23677953  1.01579456  1
  O  O233  1  0.63162162  0.76155020  0.49296718  1
  O  O234  1  0.63102998  0.74355745  0.99302263  1
  O  O235  1  0.49686791  0.24332925  0.12429281  1
  O  O236  1  0.49014739  0.25452468  0.62549129  1
  O  O237  1  0.49465145  0.74664351  0.12798493  1
  O  O238  1  0.48601333  0.74775235  0.62389376  1
  O  O239  1  1.00102830  0.25026556  0.14277093  1
  O  O240  1  0.99946858  0.24657879  0.62902877  1
  O  O241  1  0.98804451  0.74775534  0.13053781  1
  O  O242  1  0.98723742  0.74451887  0.62338318  1
  O  O243  1  0.01188432  0.25199815  0.36746328  1
  O  O244  1  0.00664617  0.25167544  0.86413275  1
  O  O245  1  -0.00849476  0.75618623  0.36570949  1
  O  O246  1  0.01190643  0.75276047  0.87693388  1
  O  O247  1  0.50674033  0.25422638  0.36613538  1
  O  O248  1  0.50102744  0.26690156  0.86698917  1
  O  O249  1  0.50764935  0.75584026  0.37576496  1
  O  O250  1  0.50708949  0.76229761  0.88487299  1
  O  O251  1  0.24327036  0.13455644  0.50556678  1
  O  O252  1  0.24524730  0.13886427  1.00544340  1
  O  O253  1  0.24374073  0.63123960  0.49416998  1
  O  O254  1  0.23238568  0.63764145  1.00482672  1
  O  O255  1  0.74289149  0.12936969  0.48990037  1
  O  O256  1  0.75351304  0.12770946  0.98717772  1
  O  O257  1  0.75267000  0.63973031  0.49676062  1
  O  O258  1  0.74162946  0.63225685  0.99464421  1
  O  O259  1  0.24743368  0.36218450  0.01188299  1
  O  O260  1  0.25985347  0.36842932  0.50841921  1
  O  O261  1  0.23830064  0.85925357  0.00734947  1
  O  O262  1  0.25278369  0.86738757  0.50614775  1
  O  O263  1  0.75805837  0.36951032  0.00728569  1
  O  O264  1  0.74828858  0.36480608  0.51022940  1
  O  O265  1  0.75299777  0.86848106  0.00456584  1
  O  O266  1  0.75597876  0.86563218  0.50689971  1
  O  O267  1  0.12441328  0.50057566  0.23634561  1
  O  O268  1  0.13752973  0.49779806  0.73994617  1
  O  O269  1  0.13074052  0.99860026  0.24316462  1
  O  O270  1  0.12899759  0.99378264  0.74513170  1
  O  O271  1  0.62105840  0.48648879  0.24281066  1
  O  O272  1  0.63469244  0.49335423  0.74303983  1
  O  O273  1  0.62908823  0.99156597  0.24390621  1
  O  O274  1  0.62130929  0.99074933  0.75447649  1
  O  O275  1  0.36865178  0.00206384  0.25649078  1
  O  O276  1  0.36442056  -0.00525786  0.76647503  1
  O  O277  1  0.38089719  0.49407850  0.26055025  1
  O  O278  1  0.36480752  0.51070383  0.74621988  1
  O  O279  1  0.87138804  -0.00763091  0.26086670  1
  O  O280  1  0.88024147  0.01098476  0.75862587  1
  O  O281  1  0.87600237  0.50973592  0.25297633  1
  O  O282  1  0.86875402  0.50901781  0.75656165  1
  O  O283  1  0.12892048  0.36658720  0.37555589  1
  O  O284  1  0.12258583  0.36585874  0.86763965  1
  O  O285  1  0.11048564  0.87680196  0.37359946  1
  O  O286  1  0.12053827  0.86648913  0.86640778  1
  O  O287  1  0.62672000  0.37085884  0.36731431  1
  O  O288  1  0.62874031  0.37631046  0.86103339  1
  O  O289  1  0.61812287  0.87378538  0.37284956  1
  O  O290  1  0.61887193  0.87093329  0.87071170  1
  O  O291  1  0.37156508  0.13754799  0.13073129  1
  O  O292  1  0.37820161  0.13965944  0.61425066  1
  O  O293  1  0.37270680  0.62567171  0.13124547  1
  O  O294  1  0.38022041  0.63152882  0.63146621  1
  O  O295  1  0.87768101  0.12494197  0.12983867  1
  O  O296  1  0.88278634  0.11942986  0.63223752  1
  O  O297  1  0.87100047  0.62679219  0.13189561  1
  O  O298  1  0.88295672  0.63136207  0.63170547  1
  O  O299  1  0.25520250  0.25582591  0.11915553  1
  O  O300  1  0.26018731  0.25867368  0.61557683  1
  O  O301  1  0.24430478  0.75847574  0.11420824  1
  O  O302  1  0.25801531  0.75107257  0.61587075  1
  O  O303  1  0.75228440  0.26137015  0.12228737  1
  O  O304  1  0.75017854  0.25943720  0.61613847  1
  O  O305  1  0.75109462  0.75425130  0.11447609  1
  O  O306  1  0.76106917  0.75513453  0.62066668  1
  O  O307  1  0.25046929  0.25407117  0.38646677  1
  O  O308  1  0.23997193  0.25406675  0.88182538  1
  O  O309  1  0.25442963  0.74446427  0.38857561  1
  O  O310  1  0.23625015  0.75332430  0.88842349  1
  O  O311  1  0.74658929  0.24333236  0.37971352  1
  O  O312  1  0.74987104  0.23600110  0.87788481  1
  O  O313  1  0.74544237  0.74453447  0.38674040  1
  O  O314  1  0.74224550  0.75040544  0.88739014  1
  O  O315  1  -0.00067503  0.11054554  -0.00046026  1
  O  O316  1  0.00728229  0.12011911  0.50281178  1
  O  O317  1  0.01482320  0.62549828  0.00384974  1
  O  O318  1  0.00862231  0.63093558  0.51196750  1
  O  O319  1  0.49668827  0.11625974  -0.00161594  1
  O  O320  1  0.51783125  0.12518922  0.49657371  1
  O  O321  1  0.51263096  0.62245582  0.00211196  1
  O  O322  1  0.49589219  0.62454635  0.51652653  1
  O  O323  1  0.49566849  0.37902445  0.49747860  1
  O  O324  1  0.49342471  0.37723458  0.98122622  1
  O  O325  1  0.49171931  0.87361109  0.48792269  1
  O  O326  1  0.50281310  0.88399471  0.98769369  1
  O  O327  1  1.00161935  0.36817442  0.50156025  1
  O  O328  1  0.98805323  0.37187301  1.00108727  1
  O  O329  1  0.99542149  0.87853281  0.49344703  1
  O  O330  1  0.99173231  0.88421851  0.99812172  1
  O  O331  1  0.48910143  0.50106667  0.37872809  1
  O  O332  1  0.50797288  0.48101144  0.87109209  1
  O  O333  1  0.49160664  0.99293417  0.37857170  1
  O  O334  1  0.48455499  0.98931452  0.88527642  1
  O  O335  1  0.98596195  0.50123053  0.37602005  1
  O  O336  1  0.98852966  0.49614301  0.86634666  1
  O  O337  1  0.99471201  0.99349243  0.37798318  1
  O  O338  1  0.98870724  0.99716144  0.88075357  1
  O  O339  1  0.00587844  -0.00277137  0.11728547  1
  O  O340  1  0.00654559  0.00736817  0.61636549  1
  O  O341  1  0.01355018  0.49527343  0.12657100  1
  O  O342  1  0.01325041  0.50992813  0.62978163  1
  O  O343  1  0.50202116  -0.00925325  0.11800407  1
  O  O344  1  0.50191864  -0.02451464  0.61629527  1
  O  O345  1  0.51384517  0.49724781  0.11791343  1
  O  O346  1  0.50994039  0.50928717  0.62510847  1
  O  O347  1  0.24739134  0.36883185  0.23373130  1
  O  O348  1  0.24953845  0.38323861  0.74147883  1
  O  O349  1  0.24380351  0.88589108  0.24063845  1
  O  O350  1  0.23810432  0.88203457  0.74532421  1
  O  O351  1  0.74024052  0.36969297  0.24106914  1
  O  O352  1  0.74309102  0.38041276  0.74717211  1
  O  O353  1  0.74518861  0.88215329  0.24748198  1
  O  O354  1  0.74174083  0.87641861  0.74380854  1
  O  O355  1  0.25781146  0.11027522  0.24445852  1
  O  O356  1  0.24311274  0.11098467  0.74230139  1
  O  O357  1  0.24006874  0.63528478  0.26634994  1
  O  O358  1  0.26048371  0.61164391  0.74681882  1
  O  O359  1  0.74538954  0.11820747  0.26407017  1
  O  O360  1  0.76191740  0.13011149  0.75776271  1
  O  O361  1  0.75462097  0.63164884  0.26546270  1
  O  O362  1  0.76127319  0.61803617  0.75094017  1
  O  O363  1  0.37976370  0.11351265  0.37115005  1
  O  O364  1  0.37463533  0.11492401  0.87404418  1
  O  O365  1  0.36937084  0.61321293  0.37699289  1
  O  O366  1  0.38249372  0.63010813  0.86046964  1
  O  O367  1  0.86733995  0.11292419  0.37820664  1
  O  O368  1  0.86912358  0.11816418  0.86628611  1
  O  O369  1  0.86781674  0.61543886  0.37066938  1
  O  O370  1  0.87602337  0.61975257  0.86901048  1
  O  O371  1  0.13264447  0.38414290  0.12617752  1
  O  O372  1  0.13951903  0.38151508  0.63094642  1
  O  O373  1  0.12865714  0.88529799  0.12644505  1
  O  O374  1  0.12911840  0.87862734  0.62976846  1
  O  O375  1  0.63210588  0.37992643  0.13064776  1
  O  O376  1  0.63593768  0.38404126  0.63436296  1
  O  O377  1  0.62800849  0.87969722  0.13485326  1
  O  O378  1  0.63657738  0.86494214  0.64124727  1
  O  O379  1  0.13116372  0.24635301  0.26395980  1
  O  O380  1  0.11844947  0.25442241  0.75250130  1
  O  O381  1  0.10694784  0.74809749  0.24194746  1
  O  O382  1  0.13303704  0.75595787  0.75958664  1
  O  O383  1  0.61938495  0.25629665  0.25523003  1
  O  O384  1  0.62527691  0.26548523  0.74189394  1
  O  O385  1  0.63450194  0.76761387  0.26877483  1
  O  O386  1  0.63180532  0.75620086  0.76594076  1
  O  O387  1  0.38353549  0.24631339  0.24248221  1
  O  O388  1  0.37707699  0.24896000  0.73220024  1
  O  O389  1  0.38109488  0.77209062  0.24349841  1
  O  O390  1  0.36257995  0.73518265  0.74239070  1
  O  O391  1  0.88636273  0.25495878  0.25576713  1
  O  O392  1  0.88592284  0.24357509  0.75422940  1
  O  O393  1  0.87924787  0.74044184  0.24417929  1
  O  O394  1  0.86988049  0.74139633  0.74412378  1
  O  O395  1  0.37660651  0.48953090  0.49902891  1
  O  O396  1  0.37202780  0.49536357  0.99533630  1
  O  O397  1  0.37190952  0.99379281  0.49252637  1
  O  O398  1  0.37770495  1.00156814  0.98891053  1
  O  O399  1  0.87682880  0.50724099  0.49400819  1
  O  O400  1  0.86824759  0.49181371  0.98964729  1
  O  O401  1  0.88094464  0.99354172  0.48895360  1
  O  O402  1  0.88002083  0.99267481  0.99270824  1
  O  O403  1  0.11640360  -0.00088779  0.00406671  1
  O  O404  1  0.12306127  0.00656906  0.50483611  1
  O  O405  1  0.12985666  0.50967167  0.00557968  1
  O  O406  1  0.13538230  0.50761094  0.51351130  1
  O  O407  1  0.61405416  -0.00273741  0.01451916  1
  O  O408  1  0.62578361  0.01515721  0.49285507  1
  O  O409  1  0.62549197  0.50642231  0.00338440  1
  O  O410  1  0.62769317  0.49800722  0.51601710  1
  O  O411  1  0.36536428  0.36442619  0.12412682  1
  O  O412  1  0.37235559  0.37173663  0.61945191  1
  O  O413  1  0.35780993  0.87913521  0.11802901  1
  O  O414  1  0.36555035  0.86545336  0.62465312  1
  O  O415  1  0.86900906  0.37486288  0.12011502  1
  O  O416  1  0.86043316  0.38179246  0.63423988  1
  O  O417  1  0.86629763  0.86772795  0.11936009  1
  O  O418  1  0.87122382  0.86875675  0.62267859  1
  O  O419  1  0.12454081  0.13067437  0.38795277  1
  O  O420  1  0.11994309  0.13542581  0.87312960  1
  O  O421  1  0.13039955  0.61463478  0.38776033  1
  O  O422  1  0.12113000  0.62744360  0.88482549  1
  O  O423  1  0.63350598  0.13078155  0.38250596  1
  O  O424  1  0.64317631  0.11633016  0.87743613  1
  O  O425  1  0.63351037  0.63555537  0.37849313  1
  O  O426  1  0.62484246  0.63266763  0.87876339  1
