# generated using pymatgen
data_V85Zn86O256
_symmetry_space_group_name_H-M   'P 1'
_cell_length_a   16.97685313
_cell_length_b   16.97473740
_cell_length_c   16.96082499
_cell_angle_alpha   90.08972879
_cell_angle_beta   90.01365150
_cell_angle_gamma   89.97761163
_symmetry_Int_Tables_number   1
_chemical_formula_structural   V85Zn86O256
_chemical_formula_sum   'V85 Zn86 O256'
_cell_volume   4887.72373772
_cell_formula_units_Z   1
loop_
 _symmetry_equiv_pos_site_id
 _symmetry_equiv_pos_as_xyz
  1  'x, y, z'
loop_
 _atom_site_type_symbol
 _atom_site_label
 _atom_site_symmetry_multiplicity
 _atom_site_fract_x
 _atom_site_fract_y
 _atom_site_fract_z
 _atom_site_occupancy
  V  V0  1  0.86548927  0.88293642  0.00813845  1
  V  V1  1  0.25398547  0.87179558  0.62662736  1
  V  V2  1  0.50223469  0.37894861  0.87992126  1
  V  V3  1  0.87258771  0.00214762  0.86891729  1
  V  V4  1  0.74879965  0.75935475  0.00201551  1
  V  V5  1  0.75185428  0.12290352  0.37198278  1
  V  V6  1  0.24528662  0.62404242  0.88291183  1
  V  V7  1  0.36908228  0.36971520  0.49894108  1
  V  V8  1  0.63350361  -0.01498535  0.12065464  1
  V  V9  1  0.62432507  0.12382629  0.49681660  1
  V  V10  1  0.24624908  0.74999739  0.50037400  1
  V  V11  1  0.74080255  0.37389939  0.11940173  1
  V  V12  1  0.00389368  0.50454103  0.00128274  1
  V  V13  1  0.50285406  -0.00157812  0.49458820  1
  V  V14  1  0.37740776  0.86765475  0.49999544  1
  V  V15  1  0.36862351  0.00523543  0.37499072  1
  V  V16  1  0.50843267  0.85987161  0.37075987  1
  V  V17  1  0.87560045  0.37342638  0.50083237  1
  V  V18  1  0.87944986  0.74781104  0.62827243  1
  V  V19  1  0.13652242  0.12810322  0.49934234  1
  V  V20  1  0.49697964  0.12462404  0.62375497  1
  V  V21  1  0.74976233  0.25011612  0.49952504  1
  V  V22  1  0.63921648  0.13301434  -0.00266257  1
  V  V23  1  0.75121278  0.62471524  0.88157040  1
  V  V24  1  0.24605334  0.49571219  0.24921214  1
  V  V25  1  0.87353318  0.24481811  0.62561114  1
  V  V26  1  0.86629560  0.50063328  0.37737699  1
  V  V27  1  0.61920640  0.87453026  0.75221694  1
  V  V28  1  0.87640783  0.62566196  0.75212180  1
  V  V29  1  0.88075693  0.13401622  0.25177463  1
  V  V30  1  0.12535256  0.62101994  0.50703594  1
  V  V31  1  0.62070105  0.49935644  0.62505278  1
  V  V32  1  0.12806887  0.24915259  0.37038372  1
  V  V33  1  0.24454111  0.14116375  0.87561282  1
  V  V34  1  0.12616065  0.50880595  0.12369713  1
  V  V35  1  0.69176762  0.68573140  0.32602422  1
  V  V36  1  0.00251162  0.13538834  0.12782985  1
  V  V37  1  0.61853077  0.75010301  0.87349685  1
  V  V38  1  -0.00246195  0.36913991  0.36671509  1
  V  V39  1  0.61530299  0.60803103  0.00262509  1
  V  V40  1  0.81610922  0.16848797  0.80425003  1
  V  V41  1  0.13097030  0.14144684  -0.00505881  1
  V  V42  1  0.87312328  0.36893637  0.00211075  1
  V  V43  1  0.62350775  0.62893100  0.50132535  1
  V  V44  1  0.87721187  0.50275707  0.87759739  1
  V  V45  1  0.62304107  0.38022054  0.24799378  1
  V  V46  1  0.75072310  0.87383517  0.62567742  1
  V  V47  1  0.32003756  0.06718476  0.19149744  1
  V  V48  1  0.51011038  0.11969740  0.12477011  1
  V  V49  1  0.62348405  0.24941981  0.37182303  1
  V  V50  1  0.49386141  0.63507586  0.62779000  1
  V  V51  1  0.00922027  0.37496950  0.87599798  1
  V  V52  1  0.74760293  0.50350363  0.74811668  1
  V  V53  1  -0.00119080  0.87640191  0.87403829  1
  V  V54  1  0.24951648  0.50060470  0.74444606  1
  V  V55  1  0.24467926  0.62899309  0.37681239  1
  V  V56  1  0.00060819  0.12511424  0.62698234  1
  V  V57  1  0.75137553  0.74368295  0.50095986  1
  V  V58  1  0.04426504  0.80928528  0.31904415  1
  V  V59  1  0.00492326  0.49553277  0.50704511  1
  V  V60  1  0.45481805  0.93061242  0.92210282  1
  V  V61  1  0.49668488  0.37329730  0.37443431  1
  V  V62  1  0.89067388  0.62438015  0.25161243  1
  V  V63  1  0.37068735  0.63392447  0.74713345  1
  V  V64  1  0.37530074  0.12293266  0.76100915  1
  V  V65  1  0.00203900  0.74873769  0.75360193  1
  V  V66  1  0.24294772  0.37377366  0.62137417  1
  V  V67  1  0.12567425  0.37728120  0.74920501  1
  V  V68  1  0.88006880  0.87440122  0.50065999  1
  V  V69  1  0.00586213  0.24575080  0.75357043  1
  V  V70  1  0.12764998  0.74847832  0.88888336  1
  V  V71  1  0.24701707  0.37274499  0.11585128  1
  V  V72  1  0.12709733  0.00037232  0.62316931  1
  V  V73  1  0.00143966  0.00606894  0.00012672  1
  V  V74  1  0.75034438  -0.00022394  0.75164348  1
  V  V75  1  0.88101714  0.00044895  0.37537293  1
  V  V76  1  0.25344679  -0.00104732  0.75678910  1
  V  V77  1  0.37069216  0.49861411  0.37394528  1
  V  V78  1  0.49959898  0.25111950  0.75570851  1
  V  V79  1  0.12709037  0.87394164  0.74905797  1
  V  V80  1  0.00602857  -0.00360949  0.49772900  1
  V  V81  1  0.49332573  0.61441504  0.13948654  1
  V  V82  1  0.37821996  0.38426723  0.00117282  1
  V  V83  1  0.37323473  0.24944622  0.12476076  1
  V  V84  1  0.36919181  0.24809853  0.62239861  1
  Zn  Zn85  1  0.49589842  0.50151045  0.50206419  1
  Zn  Zn86  1  0.21521952  0.81224197  0.06164705  1
  Zn  Zn87  1  0.13860209  0.00256567  0.12104738  1
  Zn  Zn88  1  0.00668307  0.61750117  0.63084838  1
  Zn  Zn89  1  0.11799189  0.37095306  0.24499606  1
  Zn  Zn90  1  0.38802719  0.77175064  0.12957435  1
  Zn  Zn91  1  0.62243909  0.37450397  0.75053778  1
  Zn  Zn92  1  0.87321813  0.25241141  0.12784454  1
  Zn  Zn93  1  0.25906490  0.13281103  0.37160450  1
  Zn  Zn94  1  0.48141828  0.76489118  0.75570275  1
  Zn  Zn95  1  0.37930063  0.50188309  0.87520744  1
  Zn  Zn96  1  0.49093784  0.24488813  0.25140247  1
  Zn  Zn97  1  0.87765438  0.76595683  0.14092329  1
  Zn  Zn98  1  0.74745582  0.50189665  0.24792753  1
  Zn  Zn99  1  0.76115817  -0.00927420  0.24007372  1
  Zn  Zn100  1  0.00298988  0.63106680  0.12439834  1
  Zn  Zn101  1  0.37366028  0.63626951  0.25298568  1
  Zn  Zn102  1  0.63671460  0.86833003  0.25557820  1
  Zn  Zn103  1  0.74714392  0.37544405  0.62374329  1
  Zn  Zn104  1  0.63886655  0.24743388  0.87582196  1
  Zn  Zn105  1  0.62582548  0.00007641  0.62253134  1
  Zn  Zn106  1  0.15932376  0.88016525  0.22676260  1
  Zn  Zn107  1  0.18172230  0.19406466  0.18357925  1
  Zn  Zn108  1  0.18765350  0.18951513  0.68876632  1
  Zn  Zn109  1  0.18209365  0.68851555  0.19990428  1
  Zn  Zn110  1  0.18845889  0.69082011  0.68835562  1
  Zn  Zn111  1  0.69162692  0.18896819  0.18830466  1
  Zn  Zn112  1  0.67920844  0.19063743  0.68099537  1
  Zn  Zn113  1  0.68843816  0.68658353  0.16434728  1
  Zn  Zn114  1  0.68524463  0.68772976  0.68733155  1
  Zn  Zn115  1  0.30806523  0.31075486  0.30753236  1
  Zn  Zn116  1  0.31618084  0.31451775  0.81192539  1
  Zn  Zn117  1  0.32112106  0.81580439  0.30179686  1
  Zn  Zn118  1  0.32260373  0.80714902  0.92030786  1
  Zn  Zn119  1  0.80897511  0.31411538  0.31018894  1
  Zn  Zn120  1  0.81727146  0.33158432  0.80880426  1
  Zn  Zn121  1  0.83158239  0.82078692  0.30851538  1
  Zn  Zn122  1  0.81037624  0.81284390  0.81810132  1
  Zn  Zn123  1  0.18519604  0.43509494  0.43818625  1
  Zn  Zn124  1  0.19043843  0.44217534  0.93900015  1
  Zn  Zn125  1  0.19756452  0.91590523  0.40373090  1
  Zn  Zn126  1  0.18203611  0.94680851  0.93225286  1
  Zn  Zn127  1  0.68529566  0.43648679  0.43949406  1
  Zn  Zn128  1  0.68828854  0.43116884  0.93457723  1
  Zn  Zn129  1  0.69324795  0.93542132  0.43408906  1
  Zn  Zn130  1  0.67505389  0.94293200  0.93558065  1
  Zn  Zn131  1  0.33210006  -0.05130380  0.04889301  1
  Zn  Zn132  1  0.31436351  0.05794676  0.56196704  1
  Zn  Zn133  1  0.30880279  0.65011587  0.06069905  1
  Zn  Zn134  1  0.31214815  0.55882585  0.56355293  1
  Zn  Zn135  1  0.81331496  0.06511365  0.06439116  1
  Zn  Zn136  1  0.81342778  0.06300431  0.56235451  1
  Zn  Zn137  1  0.81057533  0.55690504  0.06545565  1
  Zn  Zn138  1  0.81375932  0.56295718  0.56401560  1
  Zn  Zn139  1  0.43778320  0.44154133  0.18437552  1
  Zn  Zn140  1  0.43504984  0.43903035  0.68900846  1
  Zn  Zn141  1  0.45369058  0.93446369  0.19027227  1
  Zn  Zn142  1  0.43535223  0.94093904  0.68559725  1
  Zn  Zn143  1  0.93314159  0.44181439  0.18607971  1
  Zn  Zn144  1  0.93582418  0.43487027  0.68768306  1
  Zn  Zn145  1  0.97493443  0.95569676  0.20621283  1
  Zn  Zn146  1  0.93791123  0.93891153  0.68773295  1
  Zn  Zn147  1  0.06997751  0.06088051  0.30943880  1
  Zn  Zn148  1  0.06508820  0.06368949  0.81332724  1
  Zn  Zn149  1  0.06338827  0.55684417  0.32111030  1
  Zn  Zn150  1  0.06633957  0.56051361  0.81203168  1
  Zn  Zn151  1  0.56408790  0.05759246  0.30491414  1
  Zn  Zn152  1  0.56840828  0.06778480  0.81199273  1
  Zn  Zn153  1  0.55642708  0.55548314  0.31304597  1
  Zn  Zn154  1  0.56058101  0.56505446  0.81262178  1
  Zn  Zn155  1  0.43703710  0.18712478  0.43713728  1
  Zn  Zn156  1  0.43649929  0.18559153  0.94691414  1
  Zn  Zn157  1  0.43336516  0.68538534  0.43817287  1
  Zn  Zn158  1  0.44025785  0.68276064  0.93825661  1
  Zn  Zn159  1  0.94343855  0.18600183  0.43905044  1
  Zn  Zn160  1  0.94484523  0.19292455  0.94065176  1
  Zn  Zn161  1  0.93374933  0.67781562  0.44192915  1
  Zn  Zn162  1  0.95066286  0.70577057  0.96682604  1
  Zn  Zn163  1  0.06156458  0.31648676  0.06267528  1
  Zn  Zn164  1  0.06263258  0.30835517  0.55934228  1
  Zn  Zn165  1  0.04816955  0.82205353  0.07000432  1
  Zn  Zn166  1  0.06573144  0.81018731  0.56060926  1
  Zn  Zn167  1  0.55985341  0.30507965  0.06147018  1
  Zn  Zn168  1  0.55674933  0.31277072  0.56179728  1
  Zn  Zn169  1  0.55745299  0.80310047  0.05978283  1
  Zn  Zn170  1  0.56423966  0.81156272  0.56321445  1
  O  O171  1  0.11959615  0.12514847  0.11317539  1
  O  O172  1  0.12179883  0.12203874  0.61780558  1
  O  O173  1  0.12069872  0.61217125  0.13255771  1
  O  O174  1  0.12565959  0.62757907  0.61310467  1
  O  O175  1  0.62233357  0.12611385  0.11775316  1
  O  O176  1  0.61479489  0.12326649  0.61452766  1
  O  O177  1  0.61629307  0.62166992  0.10836880  1
  O  O178  1  0.61801075  0.61683464  0.61960583  1
  O  O179  1  0.37424985  0.37672914  0.38217256  1
  O  O180  1  0.38300541  0.37348191  0.88267641  1
  O  O181  1  0.39267704  0.88521821  0.38455312  1
  O  O182  1  0.39616008  0.86951480  0.86174599  1
  O  O183  1  0.88085237  0.37738807  0.38111845  1
  O  O184  1  0.88651710  0.38480140  0.88056439  1
  O  O185  1  0.87648943  0.88809773  0.39067824  1
  O  O186  1  0.88071832  0.88797292  0.87517638  1
  O  O187  1  0.26733088  0.01012951  0.39017595  1
  O  O188  1  0.24296735  0.01385860  0.85851689  1
  O  O189  1  0.25359401  0.50329411  0.37133091  1
  O  O190  1  0.24556400  0.50777391  0.85974819  1
  O  O191  1  0.76581269  0.00980798  0.38221477  1
  O  O192  1  0.75539741  -0.00052790  0.85974774  1
  O  O193  1  0.76346594  0.49261564  0.37629392  1
  O  O194  1  0.75460162  0.50521151  0.86719404  1
  O  O195  1  0.23978003  0.49081680  0.13611742  1
  O  O196  1  0.25336805  0.48788749  0.63519134  1
  O  O197  1  0.26196677  1.01277866  0.12744399  1
  O  O198  1  0.24435075  0.99240130  0.62958414  1
  O  O199  1  0.75268525  0.48095895  0.13041979  1
  O  O200  1  0.74080854  0.50215001  0.63191756  1
  O  O201  1  0.73805119  1.00070646  0.12367309  1
  O  O202  1  0.75370522  0.99092057  0.63296027  1
  O  O203  1  -0.00270730  0.38094621  0.26377010  1
  O  O204  1  0.00624600  0.37050897  0.75550841  1
  O  O205  1  -0.02703150  0.85361945  0.25784175  1
  O  O206  1  0.00507654  0.87061055  0.75555583  1
  O  O207  1  0.50649600  0.37179926  0.25648868  1
  O  O208  1  0.49910254  0.36565662  0.75467867  1
  O  O209  1  0.51463856  0.87504180  0.26728945  1
  O  O210  1  0.51590998  0.87401453  0.73235824  1
  O  O211  1  0.51178585  0.13036748  0.23274171  1
  O  O212  1  0.49294090  0.13014110  0.74599300  1
  O  O213  1  0.49954221  0.62267116  0.24319805  1
  O  O214  1  0.48814861  0.62367171  0.74338472  1
  O  O215  1  0.99528241  0.12283998  0.23860241  1
  O  O216  1  1.00857112  0.13546916  0.74214892  1
  O  O217  1  0.99278209  0.61992270  0.25009645  1
  O  O218  1  0.99472727  0.62892996  0.75079493  1
  O  O219  1  0.37672460  0.25762564  0.01698312  1
  O  O220  1  0.37903529  0.25722539  0.51033327  1
  O  O221  1  0.36574007  0.73584755  0.00227592  1
  O  O222  1  0.36488015  0.75997086  0.49770097  1
  O  O223  1  0.87854316  0.26598946  -0.00197517  1
  O  O224  1  0.87177218  0.25369621  0.50731476  1
  O  O225  1  0.85937628  0.77161951  -0.02114956  1
  O  O226  1  0.86982070  0.75223067  0.50750811  1
  O  O227  1  0.12008183  0.23825956  0.48837147  1
  O  O228  1  0.11988893  0.24023122  0.99842270  1
  O  O229  1  0.13878022  0.74221035  0.50220449  1
  O  O230  1  0.12403505  0.75920608  0.98975093  1
  O  O231  1  0.62708659  0.24670323  0.49002574  1
  O  O232  1  0.62916307  0.23823681  0.99708579  1
  O  O233  1  0.63379487  0.73691345  0.50635033  1
  O  O234  1  0.63373030  0.74071420  0.99054998  1
  O  O235  1  0.49183734  0.23978014  0.12942805  1
  O  O236  1  0.49064844  0.24544090  0.63378917  1
  O  O237  1  0.49808570  0.72215915  0.11179390  1
  O  O238  1  0.50478361  0.73749666  0.63084670  1
  O  O239  1  0.99581590  0.23961070  0.11967534  1
  O  O240  1  0.99229338  0.24766538  0.63490339  1
  O  O241  1  0.97725650  0.73778378  0.08801877  1
  O  O242  1  0.99467972  0.74856095  0.63404732  1
  O  O243  1  0.01031465  0.25904408  0.38071301  1
  O  O244  1  -0.00551029  0.26043233  0.86098430  1
  O  O245  1  0.00037988  0.74256605  0.37861820  1
  O  O246  1  0.00814218  0.75504414  0.87347433  1
  O  O247  1  0.50741829  0.25447582  0.37286064  1
  O  O248  1  0.49554916  0.25515409  0.86375619  1
  O  O249  1  0.49908785  0.76211288  0.38324797  1
  O  O250  1  0.51506599  0.73836295  0.86761004  1
  O  O251  1  0.23848211  0.12354849  0.50279366  1
  O  O252  1  0.23354910  0.12582478  0.98831345  1
  O  O253  1  0.24544558  0.62927680  0.49901373  1
  O  O254  1  0.24367669  0.60406545  0.97991727  1
  O  O255  1  0.74383271  0.13098075  0.49462460  1
  O  O256  1  0.73847468  0.12697467  1.00325190  1
  O  O257  1  0.74404709  0.63624482  0.50576898  1
  O  O258  1  0.74717167  0.63007702  0.99437658  1
  O  O259  1  0.25647556  0.37873858  0.01009495  1
  O  O260  1  0.25950316  0.37760316  0.50784237  1
  O  O261  1  0.25898446  0.88255798  -0.01550348  1
  O  O262  1  0.25601545  0.86650861  0.49944235  1
  O  O263  1  0.75669642  0.37737482  0.01019724  1
  O  O264  1  0.75653181  0.36740878  0.50247831  1
  O  O265  1  0.75255852  0.87087969  -0.00980737  1
  O  O266  1  0.75591520  0.86377626  0.50748344  1
  O  O267  1  0.12977466  0.49470475  0.24642373  1
  O  O268  1  0.12952934  0.48568457  0.74732716  1
  O  O269  1  0.09243144  0.98253414  0.23071745  1
  O  O270  1  0.13152316  0.99551896  0.74230880  1
  O  O271  1  0.62850785  0.48338546  0.26100117  1
  O  O272  1  0.63165916  0.50186715  0.74154219  1
  O  O273  1  0.63248379  0.99726023  0.23347463  1
  O  O274  1  0.63554910  0.99394266  0.74342646  1
  O  O275  1  0.37718119  0.00723015  0.25495373  1
  O  O276  1  0.36587050  0.01259162  0.74265845  1
  O  O277  1  0.36535030  0.49559697  0.26360815  1
  O  O278  1  0.36368392  0.50429459  0.75340253  1
  O  O279  1  0.88162981  0.01144738  0.26149750  1
  O  O280  1  0.86984666  0.00238131  0.75963196  1
  O  O281  1  0.87103537  0.50856121  0.26021823  1
  O  O282  1  0.86778432  0.50487258  0.75528205  1
  O  O283  1  0.11661941  0.36357551  0.37631306  1
  O  O284  1  0.11510249  0.37904721  0.86786877  1
  O  O285  1  0.09223793  0.87626101  0.37916922  1
  O  O286  1  0.11880109  0.86954587  0.86758043  1
  O  O287  1  0.61890735  0.36665822  0.37235566  1
  O  O288  1  0.61870247  0.36584070  0.87220294  1
  O  O289  1  0.61143932  0.87516943  0.38366305  1
  O  O290  1  0.63489494  0.86277398  0.86198966  1
  O  O291  1  0.38282791  0.12666258  0.13229831  1
  O  O292  1  0.37816519  0.13218518  0.63035260  1
  O  O293  1  0.38737664  0.60937877  0.13382352  1
  O  O294  1  0.38368294  0.61737996  0.63221859  1
  O  O295  1  0.88169630  0.12977676  0.13353159  1
  O  O296  1  0.88196235  0.13749044  0.61992060  1
  O  O297  1  0.87566084  0.61372330  0.14546501  1
  O  O298  1  0.87769324  0.63082875  0.63470187  1
  O  O299  1  0.25557514  0.26337550  0.13047135  1
  O  O300  1  0.26225890  0.25790180  0.63104562  1
  O  O301  1  0.25601701  0.73088022  0.12526983  1
  O  O302  1  0.24692552  0.76506786  0.61869120  1
  O  O303  1  0.75580173  0.26788180  0.13191803  1
  O  O304  1  0.75640731  0.25090890  0.61884457  1
  O  O305  1  0.76266722  0.74814927  0.10625895  1
  O  O306  1  0.75718124  0.75529038  0.62049966  1
  O  O307  1  0.23444787  0.25011251  0.37409772  1
  O  O308  1  0.24689671  0.24014459  0.86351935  1
  O  O309  1  0.25484903  0.73292600  0.38475685  1
  O  O310  1  0.24196272  0.73315096  0.87398590  1
  O  O311  1  0.74310757  0.24381271  0.38088850  1
  O  O312  1  0.75851605  0.24188689  0.85298697  1
  O  O313  1  0.75485226  0.74525375  0.38252071  1
  O  O314  1  0.74132837  0.73955909  0.87872794  1
  O  O315  1  0.00958263  0.12307717  0.00229165  1
  O  O316  1  0.00835554  0.11613669  0.50910538  1
  O  O317  1  -0.00357622  0.60660362  -0.00457941  1
  O  O318  1  0.00822123  0.61377073  0.50430877  1
  O  O319  1  0.51040372  0.13261363  0.01800876  1
  O  O320  1  0.50548290  0.11735366  0.50264002  1
  O  O321  1  0.51482014  0.61226123  -0.01073660  1
  O  O322  1  0.50643765  0.62430528  0.50769895  1
  O  O323  1  0.48602424  0.37676071  0.49449867  1
  O  O324  1  0.49346136  0.36704088  0.99002163  1
  O  O325  1  0.49517229  0.88002620  0.49842836  1
  O  O326  1  0.50457480  0.87266760  0.98938408  1
  O  O327  1  0.99373599  0.37854230  0.49498828  1
  O  O328  1  0.99428760  0.38201079  0.99159469  1
  O  O329  1  0.99442354  0.88960052  0.51494707  1
  O  O330  1  0.98967223  0.88977009  0.99060270  1
  O  O331  1  0.48801409  0.49145751  0.37976767  1
  O  O332  1  0.50020934  0.48263117  0.86530355  1
  O  O333  1  0.49676700  0.99928728  0.38459656  1
  O  O334  1  0.52190577  0.98241941  0.86567352  1
  O  O335  1  0.99043529  0.48929805  0.38767506  1
  O  O336  1  0.99759527  0.49276479  0.87933078  1
  O  O337  1  0.99009483  1.01247192  0.38752088  1
  O  O338  1  0.99218429  0.99988950  0.88090640  1
  O  O339  1  -0.00937805  0.01552863  0.10640548  1
  O  O340  1  0.00693061  0.00712976  0.62223477  1
  O  O341  1  0.00741346  0.49841016  0.11675695  1
  O  O342  1  -0.00695968  0.49771475  0.61179515  1
  O  O343  1  0.51764887  0.01272281  0.12891373  1
  O  O344  1  0.50038184  0.00653186  0.61081533  1
  O  O345  1  0.50700537  0.51361713  0.12827752  1
  O  O346  1  0.50724002  0.50699102  0.62365802  1
  O  O347  1  0.24516611  0.38556106  0.24443367  1
  O  O348  1  0.24363907  0.37981972  0.74415927  1
  O  O349  1  0.24115016  0.88854403  0.29962450  1
  O  O350  1  0.24470027  0.88527197  0.73910411  1
  O  O351  1  0.74120250  0.37719245  0.24220904  1
  O  O352  1  0.74559559  0.39136887  0.74463128  1
  O  O353  1  0.74938298  0.88045114  0.26376461  1
  O  O354  1  0.74570964  0.88101604  0.74254625  1
  O  O355  1  0.25254860  0.12160601  0.24636124  1
  O  O356  1  0.25641428  0.12003696  0.75279571  1
  O  O357  1  0.24768896  0.61214305  0.26250388  1
  O  O358  1  0.25309966  0.61631349  0.74991818  1
  O  O359  1  0.76038998  0.11962999  0.25707588  1
  O  O360  1  0.74925466  0.11645923  0.74012162  1
  O  O361  1  0.74170009  0.62437328  0.25771465  1
  O  O362  1  0.75283615  0.61736270  0.75663277  1
  O  O363  1  0.37560243  0.11621421  0.37618919  1
  O  O364  1  0.36785645  0.13419706  0.86460560  1
  O  O365  1  0.36637816  0.61339913  0.37603858  1
  O  O366  1  0.36113901  0.62067872  0.86563414  1
  O  O367  1  0.87215727  0.12173017  0.37203228  1
  O  O368  1  0.87844199  0.12088208  0.87469333  1
  O  O369  1  0.87742497  0.61272528  0.36451848  1
  O  O370  1  0.86292317  0.62092423  0.87144298  1
  O  O371  1  0.13129784  0.38023765  0.12687571  1
  O  O372  1  0.13731212  0.36745923  0.62805879  1
  O  O373  1  0.13447445  0.87951038  0.11448318  1
  O  O374  1  0.13279181  0.88121001  0.62874857  1
  O  O375  1  0.63277258  0.36756312  0.13212140  1
  O  O376  1  0.62336626  0.38799308  0.62311732  1
  O  O377  1  0.62016956  0.88353773  0.12275199  1
  O  O378  1  0.63943045  0.87476525  0.62856507  1
  O  O379  1  0.12172067  0.25132769  0.26498711  1
  O  O380  1  0.11605312  0.26353331  0.74475761  1
  O  O381  1  0.11600503  0.76752942  0.25258046  1
  O  O382  1  0.11942844  0.75702120  0.75649391  1
  O  O383  1  0.62799491  0.25811799  0.26324035  1
  O  O384  1  0.61365799  0.25161283  0.75136227  1
  O  O385  1  0.64048248  0.74259717  0.25894166  1
  O  O386  1  0.62786982  0.75867792  0.75658294  1
  O  O387  1  0.37521135  0.25646234  0.23396414  1
  O  O388  1  0.38162560  0.24279361  0.74173471  1
  O  O389  1  0.38058335  0.74803384  0.24460610  1
  O  O390  1  0.37000150  0.73351327  0.74813982  1
  O  O391  1  0.87496069  0.23749491  0.25477550  1
  O  O392  1  0.87748634  0.24381658  0.74554651  1
  O  O393  1  0.86833295  0.72751163  0.25092832  1
  O  O394  1  0.88082183  0.74524665  0.74951920  1
  O  O395  1  0.37266675  0.49043432  0.48972942  1
  O  O396  1  0.37562452  0.48348845  0.99436163  1
  O  O397  1  0.38468808  0.99234255  0.49384372  1
  O  O398  1  0.39626515  0.99868486  0.97156366  1
  O  O399  1  0.87916464  0.49400858  0.49557853  1
  O  O400  1  0.88096939  0.49038448  0.99507718  1
  O  O401  1  0.88481861  0.99637993  0.49805065  1
  O  O402  1  0.87598375  1.00010910  0.98642519  1
  O  O403  1  0.11412560  0.01184931  0.00029322  1
  O  O404  1  0.11819753  0.00765972  0.50505581  1
  O  O405  1  0.11540091  0.49201902  0.01110216  1
  O  O406  1  0.11547078  0.50449399  0.49949535  1
  O  O407  1  0.62831409  0.01255392  0.01392445  1
  O  O408  1  0.61997167  0.00460895  0.50046057  1
  O  O409  1  0.63471511  0.51166947  -0.00551451  1
  O  O410  1  0.62495421  0.51191851  0.50629552  1
  O  O411  1  0.36877025  0.37177189  0.11878828  1
  O  O412  1  0.36736043  0.36815646  0.61866713  1
  O  O413  1  0.37912053  0.88431988  0.12707086  1
  O  O414  1  0.36597957  0.88248632  0.61146258  1
  O  O415  1  0.86869391  0.37365092  0.11749903  1
  O  O416  1  0.87274919  0.36117985  0.62163789  1
  O  O417  1  0.87794970  0.88083095  0.10818821  1
  O  O418  1  0.86603636  0.86973613  0.62240997  1
  O  O419  1  0.12806749  0.13331306  0.37975049  1
  O  O420  1  0.12934469  0.12710774  0.88454230  1
  O  O421  1  0.13437758  0.61685999  0.39072550  1
  O  O422  1  0.13623401  0.63431688  0.86705449  1
  O  O423  1  0.63038951  0.13074883  0.37700291  1
  O  O424  1  0.62332057  0.12855211  0.89149311  1
  O  O425  1  0.62546959  0.62597353  0.38079849  1
  O  O426  1  0.63582175  0.62781467  0.87965293  1
