# generated using pymatgen
data_V85Zn86O256
_symmetry_space_group_name_H-M   'P 1'
_cell_length_a   16.93209091
_cell_length_b   16.93481994
_cell_length_c   16.92201931
_cell_angle_alpha   90.04468634
_cell_angle_beta   89.99538762
_cell_angle_gamma   90.02656217
_symmetry_Int_Tables_number   1
_chemical_formula_structural   V85Zn86O256
_chemical_formula_sum   'V85 Zn86 O256'
_cell_volume   4852.25013826
_cell_formula_units_Z   1
loop_
 _symmetry_equiv_pos_site_id
 _symmetry_equiv_pos_as_xyz
  1  'x, y, z'
loop_
 _atom_site_type_symbol
 _atom_site_label
 _atom_site_symmetry_multiplicity
 _atom_site_fract_x
 _atom_site_fract_y
 _atom_site_fract_z
 _atom_site_occupancy
  V  V0  1  0.25394785  0.00969193  0.24620214  1
  V  V1  1  0.75208565  0.74817768  0.50212581  1
  V  V2  1  0.12258289  0.26461311  0.37678765  1
  V  V3  1  0.62313344  0.12431395  0.00066011  1
  V  V4  1  0.37207759  0.63141614  0.72746215  1
  V  V5  1  0.12983059  0.62174773  -0.00490428  1
  V  V6  1  0.12341426  0.75068617  0.37108601  1
  V  V7  1  0.62308617  0.25112514  0.87492127  1
  V  V8  1  0.88136267  0.48795357  0.37810964  1
  V  V9  1  0.49616388  0.24377601  0.24930626  1
  V  V10  1  0.24926753  0.87687258  0.13046795  1
  V  V11  1  0.88016359  0.74654180  0.62835472  1
  V  V12  1  0.75403571  0.62251452  0.37816097  1
  V  V13  1  0.86939131  0.75402883  0.12710091  1
  V  V14  1  0.64116657  0.37785041  0.74621832  1
  V  V15  1  0.12098441  0.00208172  0.61777737  1
  V  V16  1  0.74965486  0.24906913  0.00049903  1
  V  V17  1  0.00333839  0.50118169  0.00374400  1
  V  V18  1  0.87579552  0.37672708  0.00059792  1
  V  V19  1  0.63060131  0.50577193  0.63222198  1
  V  V20  1  0.12687118  0.12881222  0.49939484  1
  V  V21  1  0.74918239  -0.01118394  0.24675219  1
  V  V22  1  0.37340326  0.37453122  0.00111939  1
  V  V23  1  0.00371408  0.61240391  0.62605464  1
  V  V24  1  0.37264550  0.00241745  0.37400631  1
  V  V25  1  0.25105941  0.74648027  -0.00394364  1
  V  V26  1  0.75244725  0.87471609  0.62516061  1
  V  V27  1  0.50386334  0.37586086  0.37765013  1
  V  V28  1  -0.01017313  0.24185227  0.75350473  1
  V  V29  1  0.49798314  0.37775270  0.87087741  1
  V  V30  1  0.25468518  0.87005605  0.60651041  1
  V  V31  1  0.75447863  0.25321130  0.51915193  1
  V  V32  1  0.24419828  0.25257759  -0.00675455  1
  V  V33  1  0.00143963  0.25703490  0.25563374  1
  V  V34  1  0.86478080  0.87346745  -0.00087065  1
  V  V35  1  -0.00008855  0.12585244  0.12709267  1
  V  V36  1  0.13333907  0.62636083  0.50598677  1
  V  V37  1  0.63866702  0.24991770  0.37498427  1
  V  V38  1  0.88197690  0.63047250  0.25302951  1
  V  V39  1  0.00484143  0.63180024  0.12575942  1
  V  V40  1  0.62702564  0.50647003  0.12105999  1
  V  V41  1  0.37531662  0.12608940  0.74854646  1
  V  V42  1  0.62455593  0.75325524  0.36846958  1
  V  V43  1  -0.00392173  0.87247472  0.36508360  1
  V  V44  1  0.36628453  0.51252565  0.87187271  1
  V  V45  1  0.24899894  0.00025498  0.74667277  1
  V  V46  1  0.12475177  0.00192967  0.12521915  1
  V  V47  1  0.62523834  0.00051067  0.62238750  1
  V  V48  1  0.62855523  0.37508723  0.24973030  1
  V  V49  1  0.36655414  0.25013132  0.62269039  1
  V  V50  1  0.00912995  0.37048793  0.87651671  1
  V  V51  1  0.37668168  0.75246673  0.14655076  1
  V  V52  1  -0.01155490  0.12782609  0.62191440  1
  V  V53  1  0.75122874  0.37645036  0.12262526  1
  V  V54  1  0.62452540  0.87322149  0.74818322  1
  V  V55  1  0.37171602  0.36902799  0.50087423  1
  V  V56  1  0.12491174  0.87190316  0.74941932  1
  V  V57  1  0.12319976  0.12849919  -0.00930789  1
  V  V58  1  0.49819778  0.00007801  0.00112410  1
  V  V59  1  0.49662923  0.87008458  0.86980867  1
  V  V60  1  0.36512244  0.49398563  0.36653295  1
  V  V61  1  0.87521641  0.25016353  0.12671043  1
  V  V62  1  -0.00165757  -0.00367068  -0.00233417  1
  V  V63  1  0.24537567  0.38361453  0.62337764  1
  V  V64  1  0.87049992  0.61695885  0.75256734  1
  V  V65  1  0.62288483  0.74541404  0.87905488  1
  V  V66  1  0.87599803  0.00473997  0.38018068  1
  V  V67  1  0.74357978  0.61772735  0.87855844  1
  V  V68  1  0.50252886  0.50952485  -0.00101676  1
  V  V69  1  0.12590870  0.37165060  0.74753974  1
  V  V70  1  0.37266067  0.87320313  0.00133699  1
  V  V71  1  0.88560064  0.87760530  0.50218910  1
  V  V72  1  0.63043061  0.12578885  0.49501044  1
  V  V73  1  0.75705391  0.12379888  0.87216727  1
  V  V74  1  0.61992335  0.62313225  0.50374134  1
  V  V75  1  0.24909729  0.13187293  0.37305326  1
  V  V76  1  0.75677087  0.00300602  0.74830737  1
  V  V77  1  0.50070528  0.62855084  0.13776458  1
  V  V78  1  0.37342119  0.00033367  0.87169935  1
  V  V79  1  0.86594166  0.12559374  0.25549798  1
  V  V80  1  0.87756850  0.37305325  0.51813698  1
  V  V81  1  0.23795493  0.37794011  0.13394765  1
  V  V82  1  0.75829625  0.49817406  0.24955239  1
  V  V83  1  0.49507493  -0.00355218  0.49499695  1
  V  V84  1  0.49868379  0.12636274  0.62310609  1
  Zn  Zn85  1  0.87675401  -0.00193329  0.87108677  1
  Zn  Zn86  1  0.00389115  0.74546647  0.75364524  1
  Zn  Zn87  1  0.61862464  0.86178180  0.23225484  1
  Zn  Zn88  1  0.36018273  0.61370116  0.24544632  1
  Zn  Zn89  1  0.49967199  0.25255882  0.74796056  1
  Zn  Zn90  1  0.63359906  -0.00984135  0.11875964  1
  Zn  Zn91  1  0.11830591  0.87436112  0.24707830  1
  Zn  Zn92  1  0.23675477  0.50871502  0.75069948  1
  Zn  Zn93  1  0.36946410  0.24663913  0.12951201  1
  Zn  Zn94  1  0.37960861  0.75603960  0.57922476  1
  Zn  Zn95  1  0.17627569  0.53286761  0.19064406  1
  Zn  Zn96  1  0.74195497  0.74961037  0.00290620  1
  Zn  Zn97  1  0.00043040  0.86970930  0.87504346  1
  Zn  Zn98  1  0.24402504  0.62149670  0.36761144  1
  Zn  Zn99  1  0.49891888  0.49829463  0.50814550  1
  Zn  Zn100  1  0.87109465  0.49644801  0.87217522  1
  Zn  Zn101  1  0.00927576  0.48971733  0.50282126  1
  Zn  Zn102  1  0.50083341  0.74015848  0.73072462  1
  Zn  Zn103  1  0.49540901  0.12138984  0.12884659  1
  Zn  Zn104  1  0.12725074  0.74549941  0.87304682  1
  Zn  Zn105  1  0.49147418  0.86610623  0.36966575  1
  Zn  Zn106  1  0.24577655  0.13207696  0.86938424  1
  Zn  Zn107  1  0.18522081  0.19366214  0.18641206  1
  Zn  Zn108  1  0.18280922  0.19226750  0.68919148  1
  Zn  Zn109  1  0.18616149  0.69910139  0.19188222  1
  Zn  Zn110  1  0.19556834  0.69103791  0.68297114  1
  Zn  Zn111  1  0.68516956  0.18318771  0.18651275  1
  Zn  Zn112  1  0.68462851  0.18675165  0.69000289  1
  Zn  Zn113  1  0.69396036  0.68258125  0.18709137  1
  Zn  Zn114  1  0.68917686  0.68640115  0.69202761  1
  Zn  Zn115  1  0.31045783  0.31101459  0.31380911  1
  Zn  Zn116  1  0.31230357  0.31528345  0.81115764  1
  Zn  Zn117  1  0.32803456  0.79484155  0.37148169  1
  Zn  Zn118  1  0.30906941  0.81087235  0.80736517  1
  Zn  Zn119  1  0.81729334  0.31396253  0.31394204  1
  Zn  Zn120  1  0.81665998  0.30935456  0.81531570  1
  Zn  Zn121  1  0.81206125  0.81130548  0.31450685  1
  Zn  Zn122  1  0.81262582  0.80884189  0.81446550  1
  Zn  Zn123  1  0.18787433  0.43907264  0.44457894  1
  Zn  Zn124  1  0.18642287  0.43878774  0.94020892  1
  Zn  Zn125  1  0.18008640  0.94401864  0.43243763  1
  Zn  Zn126  1  0.18711911  0.93708146  0.93630275  1
  Zn  Zn127  1  0.69302058  0.43699376  0.44413555  1
  Zn  Zn128  1  0.68541582  0.43934999  0.93606762  1
  Zn  Zn129  1  0.69550247  0.93813074  0.43576470  1
  Zn  Zn130  1  0.68458886  0.93626360  0.93471029  1
  Zn  Zn131  1  0.31451883  0.06872162  0.06197160  1
  Zn  Zn132  1  0.30871117  0.06256233  0.55919136  1
  Zn  Zn133  1  0.31582853  0.56260396  0.06220914  1
  Zn  Zn134  1  0.31228770  0.55776468  0.55518372  1
  Zn  Zn135  1  0.81388527  0.06194027  0.06353519  1
  Zn  Zn136  1  0.81039236  0.06437560  0.55866142  1
  Zn  Zn137  1  0.81612455  0.56615434  0.06021336  1
  Zn  Zn138  1  0.80967819  0.55704941  0.56717686  1
  Zn  Zn139  1  0.44022521  0.43018039  0.18515381  1
  Zn  Zn140  1  0.43964851  0.44308094  0.68795040  1
  Zn  Zn141  1  0.43872742  0.93753132  0.19373162  1
  Zn  Zn142  1  0.43709629  0.93238738  0.68109695  1
  Zn  Zn143  1  0.98748061  0.45925391  0.21003206  1
  Zn  Zn144  1  0.93840536  0.43486297  0.69146785  1
  Zn  Zn145  1  0.93249720  0.93876664  0.18444690  1
  Zn  Zn146  1  0.94097548  0.93938921  0.68645166  1
  Zn  Zn147  1  0.05888221  0.06313882  0.31367237  1
  Zn  Zn148  1  0.06169481  0.06011738  0.80983491  1
  Zn  Zn149  1  0.05874784  0.56674402  0.32170746  1
  Zn  Zn150  1  0.05999091  0.55903197  0.81551983  1
  Zn  Zn151  1  0.56654025  0.06064435  0.31335092  1
  Zn  Zn152  1  0.56430176  0.06108169  0.81233011  1
  Zn  Zn153  1  0.56615251  0.55913348  0.31469142  1
  Zn  Zn154  1  0.55687644  0.56330257  0.80648902  1
  Zn  Zn155  1  0.43854951  0.18631347  0.43498120  1
  Zn  Zn156  1  0.43456107  0.18847132  0.93742458  1
  Zn  Zn157  1  0.44337119  0.67519578  0.42724786  1
  Zn  Zn158  1  0.43817139  0.69031507  0.94287254  1
  Zn  Zn159  1  0.93811908  0.19012252  0.44078317  1
  Zn  Zn160  1  0.93847840  0.18755554  0.93661268  1
  Zn  Zn161  1  0.94287625  0.68698533  0.44117837  1
  Zn  Zn162  1  0.93730127  0.68980958  0.93583054  1
  Zn  Zn163  1  0.06298704  0.31096275  0.06498033  1
  Zn  Zn164  1  0.06201999  0.30772681  0.56490927  1
  Zn  Zn165  1  0.06108771  0.81111508  0.06083235  1
  Zn  Zn166  1  0.06497606  0.80884079  0.56121241  1
  Zn  Zn167  1  0.56118672  0.31697117  0.06219330  1
  Zn  Zn168  1  0.56244159  0.31364369  0.56631658  1
  Zn  Zn169  1  0.55913006  0.81128517  0.06300674  1
  Zn  Zn170  1  0.56112395  0.81302539  0.55608814  1
  O  O171  1  0.11867251  0.12060489  0.11597864  1
  O  O172  1  0.12191786  0.12041848  0.61800995  1
  O  O173  1  0.11744343  0.62677210  0.11984522  1
  O  O174  1  0.11951717  0.63325313  0.61398838  1
  O  O175  1  0.62062878  0.12027602  0.11082374  1
  O  O176  1  0.61971190  0.12047840  0.61583191  1
  O  O177  1  0.61934730  0.61383410  0.12897341  1
  O  O178  1  0.62848380  0.61563247  0.62105385  1
  O  O179  1  0.38127616  0.37702940  0.38124882  1
  O  O180  1  0.38212151  0.38474995  0.87876179  1
  O  O181  1  0.37470021  0.89766342  0.36730470  1
  O  O182  1  0.37988429  0.87969695  0.87599784  1
  O  O183  1  0.87087080  0.38316940  0.38636124  1
  O  O184  1  0.88424165  0.37299727  0.88636676  1
  O  O185  1  0.88015717  0.87864071  0.38336179  1
  O  O186  1  0.87865966  0.87628801  0.88308794  1
  O  O187  1  0.25151459  0.00944253  0.36568850  1
  O  O188  1  0.25435120  -0.00012815  0.86063066  1
  O  O189  1  0.26235142  0.49463301  0.37454301  1
  O  O190  1  0.26422378  0.49429440  0.87305782  1
  O  O191  1  0.76477596  -0.00234634  0.36350850  1
  O  O192  1  0.74852833  0.00701683  0.86592221  1
  O  O193  1  0.75975551  0.50431328  0.37133843  1
  O  O194  1  0.75023029  0.51305626  0.87674116  1
  O  O195  1  0.25418625  0.48440760  0.12110112  1
  O  O196  1  0.25644152  0.48703699  0.62926695  1
  O  O197  1  0.24527042  0.99853462  0.12765951  1
  O  O198  1  0.24155539  0.99617750  0.63198320  1
  O  O199  1  0.74532150  0.49773593  0.12680866  1
  O  O200  1  0.73165182  0.49600140  0.62536953  1
  O  O201  1  0.75348067  1.00365024  0.14157779  1
  O  O202  1  0.74459384  0.99739680  0.63024455  1
  O  O203  1  -0.01934765  0.35420912  0.24936932  1
  O  O204  1  0.00309539  0.36492383  0.75770918  1
  O  O205  1  -0.00304060  0.88045188  0.26114258  1
  O  O206  1  0.01427831  0.87446544  0.74762357  1
  O  O207  1  0.51084504  0.36682010  0.25733968  1
  O  O208  1  0.50267112  0.37615075  0.76259476  1
  O  O209  1  0.51278501  0.89164980  0.26171781  1
  O  O210  1  0.50321023  0.87896462  0.76024903  1
  O  O211  1  0.51006147  0.14059411  0.24919038  1
  O  O212  1  0.49489164  0.12440628  0.74166985  1
  O  O213  1  0.49805071  0.61629817  0.23949061  1
  O  O214  1  0.47891326  0.62502633  0.75013054  1
  O  O215  1  0.98979626  0.13027330  0.24392543  1
  O  O216  1  1.00418082  0.13538730  0.74360559  1
  O  O217  1  0.98820095  0.62641945  0.24235296  1
  O  O218  1  0.99518346  0.62531775  0.74306791  1
  O  O219  1  0.36946994  0.26409948  -0.00344720  1
  O  O220  1  0.37966431  0.26034791  0.50611740  1
  O  O221  1  0.36834120  0.75658644  0.01015568  1
  O  O222  1  0.37498243  0.75294422  0.46627931  1
  O  O223  1  0.86996862  0.25510647  0.00520934  1
  O  O224  1  0.86346922  0.25929759  0.49902241  1
  O  O225  1  0.87274972  0.75858373  0.00640781  1
  O  O226  1  0.87121427  0.75541317  0.50867532  1
  O  O227  1  0.12026193  0.24290003  0.48641566  1
  O  O228  1  0.13101234  0.24067770  1.00255830  1
  O  O229  1  0.11929022  0.73756876  0.48919827  1
  O  O230  1  0.13446929  0.74162233  1.00225001  1
  O  O231  1  0.63580073  0.24743552  0.49721188  1
  O  O232  1  0.62827652  0.24453182  0.99541100  1
  O  O233  1  0.63327716  0.74142270  0.49462243  1
  O  O234  1  0.62138876  0.75068119  0.98315571  1
  O  O235  1  0.50561955  0.25416567  0.14172019  1
  O  O236  1  0.48927920  0.24405746  0.62681200  1
  O  O237  1  0.48908212  0.73985637  0.12249958  1
  O  O238  1  0.48437524  0.77139114  0.62319024  1
  O  O239  1  0.99479067  0.24347448  0.13175478  1
  O  O240  1  1.00334724  0.23603895  0.63759577  1
  O  O241  1  0.98922064  0.73771739  0.11793874  1
  O  O242  1  0.98945825  0.74328923  0.62667005  1
  O  O243  1  0.01259153  0.24401254  0.36911225  1
  O  O244  1  -0.00202645  0.25400752  0.86405921  1
  O  O245  1  0.00646185  0.76153517  0.37943241  1
  O  O246  1  0.00742837  0.75176863  0.87175976  1
  O  O247  1  0.50929793  0.25769225  0.36737021  1
  O  O248  1  0.50567353  0.26005214  0.87469427  1
  O  O249  1  0.52146722  0.74760246  0.37386973  1
  O  O250  1  0.50307196  0.75689417  0.87223930  1
  O  O251  1  0.23512794  0.12291379  0.49232216  1
  O  O252  1  0.24003984  0.13376969  0.99664678  1
  O  O253  1  0.23665704  0.62175593  0.49449416  1
  O  O254  1  0.24275988  0.63482403  1.00957592  1
  O  O255  1  0.74361733  0.14036763  0.50295761  1
  O  O256  1  0.74204024  0.12773671  0.99433404  1
  O  O257  1  0.74411313  0.62866447  0.49762951  1
  O  O258  1  0.75338621  0.62805497  0.98296575  1
  O  O259  1  0.25613845  0.37036136  0.00479372  1
  O  O260  1  0.25956561  0.37540353  0.50941314  1
  O  O261  1  0.25455251  0.87298950  0.01075641  1
  O  O262  1  0.24258700  0.88357841  0.50838376  1
  O  O263  1  0.75651990  0.36985092  0.00071437  1
  O  O264  1  0.75781289  0.36011940  0.50086602  1
  O  O265  1  0.76118946  0.87434050  -0.00586733  1
  O  O266  1  0.76073703  0.86845992  0.50734403  1
  O  O267  1  0.09136378  0.49178834  0.24742623  1
  O  O268  1  0.12253609  0.48125700  0.75830854  1
  O  O269  1  0.13147393  1.00029859  0.24183905  1
  O  O270  1  0.13254422  0.99544192  0.74057210  1
  O  O271  1  0.63544889  0.49365750  0.24354445  1
  O  O272  1  0.62298230  0.48955053  0.74392331  1
  O  O273  1  0.64404966  1.00665996  0.25045120  1
  O  O274  1  0.63288224  0.99287689  0.74344034  1
  O  O275  1  0.36020516  0.00606514  0.25294553  1
  O  O276  1  0.36763867  0.00594356  0.74984944  1
  O  O277  1  0.37996737  0.49011947  0.26350199  1
  O  O278  1  0.37394565  0.51195393  0.75948345  1
  O  O279  1  0.86708853  0.00616365  0.25533675  1
  O  O280  1  0.86087718  -0.00526570  0.74985934  1
  O  O281  1  0.87737512  0.50502673  0.26100839  1
  O  O282  1  0.87881047  0.51192909  0.75307575  1
  O  O283  1  0.12575951  0.36319291  0.38268478  1
  O  O284  1  0.11314838  0.37390146  0.87453603  1
  O  O285  1  0.11422972  0.86800101  0.37547705  1
  O  O286  1  0.12421426  0.87504372  0.86305761  1
  O  O287  1  0.62108189  0.36969684  0.37298886  1
  O  O288  1  0.61746907  0.37351395  0.86660618  1
  O  O289  1  0.63530113  0.85607043  0.37812852  1
  O  O290  1  0.61609867  0.86728775  0.86821430  1
  O  O291  1  0.38360814  0.13562923  0.11604981  1
  O  O292  1  0.37723010  0.13192351  0.62755757  1
  O  O293  1  0.38187152  0.63250587  0.12999226  1
  O  O294  1  0.37224332  0.63083653  0.62459457  1
  O  O295  1  0.88036728  0.13163517  0.13162612  1
  O  O296  1  0.88982804  0.12051967  0.62095543  1
  O  O297  1  0.88089581  0.63190281  0.13311721  1
  O  O298  1  0.88066041  0.62892176  0.63118413  1
  O  O299  1  0.24988067  0.25991626  0.11303620  1
  O  O300  1  0.26252685  0.25722351  0.62929629  1
  O  O301  1  0.25694978  0.76112352  0.12059242  1
  O  O302  1  0.25637561  0.76663810  0.61750928  1
  O  O303  1  0.75303782  0.25478105  0.11897472  1
  O  O304  1  0.74863250  0.24955230  0.61762923  1
  O  O305  1  0.76362346  0.74125469  0.11860858  1
  O  O306  1  0.76168558  0.75276117  0.62241364  1
  O  O307  1  0.23451783  0.24428700  0.36844327  1
  O  O308  1  0.25354712  0.25126167  0.88782977  1
  O  O309  1  0.22795831  0.74491943  0.36774748  1
  O  O310  1  0.24978812  0.75794551  0.89248710  1
  O  O311  1  0.74028413  0.25362966  0.37911740  1
  O  O312  1  0.74415260  0.24229698  0.88065550  1
  O  O313  1  0.74765583  0.74114021  0.38384015  1
  O  O314  1  0.73913319  0.74084648  0.87594648  1
  O  O315  1  0.00446738  0.11887657  0.00558728  1
  O  O316  1  0.00818558  0.13128128  0.51501856  1
  O  O317  1  0.00633589  0.61876527  0.00490993  1
  O  O318  1  0.00686736  0.62216589  0.51216481  1
  O  O319  1  0.50769180  0.11657008  -0.00605881  1
  O  O320  1  0.50948067  0.12111399  0.50568754  1
  O  O321  1  0.49448521  0.61295696  0.01120665  1
  O  O322  1  0.51666705  0.61797813  0.49439633  1
  O  O323  1  0.49462533  0.37273742  0.49214355  1
  O  O324  1  0.49320383  0.38326896  0.99116573  1
  O  O325  1  0.51143722  0.89413990  0.48551129  1
  O  O326  1  0.49207632  0.88024173  0.98750256  1
  O  O327  1  0.98369084  0.37231697  0.50832697  1
  O  O328  1  0.99487424  0.37915518  0.99718862  1
  O  O329  1  0.98889602  0.87306326  0.49621332  1
  O  O330  1  0.99322978  0.88405106  0.99919347  1
  O  O331  1  0.49731670  0.48509590  0.37625959  1
  O  O332  1  0.49245195  0.49633610  0.88163751  1
  O  O333  1  0.48691438  1.01629726  0.38143195  1
  O  O334  1  0.49566440  0.99254162  0.88223209  1
  O  O335  1  0.98328740  0.50586304  0.38676451  1
  O  O336  1  0.99502036  0.49015497  0.88748374  1
  O  O337  1  0.98603557  0.99092018  0.37295738  1
  O  O338  1  0.99741811  1.00017157  0.88626854  1
  O  O339  1  0.00296953  0.00559638  0.11537096  1
  O  O340  1  0.00970297  0.01621268  0.63432714  1
  O  O341  1  -0.01123109  0.51522677  0.10985642  1
  O  O342  1  -0.00187588  0.50933965  0.62428184  1
  O  O343  1  0.49779808  -0.00072789  0.10844221  1
  O  O344  1  0.50519195  0.00446890  0.61474977  1
  O  O345  1  0.50732017  0.50324437  0.11862107  1
  O  O346  1  0.51977504  0.49074560  0.62239817  1
  O  O347  1  0.25320573  0.36755127  0.23248707  1
  O  O348  1  0.24185275  0.37515635  0.74273536  1
  O  O349  1  0.24402712  0.88752193  0.23524120  1
  O  O350  1  0.24151690  0.88229515  0.74043270  1
  O  O351  1  0.74887280  0.37963763  0.24269572  1
  O  O352  1  0.73900489  0.37436358  0.76006209  1
  O  O353  1  0.74913948  0.88676381  0.25185270  1
  O  O354  1  0.74471462  0.87997556  0.74429413  1
  O  O355  1  0.24144628  0.12087275  0.25782953  1
  O  O356  1  0.25393685  0.11805968  0.74888544  1
  O  O357  1  0.24142303  0.61535714  0.24729683  1
  O  O358  1  0.26455045  0.62192606  0.74498819  1
  O  O359  1  0.76224808  0.12077658  0.24853093  1
  O  O360  1  0.74158466  0.11570279  0.75965734  1
  O  O361  1  0.76291225  0.61533020  0.25584350  1
  O  O362  1  0.75932964  0.62874218  0.76304696  1
  O  O363  1  0.35683409  0.12300656  0.38019356  1
  O  O364  1  0.37253076  0.11811132  0.86640963  1
  O  O365  1  0.37293040  0.60428321  0.36661154  1
  O  O366  1  0.37507976  0.61188927  0.88276228  1
  O  O367  1  0.88174254  0.11725574  0.36866040  1
  O  O368  1  0.86057695  0.12144734  0.88084645  1
  O  O369  1  0.87144010  0.62219593  0.37068979  1
  O  O370  1  0.86447555  0.62443335  0.86855030  1
  O  O371  1  0.13775816  0.37485419  0.12269789  1
  O  O372  1  0.13484323  0.36891921  0.63109132  1
  O  O373  1  0.13076182  0.88275865  0.12356721  1
  O  O374  1  0.13109820  0.88297488  0.62738571  1
  O  O375  1  0.63162753  0.38584725  0.12822522  1
  O  O376  1  0.62554986  0.37732945  0.64186276  1
  O  O377  1  0.62708170  0.87669111  0.12015621  1
  O  O378  1  0.63320636  0.88144174  0.62660326  1
  O  O379  1  0.11399041  0.24686743  0.26347451  1
  O  O380  1  0.11399582  0.26219190  0.75114583  1
  O  O381  1  0.11541569  0.75509558  0.26430290  1
  O  O382  1  0.12892307  0.75873617  0.74997500  1
  O  O383  1  0.62308444  0.25516006  0.25808173  1
  O  O384  1  0.62244436  0.26198073  0.75605845  1
  O  O385  1  0.63820310  0.74709530  0.26456529  1
  O  O386  1  0.61893468  0.75592216  0.75633435  1
  O  O387  1  0.39361778  0.25564572  0.25260856  1
  O  O388  1  0.37686457  0.24243598  0.74345724  1
  O  O389  1  0.36717517  0.74754542  0.24733652  1
  O  O390  1  0.37366255  0.73362350  0.75236539  1
  O  O391  1  0.87661566  0.24062138  0.24714982  1
  O  O392  1  0.89028276  0.25102499  0.75019690  1
  O  O393  1  0.86926882  0.74183805  0.24247801  1
  O  O394  1  0.87696629  0.74000876  0.74278197  1
  O  O395  1  0.37967658  0.48810933  0.48826461  1
  O  O396  1  0.38085595  0.49162307  0.99097458  1
  O  O397  1  0.38465781  1.00904560  0.49056419  1
  O  O398  1  0.37904751  0.99387078  0.99125230  1
  O  O399  1  0.87020659  0.48470984  0.49741401  1
  O  O400  1  0.88010573  0.49056585  0.99684127  1
  O  O401  1  0.86844686  0.99037067  0.49222727  1
  O  O402  1  0.88183291  0.99212143  0.99996534  1
  O  O403  1  0.11790100  0.00569383  0.00553197  1
  O  O404  1  0.12286668  0.00900703  0.51115256  1
  O  O405  1  0.11605024  0.50696728  0.00054841  1
  O  O406  1  0.12178511  0.51855795  0.49392898  1
  O  O407  1  0.61646790  0.00761227  -0.00362558  1
  O  O408  1  0.62486072  0.00988447  0.50061199  1
  O  O409  1  0.61454999  0.49482228  0.00886645  1
  O  O410  1  0.62687610  0.50616154  0.51003258  1
  O  O411  1  0.37121537  0.36951929  0.11414489  1
  O  O412  1  0.37145357  0.36937673  0.61979180  1
  O  O413  1  0.36914550  0.86965795  0.12404383  1
  O  O414  1  0.35666874  0.88322331  0.61826985  1
  O  O415  1  0.86833596  0.36789752  0.11167769  1
  O  O416  1  0.87064682  0.37772493  0.61700967  1
  O  O417  1  0.87955091  0.86449662  0.11524281  1
  O  O418  1  0.87354712  0.86797246  0.62072908  1
  O  O419  1  0.13040231  0.12590316  0.38324682  1
  O  O420  1  0.12571287  0.11917977  0.88698190  1
  O  O421  1  0.12007605  0.63679848  0.38490481  1
  O  O422  1  0.12420498  0.62397751  0.89022350  1
  O  O423  1  0.62199162  0.13522841  0.38811340  1
  O  O424  1  0.63155446  0.12966373  0.88355359  1
  O  O425  1  0.63468659  0.62935181  0.38203525  1
  O  O426  1  0.63476612  0.62932290  0.86567643  1
