# generated using pymatgen
data_V85Zn86O256
_symmetry_space_group_name_H-M   'P 1'
_cell_length_a   16.94507450
_cell_length_b   16.94336436
_cell_length_c   16.94273357
_cell_angle_alpha   90.01212334
_cell_angle_beta   89.92927289
_cell_angle_gamma   89.97386787
_symmetry_Int_Tables_number   1
_chemical_formula_structural   V85Zn86O256
_chemical_formula_sum   'V85 Zn86 O256'
_cell_volume   4864.36582314
_cell_formula_units_Z   1
loop_
 _symmetry_equiv_pos_site_id
 _symmetry_equiv_pos_as_xyz
  1  'x, y, z'
loop_
 _atom_site_type_symbol
 _atom_site_label
 _atom_site_symmetry_multiplicity
 _atom_site_fract_x
 _atom_site_fract_y
 _atom_site_fract_z
 _atom_site_occupancy
  V  V0  1  0.25384608  0.61612099  0.87693864  1
  V  V1  1  0.11593566  0.24533020  0.37278296  1
  V  V2  1  0.00457681  0.74967254  0.25069686  1
  V  V3  1  0.38066894  0.12404901  0.24428251  1
  V  V4  1  0.63265638  0.62239606  0.50036038  1
  V  V5  1  0.12228569  -0.00096256  0.12534616  1
  V  V6  1  0.87340985  0.75872950  0.62415422  1
  V  V7  1  0.37540918  0.51281609  0.36902382  1
  V  V8  1  0.74696738  0.75547782  -0.00274709  1
  V  V9  1  0.62217855  0.12682801  0.00967474  1
  V  V10  1  -0.00183083  0.00499700  0.49301964  1
  V  V11  1  0.49269283  0.00035687  0.01009672  1
  V  V12  1  0.25256727  0.50897888  0.25149565  1
  V  V13  1  0.49122384  0.87878122  0.87825494  1
  V  V14  1  0.87067445  0.87897785  0.48816056  1
  V  V15  1  0.50545712  0.49812602  0.49955584  1
  V  V16  1  0.11985812  0.38384137  0.75119969  1
  V  V17  1  0.51149665  0.25252763  0.75328139  1
  V  V18  1  0.63897279  0.37825443  0.24608460  1
  V  V19  1  0.25634645  0.75305924  -0.00180616  1
  V  V20  1  -0.00178718  0.87538186  0.87575757  1
  V  V21  1  0.75231788  -0.00455191  0.25366646  1
  V  V22  1  0.62456541  0.87765555  0.73644165  1
  V  V23  1  0.50611239  0.37744813  0.87053561  1
  V  V24  1  0.37481782  0.24872153  0.62538887  1
  V  V25  1  0.24801558  0.87569640  0.62441497  1
  V  V26  1  0.12428594  0.75137966  0.87673027  1
  V  V27  1  0.75277206  0.48666225  0.75446666  1
  V  V28  1  0.73610593  0.88172087  0.13127931  1
  V  V29  1  0.75146986  0.25361540  0.50814494  1
  V  V30  1  0.37598004  0.74989761  0.62560047  1
  V  V31  1  0.25385149  0.24429086  -0.00629350  1
  V  V32  1  0.62360111  0.24733701  0.37553598  1
  V  V33  1  0.62295179  0.75273301  0.87421845  1
  V  V34  1  0.37230920  0.12656224  0.75998227  1
  V  V35  1  0.37538285  -0.00058448  0.37596945  1
  V  V36  1  0.74849881  0.75251300  0.50624953  1
  V  V37  1  0.49663247  0.50318797  -0.00139274  1
  V  V38  1  -0.00414169  0.62543347  0.61811726  1
  V  V39  1  0.25373952  0.37250657  0.12633418  1
  V  V40  1  0.12441958  0.25374687  0.87279651  1
  V  V41  1  0.50337846  -0.00172575  0.50282054  1
  V  V42  1  -0.00605381  0.25240390  0.75159503  1
  V  V43  1  0.24064354  0.24489645  0.50019017  1
  V  V44  1  0.85570477  0.50540301  0.37613566  1
  V  V45  1  0.25640410  0.87519025  0.12131408  1
  V  V46  1  0.37305611  0.73973806  0.12982490  1
  V  V47  1  0.24638632  0.12391687  0.37836891  1
  V  V48  1  0.25146854  0.00061470  0.25062444  1
  V  V49  1  0.62715601  0.11937894  0.50548674  1
  V  V50  1  0.63134456  0.48682133  0.63307708  1
  V  V51  1  0.12211658  0.87679056  0.74827074  1
  V  V52  1  0.37347312  0.37888838  -0.00988062  1
  V  V53  1  0.49992989  0.75121704  0.75144693  1
  V  V54  1  -0.00267959  0.62867747  0.11978731  1
  V  V55  1  0.37748561  0.61838902  0.75518493  1
  V  V56  1  0.86848896  -0.00069129  0.87667105  1
  V  V57  1  0.49988856  0.12011917  0.62757317  1
  V  V58  1  0.63949649  0.49977207  0.12595764  1
  V  V59  1  0.13008782  0.73650723  0.38231493  1
  V  V60  1  0.12696069  0.87630137  0.25429009  1
  V  V61  1  0.74564990  -0.00481876  0.73417114  1
  V  V62  1  -0.00147239  0.13710388  0.12900410  1
  V  V63  1  0.37335599  0.87347117  0.49789825  1
  V  V64  1  -0.05369031  0.44696041  0.04445161  1
  V  V65  1  0.12305479  0.61924261  -0.00075251  1
  V  V66  1  0.62857931  0.75000380  0.36937566  1
  V  V67  1  0.49787388  0.37509827  0.36921540  1
  V  V68  1  -0.00245404  0.50080141  0.49740295  1
  V  V69  1  0.86169713  0.74797210  0.13975422  1
  V  V70  1  0.75501024  0.11632098  0.37640656  1
  V  V71  1  0.12238832  0.00943912  0.62049729  1
  V  V72  1  0.24833710  0.00485787  0.75654480  1
  V  V73  1  0.87207756  0.87608436  0.00549667  1
  V  V74  1  0.87811674  0.13609025  0.25082253  1
  V  V75  1  -0.00375073  0.00014357  0.00250936  1
  V  V76  1  0.49456882  0.74812083  0.25337754  1
  V  V77  1  0.24451080  0.37264474  0.62470492  1
  V  V78  1  0.50096470  0.24759086  0.24206303  1
  V  V79  1  0.37607454  0.37077179  0.49696300  1
  V  V80  1  0.17440891  0.55879584  0.56454151  1
  V  V81  1  0.73996258  0.12315081  0.87552280  1
  V  V82  1  0.12131887  0.36865469  0.24964522  1
  V  V83  1  0.89511460  0.49920425  0.86881810  1
  V  V84  1  0.12797154  0.12182149  -0.00772822  1
  Zn  Zn85  1  0.87241119  0.62830058  0.74881163  1
  Zn  Zn86  1  0.62133370  0.62928206  0.00205948  1
  Zn  Zn87  1  -0.00403461  0.87564634  0.37230350  1
  Zn  Zn88  1  0.50550433  0.62256024  0.62881478  1
  Zn  Zn89  1  0.49802264  0.62028652  0.13110772  1
  Zn  Zn90  1  0.87015320  0.25680315  0.63467106  1
  Zn  Zn91  1  0.80053381  0.32017960  0.04976734  1
  Zn  Zn92  1  0.37903254  0.24537396  0.11988404  1
  Zn  Zn93  1  0.66299215  0.28136221  0.91215569  1
  Zn  Zn94  1  0.36972032  0.00009342  0.88083333  1
  Zn  Zn95  1  0.87328553  0.37753385  0.50477351  1
  Zn  Zn96  1  -0.00216944  0.75022952  0.74800211  1
  Zn  Zn97  1  -0.00414287  0.37332540  0.37542616  1
  Zn  Zn98  1  0.87570178  0.12259823  0.75042234  1
  Zn  Zn99  1  0.50532400  0.87721052  0.36830963  1
  Zn  Zn100  1  0.75344531  0.62788200  0.87075298  1
  Zn  Zn101  1  -0.00288560  0.12898394  0.62381328  1
  Zn  Zn102  1  0.86898974  0.61473113  0.25117414  1
  Zn  Zn103  1  0.61524163  0.00259498  0.13639821  1
  Zn  Zn104  1  0.25057878  0.73726983  0.49648973  1
  Zn  Zn105  1  0.25351710  0.49730658  0.75390696  1
  Zn  Zn106  1  0.12277485  0.49726181  0.12533134  1
  Zn  Zn107  1  0.18863238  0.18620997  0.18539026  1
  Zn  Zn108  1  0.18544102  0.18829618  0.69036731  1
  Zn  Zn109  1  0.18524367  0.68673371  0.18587836  1
  Zn  Zn110  1  0.19194141  0.69327088  0.69326037  1
  Zn  Zn111  1  0.68927453  0.19051034  0.18858431  1
  Zn  Zn112  1  0.68762634  0.18100033  0.68931749  1
  Zn  Zn113  1  0.68552686  0.68606282  0.18673227  1
  Zn  Zn114  1  0.68969936  0.68170499  0.68715640  1
  Zn  Zn115  1  0.31129828  0.31122598  0.31098675  1
  Zn  Zn116  1  0.31314907  0.31115745  0.81222010  1
  Zn  Zn117  1  0.31111801  0.80853080  0.31370631  1
  Zn  Zn118  1  0.31081094  0.81173252  0.81145612  1
  Zn  Zn119  1  0.81300973  0.30947749  0.32443596  1
  Zn  Zn120  1  0.81426452  0.32128350  0.85440591  1
  Zn  Zn121  1  0.80298404  0.79388905  0.30687552  1
  Zn  Zn122  1  0.81107523  0.81667287  0.80893106  1
  Zn  Zn123  1  0.19123361  0.43062879  0.42908616  1
  Zn  Zn124  1  0.18356242  0.43539048  0.93827351  1
  Zn  Zn125  1  0.18474429  0.93552502  0.43856318  1
  Zn  Zn126  1  0.18701074  0.93681817  0.93741427  1
  Zn  Zn127  1  0.68295705  0.43429761  0.43719009  1
  Zn  Zn128  1  0.69037278  0.45064875  0.93747904  1
  Zn  Zn129  1  0.68758861  0.93322988  0.43981210  1
  Zn  Zn130  1  0.67970628  0.94076784  0.93837147  1
  Zn  Zn131  1  0.31241528  0.06235015  0.06347661  1
  Zn  Zn132  1  0.31248334  0.06205298  0.56593315  1
  Zn  Zn133  1  0.31058795  0.55964499  0.06268031  1
  Zn  Zn134  1  0.33658590  0.55954074  0.56265149  1
  Zn  Zn135  1  0.81238907  0.16305741  0.06151998  1
  Zn  Zn136  1  0.82047230  0.06750687  0.56550263  1
  Zn  Zn137  1  0.80875378  0.57278414  0.05588918  1
  Zn  Zn138  1  0.81126409  0.56179298  0.56626420  1
  Zn  Zn139  1  0.43792084  0.43696169  0.18336421  1
  Zn  Zn140  1  0.43940268  0.43619300  0.68580256  1
  Zn  Zn141  1  0.43628545  0.92849536  0.18995393  1
  Zn  Zn142  1  0.43620547  0.93820189  0.68957146  1
  Zn  Zn143  1  0.92519013  0.42435335  0.20835115  1
  Zn  Zn144  1  0.93582841  0.43546364  0.68244954  1
  Zn  Zn145  1  0.93174827  0.94024892  0.18961252  1
  Zn  Zn146  1  0.93561926  0.93726328  0.68432190  1
  Zn  Zn147  1  0.06130495  0.06322847  0.31305683  1
  Zn  Zn148  1  0.05993960  0.06408485  0.81268377  1
  Zn  Zn149  1  0.06079523  0.55999692  0.30993612  1
  Zn  Zn150  1  0.06686535  0.56970643  0.80212478  1
  Zn  Zn151  1  0.56526358  0.06102025  0.31508127  1
  Zn  Zn152  1  0.56227789  0.05969380  0.81393271  1
  Zn  Zn153  1  0.56576446  0.56606386  0.30989576  1
  Zn  Zn154  1  0.56493977  0.56196479  0.81439758  1
  Zn  Zn155  1  0.43570674  0.18610776  0.43497963  1
  Zn  Zn156  1  0.44532632  0.18840137  0.93749479  1
  Zn  Zn157  1  0.44471364  0.68611948  0.43986558  1
  Zn  Zn158  1  0.43685775  0.68766812  0.94003959  1
  Zn  Zn159  1  0.93332404  0.18185321  0.43714010  1
  Zn  Zn160  1  0.94085957  0.18769331  0.93378335  1
  Zn  Zn161  1  0.93758960  0.68552780  0.43608966  1
  Zn  Zn162  1  0.93414802  0.68810589  0.93770469  1
  Zn  Zn163  1  0.06902302  0.30869205  0.06304580  1
  Zn  Zn164  1  0.05822542  0.31689613  0.56563515  1
  Zn  Zn165  1  0.06439179  0.81072912  0.06351041  1
  Zn  Zn166  1  0.05903281  0.81559777  0.55849459  1
  Zn  Zn167  1  0.56305639  0.31829314  0.06465989  1
  Zn  Zn168  1  0.56392620  0.30838863  0.56293322  1
  Zn  Zn169  1  0.55594468  0.81480962  0.06302216  1
  Zn  Zn170  1  0.56016872  0.81042547  0.55953168  1
  O  O171  1  0.11937732  0.11716553  0.11924702  1
  O  O172  1  0.12579641  0.11189293  0.62598849  1
  O  O173  1  0.11556726  0.62167797  0.11841416  1
  O  O174  1  0.12260651  0.62312266  0.62650257  1
  O  O175  1  0.62535246  0.12144587  0.11282810  1
  O  O176  1  0.61550771  0.12543256  0.61306572  1
  O  O177  1  0.62331576  0.61335533  0.12556105  1
  O  O178  1  0.62291338  0.61491944  0.61711537  1
  O  O179  1  0.38483015  0.37710943  0.37687869  1
  O  O180  1  0.37845896  0.37365847  0.88586345  1
  O  O181  1  0.37530412  0.88008485  0.38368193  1
  O  O182  1  0.38710535  0.87569724  0.86892669  1
  O  O183  1  0.87619215  0.38776219  0.38173154  1
  O  O184  1  0.89189390  0.39944653  0.88031224  1
  O  O185  1  0.87278121  0.86669435  0.38597293  1
  O  O186  1  0.87772782  0.88224472  0.88146964  1
  O  O187  1  0.25398837  0.00626199  0.37270717  1
  O  O188  1  0.25089923  -0.00538773  0.86121243  1
  O  O189  1  0.26034744  0.49318663  0.36050159  1
  O  O190  1  0.24957077  0.51325880  0.87793633  1
  O  O191  1  0.74374656  0.00907502  0.37183724  1
  O  O192  1  0.75414772  0.00365826  0.87071126  1
  O  O193  1  0.75693171  0.50291889  0.38282641  1
  O  O194  1  0.75997421  0.50823053  0.86679007  1
  O  O195  1  0.25003149  0.49037261  0.13509337  1
  O  O196  1  0.24388465  0.49736492  0.61723844  1
  O  O197  1  0.24420117  0.99179243  0.12882619  1
  O  O198  1  0.24234588  0.99447995  0.63196476  1
  O  O199  1  0.73898307  0.50238392  0.11685206  1
  O  O200  1  0.73933283  0.49944115  0.63466469  1
  O  O201  1  0.74553928  0.98548226  0.13313471  1
  O  O202  1  0.75311710  1.00124151  0.63610374  1
  O  O203  1  0.01561636  0.37573831  0.25385974  1
  O  O204  1  0.01312676  0.36907835  0.74427228  1
  O  O205  1  0.01409073  0.87574778  0.24975670  1
  O  O206  1  0.00651210  0.87578295  0.75611098  1
  O  O207  1  0.50422262  0.36774209  0.25558420  1
  O  O208  1  0.48982993  0.36572023  0.75932173  1
  O  O209  1  0.49946954  0.85849453  0.25254537  1
  O  O210  1  0.50462227  0.87110900  0.75645674  1
  O  O211  1  0.49176031  0.13390201  0.25987309  1
  O  O212  1  0.49390362  0.12845729  0.74349324  1
  O  O213  1  0.50190719  0.63962840  0.24811787  1
  O  O214  1  0.49337769  0.63274766  0.75243750  1
  O  O215  1  0.98711039  0.11782488  0.24499212  1
  O  O216  1  0.99881644  0.13540999  0.74891637  1
  O  O217  1  0.99815204  0.63327037  0.23875111  1
  O  O218  1  0.99953978  0.63018363  0.73209172  1
  O  O219  1  0.36945288  0.25400066  -0.00013137  1
  O  O220  1  0.36708078  0.25313155  0.50492046  1
  O  O221  1  0.36194669  0.74881761  0.00753505  1
  O  O222  1  0.37338864  0.75535751  0.50627353  1
  O  O223  1  0.86848750  0.23940853  -0.00355583  1
  O  O224  1  0.85754820  0.24684865  0.49600861  1
  O  O225  1  0.86323884  0.75663498  0.00934069  1
  O  O226  1  0.86619833  0.75515678  0.50240293  1
  O  O227  1  0.13674843  0.25409898  0.49397208  1
  O  O228  1  0.13304559  0.24224039  0.99214290  1
  O  O229  1  0.12841142  0.75409823  0.48629220  1
  O  O230  1  0.13564246  0.74108847  0.99806262  1
  O  O231  1  0.63156925  0.23955891  0.49573877  1
  O  O232  1  0.60711175  0.23269423  0.99974845  1
  O  O233  1  0.62932731  0.74111494  0.49878989  1
  O  O234  1  0.62787206  0.75476559  0.99115079  1
  O  O235  1  0.49794084  0.25489760  0.13872010  1
  O  O236  1  0.49410895  0.24018013  0.62877728  1
  O  O237  1  0.48911141  0.74943241  0.13099976  1
  O  O238  1  0.48851905  0.74944816  0.63067087  1
  O  O239  1  1.00805761  0.23635642  0.12603464  1
  O  O240  1  1.00390795  0.24709833  0.63762218  1
  O  O241  1  0.99528550  0.74356842  0.13195343  1
  O  O242  1  0.99194454  0.74463703  0.62151537  1
  O  O243  1  0.01351843  0.24704001  0.38379531  1
  O  O244  1  0.01748715  0.24473891  0.86870221  1
  O  O245  1  0.01248230  0.75237642  0.36880816  1
  O  O246  1  0.00590767  0.75797026  0.87486613  1
  O  O247  1  0.50409313  0.25670565  0.36904638  1
  O  O248  1  0.49707730  0.26090212  0.86500085  1
  O  O249  1  0.50792004  0.75177663  0.37085723  1
  O  O250  1  0.50437020  0.75807477  0.87203076  1
  O  O251  1  0.25647975  0.13252302  0.49129929  1
  O  O252  1  0.24101111  0.13231071  1.00601134  1
  O  O253  1  0.24220969  0.61545138  0.51300067  1
  O  O254  1  0.24487792  0.63215816  0.99469834  1
  O  O255  1  0.74334616  0.12545500  0.49562125  1
  O  O256  1  0.73046799  0.11696233  0.99074061  1
  O  O257  1  0.73862407  0.63163743  0.50501247  1
  O  O258  1  0.74232984  0.64162697  0.99359528  1
  O  O259  1  0.25539244  0.36887211  0.00569626  1
  O  O260  1  0.25538911  0.36632505  0.50483384  1
  O  O261  1  0.24270543  0.86589830  0.00901701  1
  O  O262  1  0.26181333  0.87697185  0.50602866  1
  O  O263  1  0.74541734  0.35436413  -0.04348886  1
  O  O264  1  0.74450210  0.35493932  0.49329076  1
  O  O265  1  0.75127822  0.87541922  0.00834764  1
  O  O266  1  0.75764752  0.86664695  0.50148011  1
  O  O267  1  0.13649876  0.49029599  0.24951310  1
  O  O268  1  0.13274320  0.48852237  0.75319710  1
  O  O269  1  0.13221137  0.99403194  0.24659549  1
  O  O270  1  0.13035496  0.99605192  0.74386602  1
  O  O271  1  0.62268858  0.49334985  0.23672720  1
  O  O272  1  0.63216961  0.50130055  0.73971205  1
  O  O273  1  0.64136590  1.00806956  0.24969352  1
  O  O274  1  0.63559116  0.99218860  0.75076500  1
  O  O275  1  0.37166775  0.00455317  0.25568865  1
  O  O276  1  0.36537239  0.00859884  0.75000312  1
  O  O277  1  0.36331275  0.49401401  0.25489875  1
  O  O278  1  0.37269446  0.51466528  0.74194562  1
  O  O279  1  0.85901363  0.00681892  0.24995149  1
  O  O280  1  0.86158346  -0.00594212  0.75660733  1
  O  O281  1  0.87010654  0.50023140  0.26808247  1
  O  O282  1  0.87249030  0.50273766  0.75743032  1
  O  O283  1  0.12604337  0.36204501  0.36600191  1
  O  O284  1  0.13210775  0.36552668  0.86468635  1
  O  O285  1  0.12664183  0.86811049  0.36329407  1
  O  O286  1  0.11884541  0.87107525  0.86945918  1
  O  O287  1  0.61312422  0.37103410  0.36803740  1
  O  O288  1  0.60873517  0.37910312  0.87670415  1
  O  O289  1  0.62076238  0.85483189  0.38647848  1
  O  O290  1  0.61354975  0.86813413  0.86734257  1
  O  O291  1  0.37072140  0.12636016  0.14030577  1
  O  O292  1  0.38170593  0.13038034  0.63213726  1
  O  O293  1  0.37282031  0.63663189  0.12234689  1
  O  O294  1  0.38091483  0.63437225  0.63393217  1
  O  O295  1  0.88547704  0.11998882  0.14079729  1
  O  O296  1  0.87711238  0.13766800  0.63424367  1
  O  O297  1  0.88356898  0.62982298  0.12396708  1
  O  O298  1  0.88184970  0.63690411  0.62292303  1
  O  O299  1  0.25126566  0.25604634  0.11280858  1
  O  O300  1  0.25304298  0.25537075  0.61829915  1
  O  O301  1  0.25351835  0.75492584  0.11964180  1
  O  O302  1  0.26052008  0.75488925  0.62086354  1
  O  O303  1  0.75514603  0.24523024  0.12024009  1
  O  O304  1  0.74538614  0.24300721  0.61089950  1
  O  O305  1  0.74229002  0.76458733  0.10971667  1
  O  O306  1  0.75650215  0.74687114  0.61426121  1
  O  O307  1  0.24524487  0.24194109  0.38237606  1
  O  O308  1  0.24308479  0.25145671  0.88625177  1
  O  O309  1  0.23679024  0.74934974  0.37774754  1
  O  O310  1  0.24449884  0.74572354  0.88267735  1
  O  O311  1  0.74192701  0.23488881  0.38384971  1
  O  O312  1  0.74832233  0.22624812  0.85570715  1
  O  O313  1  0.73524057  0.74835576  0.38881542  1
  O  O314  1  0.74167283  0.75832662  0.88341117  1
  O  O315  1  0.00886413  0.11774441  0.00824550  1
  O  O316  1  -0.00457448  0.10939004  0.50248321  1
  O  O317  1  0.00952446  0.63566571  0.01078498  1
  O  O318  1  0.00192823  0.62095300  0.50919967  1
  O  O319  1  0.50780293  0.11047210  -0.00372009  1
  O  O320  1  0.50431048  0.11809567  0.50579565  1
  O  O321  1  0.50102001  0.61733411  0.00379772  1
  O  O322  1  0.51001395  0.61475014  0.50467054  1
  O  O323  1  0.49762291  0.37712532  0.49042855  1
  O  O324  1  0.49135131  0.38073658  0.99340990  1
  O  O325  1  0.48815705  0.88218528  0.50140752  1
  O  O326  1  0.50215237  0.88966290  0.99216335  1
  O  O327  1  1.00096576  0.38612296  0.49569660  1
  O  O328  1  1.01314999  0.38793355  1.00021770  1
  O  O329  1  0.99006781  0.88419180  0.49536012  1
  O  O330  1  0.99487669  0.87925229  0.99720342  1
  O  O331  1  0.49571653  0.49239550  0.37572173  1
  O  O332  1  0.50324634  0.49526163  0.88817498  1
  O  O333  1  0.49327157  0.99777761  0.38403111  1
  O  O334  1  0.49562021  0.99266503  0.88256755  1
  O  O335  1  0.99888999  0.50078477  0.38649613  1
  O  O336  1  0.99391950  0.51375578  0.87041854  1
  O  O337  1  1.00625683  0.99612432  0.38919159  1
  O  O338  1  0.99159918  0.99467014  0.88011241  1
  O  O339  1  0.00578384  0.00257362  0.11964822  1
  O  O340  1  0.00726486  0.00143635  0.61744619  1
  O  O341  1  -0.00406715  0.50341996  0.12006567  1
  O  O342  1  -0.00307610  0.51021487  0.60981591  1
  O  O343  1  0.49670444  -0.00685888  0.11438864  1
  O  O344  1  0.49240342  0.01216710  0.61852509  1
  O  O345  1  0.50558070  0.50000115  0.11385149  1
  O  O346  1  0.51121803  0.49926989  0.61984632  1
  O  O347  1  0.24366879  0.37740258  0.24207344  1
  O  O348  1  0.24866243  0.37792732  0.74044418  1
  O  O349  1  0.24477699  0.88072264  0.24383887  1
  O  O350  1  0.24339716  0.88175680  0.74340832  1
  O  O351  1  0.73689105  0.36862865  0.26025353  1
  O  O352  1  0.75632357  0.38816517  0.76578284  1
  O  O353  1  0.75102383  0.87793099  0.23897652  1
  O  O354  1  0.73903579  0.88701195  0.75185806  1
  O  O355  1  0.25737307  0.11857659  0.25682948  1
  O  O356  1  0.25886224  0.11640365  0.74405751  1
  O  O357  1  0.24563166  0.60754176  0.24431445  1
  O  O358  1  0.25755426  0.62404423  0.75966808  1
  O  O359  1  0.75929639  0.11959238  0.25832810  1
  O  O360  1  0.74759097  0.10724706  0.75543007  1
  O  O361  1  0.78783792  0.69268953  0.23177244  1
  O  O362  1  0.75356099  0.61470892  0.75188042  1
  O  O363  1  0.36494963  0.11956670  0.36733186  1
  O  O364  1  0.37897903  0.12464804  0.86242129  1
  O  O365  1  0.37727196  0.61138377  0.38312142  1
  O  O366  1  0.36562154  0.63398362  0.86639626  1
  O  O367  1  0.86701564  0.12158069  0.36460115  1
  O  O368  1  0.86754911  0.10903891  0.87162325  1
  O  O369  1  0.87648182  0.61044873  0.37292484  1
  O  O370  1  0.87426431  0.62023780  0.87048319  1
  O  O371  1  0.13703964  0.37539677  0.13058453  1
  O  O372  1  0.13861231  0.37085301  0.63310695  1
  O  O373  1  0.13423092  0.87739684  0.13442166  1
  O  O374  1  0.12890804  0.88126825  0.63030560  1
  O  O375  1  0.62459973  0.38844169  0.13192327  1
  O  O376  1  0.62271020  0.38842872  0.62107111  1
  O  O377  1  0.63369963  0.87814343  0.12348368  1
  O  O378  1  0.61605569  0.87244224  0.63727818  1
  O  O379  1  0.13381337  0.25559163  0.26033713  1
  O  O380  1  0.12274499  0.25788203  0.75747926  1
  O  O381  1  0.12066224  0.75653667  0.25517756  1
  O  O382  1  0.12377816  0.75990222  0.75720398  1
  O  O383  1  0.61724611  0.25386715  0.25663375  1
  O  O384  1  0.61091360  0.24534994  0.74545165  1
  O  O385  1  0.62015069  0.74451711  0.26572152  1
  O  O386  1  0.61985155  0.75686934  0.75449938  1
  O  O387  1  0.38274809  0.24126912  0.25078060  1
  O  O388  1  0.37889637  0.24208182  0.74294385  1
  O  O389  1  0.37955287  0.75079547  0.24230015  1
  O  O390  1  0.37818295  0.74309020  0.74238540  1
  O  O391  1  0.87459217  0.23568807  0.25796677  1
  O  O392  1  0.89070569  0.25575656  0.76381174  1
  O  O393  1  0.90288938  0.77517662  0.24936076  1
  O  O394  1  0.87551854  0.75276073  0.73892515  1
  O  O395  1  0.38478157  0.48878433  0.48964571  1
  O  O396  1  0.38232444  0.49024229  1.00509750  1
  O  O397  1  0.38299142  0.99401447  0.49726265  1
  O  O398  1  0.38670062  1.00564839  0.99800621  1
  O  O399  1  0.87972547  0.50189040  0.49128249  1
  O  O400  1  0.88295180  0.50977983  0.98953365  1
  O  O401  1  0.88720261  0.99194991  0.50568307  1
  O  O402  1  0.88189134  0.99168048  0.99080206  1
  O  O403  1  0.11988214  0.00587679  0.00387678  1
  O  O404  1  0.11119852  -0.00848317  0.50892831  1
  O  O405  1  0.13185485  0.51535472  0.00377527  1
  O  O406  1  0.12266480  0.49984551  0.49764419  1
  O  O407  1  0.61063752  0.00807470  0.00527635  1
  O  O408  1  0.61109680  0.00332193  0.49720000  1
  O  O409  1  0.61837248  0.50325284  0.01106647  1
  O  O410  1  0.62434740  0.50436985  0.50850219  1
  O  O411  1  0.36524234  0.37001802  0.11666272  1
  O  O412  1  0.36460791  0.37053308  0.61854695  1
  O  O413  1  0.36028631  0.86515778  0.12764867  1
  O  O414  1  0.37028788  0.86833329  0.61979427  1
  O  O415  1  0.88458794  0.38985200  0.10539198  1
  O  O416  1  0.87591663  0.36792948  0.61769723  1
  O  O417  1  0.86244999  0.86936003  0.12146471  1
  O  O418  1  0.88007133  0.86299114  0.61292945  1
  O  O419  1  0.13823729  0.12969448  0.36966221  1
  O  O420  1  0.12473927  0.12805463  0.88748777  1
  O  O421  1  0.12301223  0.63855365  0.36995488  1
  O  O422  1  0.13239465  0.63233938  0.88041082  1
  O  O423  1  0.62937294  0.12801732  0.38857489  1
  O  O424  1  0.62978809  0.11841189  0.88537459  1
  O  O425  1  0.61948376  0.63647805  0.38701541  1
  O  O426  1  0.62428817  0.64316024  0.87461540  1
