# generated using pymatgen
data_V85Zn86O256
_symmetry_space_group_name_H-M   'P 1'
_cell_length_a   16.98888249
_cell_length_b   16.98283584
_cell_length_c   16.99445727
_cell_angle_alpha   89.94084278
_cell_angle_beta   89.92425861
_cell_angle_gamma   89.96951239
_symmetry_Int_Tables_number   1
_chemical_formula_structural   V85Zn86O256
_chemical_formula_sum   'V85 Zn86 O256'
_cell_volume   4903.22307080
_cell_formula_units_Z   1
loop_
 _symmetry_equiv_pos_site_id
 _symmetry_equiv_pos_as_xyz
  1  'x, y, z'
loop_
 _atom_site_type_symbol
 _atom_site_label
 _atom_site_symmetry_multiplicity
 _atom_site_fract_x
 _atom_site_fract_y
 _atom_site_fract_z
 _atom_site_occupancy
  V  V0  1  0.37587037  0.00078601  0.87829980  1
  V  V1  1  0.25227608  0.37416422  0.12529420  1
  V  V2  1  0.61872986  0.25118905  0.87150145  1
  V  V3  1  0.13201480  0.62047627  0.52319841  1
  V  V4  1  -0.00044982  0.25404684  0.24828634  1
  V  V5  1  -0.00078468  0.49880124  -0.00515658  1
  V  V6  1  0.87447421  0.12665429  0.25491829  1
  V  V7  1  0.62895779  0.48652885  0.13428506  1
  V  V8  1  0.36261042  0.37566234  0.49374073  1
  V  V9  1  0.25339438  0.87648006  0.62983136  1
  V  V10  1  0.88094232  0.63082644  0.74412166  1
  V  V11  1  0.25396883  0.74859874  -0.00039960  1
  V  V12  1  -0.00025193  0.12431075  0.62980146  1
  V  V13  1  0.50507785  0.00484256  -0.00131568  1
  V  V14  1  0.49744236  0.62630126  0.62145819  1
  V  V15  1  0.37840811  0.87065408  0.01120189  1
  V  V16  1  0.36950690  0.63451892  0.23947282  1
  V  V17  1  0.49531864  0.88430388  0.37430183  1
  V  V18  1  0.49671868  0.13370642  0.12407956  1
  V  V19  1  0.50803727  0.00860151  0.49781558  1
  V  V20  1  0.37256280  0.88973322  0.49667914  1
  V  V21  1  0.62449309  0.87647438  0.74617220  1
  V  V22  1  0.89861041  0.60464929  0.28432741  1
  V  V23  1  0.00307524  -0.00357743  0.00568646  1
  V  V24  1  0.25507081  0.75236228  0.50011008  1
  V  V25  1  0.87279159  0.74088365  0.12922150  1
  V  V26  1  0.12654912  0.00387775  0.62899315  1
  V  V27  1  0.49270255  0.75481516  0.24320227  1
  V  V28  1  0.74929712  0.87106884  0.12675717  1
  V  V29  1  0.74893913  0.37052196  0.62182930  1
  V  V30  1  0.24898542  0.62824882  0.37405586  1
  V  V31  1  0.22937347  0.87429218  0.12682689  1
  V  V32  1  0.12102949  0.37705395  0.25296555  1
  V  V33  1  0.62379572  0.87639786  0.24839251  1
  V  V34  1  0.24878181  0.50153386  0.25213916  1
  V  V35  1  0.87300784  0.12333089  0.75569776  1
  V  V36  1  -0.00075568  0.62524208  0.11811670  1
  V  V37  1  0.37520728  0.25186806  0.62411713  1
  V  V38  1  0.76715082  0.36796105  0.12656771  1
  V  V39  1  0.12780180  0.87128669  0.75714988  1
  V  V40  1  0.24701041  0.12364135  0.87758439  1
  V  V41  1  -0.00338287  -0.00315002  0.50004661  1
  V  V42  1  0.37727735  0.61899968  0.75450366  1
  V  V43  1  0.49927277  0.87587384  0.87411512  1
  V  V44  1  0.37767203  0.37701827  -0.00122322  1
  V  V45  1  0.25149038  0.00320912  0.75356204  1
  V  V46  1  -0.00127604  0.12579435  0.12640135  1
  V  V47  1  0.75098418  0.62305679  0.87386194  1
  V  V48  1  0.62606842  0.74898995  0.87469608  1
  V  V49  1  0.61613078  0.26367057  0.37423518  1
  V  V50  1  0.00353092  0.86761035  0.87519365  1
  V  V51  1  0.49862409  0.49836909  -0.00274411  1
  V  V52  1  0.49618674  0.49523595  0.49449303  1
  V  V53  1  -0.04310954  0.56410984  0.57513855  1
  V  V54  1  -0.00126047  0.26209754  0.75230007  1
  V  V55  1  0.75234905  -0.00045704  0.25264790  1
  V  V56  1  0.12344612  0.25172418  0.37701466  1
  V  V57  1  0.49902463  0.75006204  0.74892284  1
  V  V58  1  0.75422719  0.86520299  0.62581297  1
  V  V59  1  0.75041950  0.74648472  0.00047223  1
  V  V60  1  0.50743602  0.13007860  0.62473243  1
  V  V61  1  0.00582020  0.75347146  0.25390249  1
  V  V62  1  0.62742126  0.00924279  0.12376966  1
  V  V63  1  0.25435019  0.62286817  0.87509747  1
  V  V64  1  0.23971076  0.49264561  0.75081810  1
  V  V65  1  0.62510895  0.75345778  0.37571536  1
  V  V66  1  0.88011288  0.50019931  0.87418750  1
  V  V67  1  0.25736695  0.24537503  0.00455706  1
  V  V68  1  0.87504285  0.87112450  -0.00098108  1
  V  V69  1  0.74161870  0.12286124  0.39624158  1
  V  V70  1  0.12522398  0.62976821  -0.01096323  1
  V  V71  1  0.87671097  0.86184734  0.50165587  1
  V  V72  1  0.74056038  0.61100297  0.36637380  1
  V  V73  1  0.12488616  0.26106435  0.87812341  1
  V  V74  1  0.12709187  0.12057067  0.00781850  1
  V  V75  1  0.37922385  0.13140277  0.75121469  1
  V  V76  1  0.87031797  0.25006100  0.61835425  1
  V  V77  1  0.74998969  0.00113286  0.75495395  1
  V  V78  1  0.61983162  0.49501626  0.62524500  1
  V  V79  1  -0.05592088  0.32584940  0.93219876  1
  V  V80  1  0.87616027  -0.00708332  0.37661524  1
  V  V81  1  0.00241691  0.75094237  0.73298404  1
  V  V82  1  0.12032970  0.12539786  0.49652366  1
  V  V83  1  0.62522559  0.62149432  0.00504477  1
  V  V84  1  0.74768714  0.49795067  0.75021368  1
  Zn  Zn85  1  0.61838997  0.62766361  0.49821425  1
  Zn  Zn86  1  0.49870857  0.37607039  0.35059129  1
  Zn  Zn87  1  0.23558134  0.38463134  0.62280333  1
  Zn  Zn88  1  0.37513301  0.50135644  0.37071335  1
  Zn  Zn89  1  0.23774995  -0.01101415  0.25748822  1
  Zn  Zn90  1  0.38423606  0.11903184  0.26379625  1
  Zn  Zn91  1  0.49701315  0.63176728  0.12238175  1
  Zn  Zn92  1  0.66301463  0.12117838  -0.02254601  1
  Zn  Zn93  1  0.59805388  0.37046074  0.75574688  1
  Zn  Zn94  1  0.26507095  0.09933868  0.38094813  1
  Zn  Zn95  1  0.42522362  0.28558765  0.18534637  1
  Zn  Zn96  1  0.75219372  0.74540512  0.49948148  1
  Zn  Zn97  1  0.87324197  -0.00530895  0.87469609  1
  Zn  Zn98  1  0.63014616  0.00769949  0.62134719  1
  Zn  Zn99  1  0.12424230  0.75389722  0.37588299  1
  Zn  Zn100  1  0.43267465  0.44029061  0.83438691  1
  Zn  Zn101  1  0.05654028  0.91628100  0.32776426  1
  Zn  Zn102  1  0.75167322  0.25814859  -0.00252949  1
  Zn  Zn103  1  0.12510058  0.50222612  0.12166763  1
  Zn  Zn104  1  0.79226876  0.29563665  0.46029544  1
  Zn  Zn105  1  0.24765625  0.24636026  0.49923146  1
  Zn  Zn106  1  0.37755367  0.75167570  0.62594175  1
  Zn  Zn107  1  0.22567980  0.19903049  0.20687678  1
  Zn  Zn108  1  0.17304059  0.21850914  0.67758356  1
  Zn  Zn109  1  0.18459045  0.69166365  0.17964333  1
  Zn  Zn110  1  0.19378007  0.69386463  0.69441729  1
  Zn  Zn111  1  0.69135016  0.19436676  0.18921908  1
  Zn  Zn112  1  0.68664948  0.18936529  0.69732235  1
  Zn  Zn113  1  0.68506687  0.68395370  0.19274049  1
  Zn  Zn114  1  0.68535435  0.68440155  0.68536253  1
  Zn  Zn115  1  0.31058827  0.30698354  0.31690845  1
  Zn  Zn116  1  0.31114388  0.30732521  0.81387077  1
  Zn  Zn117  1  0.31037735  0.81976290  0.31366089  1
  Zn  Zn118  1  0.31498757  0.80845525  0.81860916  1
  Zn  Zn119  1  0.81291811  0.31556453  0.29641001  1
  Zn  Zn120  1  0.79970319  0.30733933  0.80858688  1
  Zn  Zn121  1  0.81680392  0.80591416  0.31250626  1
  Zn  Zn122  1  0.81523443  0.81027147  0.81074178  1
  Zn  Zn123  1  0.14611476  0.41868758  0.46087765  1
  Zn  Zn124  1  0.19102717  0.44108017  0.93586069  1
  Zn  Zn125  1  0.18502821  0.93625857  0.43768820  1
  Zn  Zn126  1  0.18823040  0.93657681  0.94242137  1
  Zn  Zn127  1  0.67891981  0.43563929  0.43600754  1
  Zn  Zn128  1  0.68647012  0.43023518  0.93861172  1
  Zn  Zn129  1  0.68849815  0.93428101  0.43871172  1
  Zn  Zn130  1  0.68817376  0.93431782  0.93629791  1
  Zn  Zn131  1  0.32520430  0.04375110  0.09379547  1
  Zn  Zn132  1  0.31207735  0.06906254  0.56395606  1
  Zn  Zn133  1  0.31252918  0.56057887  0.06328774  1
  Zn  Zn134  1  0.31125200  0.56113794  0.56630458  1
  Zn  Zn135  1  0.81647867  0.05614208  0.07280438  1
  Zn  Zn136  1  0.81528596  0.05562473  0.57059516  1
  Zn  Zn137  1  0.81074997  0.55311666  0.06364907  1
  Zn  Zn138  1  0.79514448  0.56015836  0.55388245  1
  Zn  Zn139  1  0.43733028  0.45424092  0.18097288  1
  Zn  Zn140  1  0.42790391  0.43813854  0.67022542  1
  Zn  Zn141  1  0.43263722  0.94524244  0.19145773  1
  Zn  Zn142  1  0.43895946  0.94531774  0.68549692  1
  Zn  Zn143  1  0.93800297  0.44060190  0.18553220  1
  Zn  Zn144  1  0.93006526  0.43149889  0.69151392  1
  Zn  Zn145  1  0.93842763  0.93563462  0.18379770  1
  Zn  Zn146  1  0.93676476  0.93432755  0.68542454  1
  Zn  Zn147  1  0.09761279  0.08347816  0.28657848  1
  Zn  Zn148  1  0.06019018  0.06220985  0.81963885  1
  Zn  Zn149  1  0.07070321  0.56799708  0.31376623  1
  Zn  Zn150  1  0.06247864  0.56482817  0.80804985  1
  Zn  Zn151  1  0.56515829  0.06768242  0.30977617  1
  Zn  Zn152  1  0.56475376  0.06816406  0.81105640  1
  Zn  Zn153  1  0.55653926  0.56547345  0.30985171  1
  Zn  Zn154  1  0.56527784  0.56337344  0.81213887  1
  Zn  Zn155  1  0.43836124  0.19010451  0.43754778  1
  Zn  Zn156  1  0.44109605  0.18698406  0.93998545  1
  Zn  Zn157  1  0.43520530  0.69135583  0.43260949  1
  Zn  Zn158  1  0.43831114  0.68687861  0.93709661  1
  Zn  Zn159  1  0.96005867  0.35809934  0.41971222  1
  Zn  Zn160  1  0.88786614  0.15285742  0.96412750  1
  Zn  Zn161  1  0.94375778  0.67068587  0.43356115  1
  Zn  Zn162  1  0.93781292  0.68895172  0.93142264  1
  Zn  Zn163  1  0.07215873  0.30688162  0.07100655  1
  Zn  Zn164  1  0.06054769  0.31507409  0.57136652  1
  Zn  Zn165  1  0.06132010  0.80316354  0.05570123  1
  Zn  Zn166  1  0.07249520  0.81935408  0.54776441  1
  Zn  Zn167  1  0.57095097  0.31187918  0.04982871  1
  Zn  Zn168  1  0.56407376  0.30879238  0.55206406  1
  Zn  Zn169  1  0.56402371  0.81462895  0.06259274  1
  Zn  Zn170  1  0.56092729  0.81609491  0.56095224  1
  O  O171  1  0.11169499  0.12425780  0.11060876  1
  O  O172  1  0.11688660  0.12590524  0.61913777  1
  O  O173  1  0.11612782  0.62453698  0.10999704  1
  O  O174  1  0.13746358  0.62591402  0.62170740  1
  O  O175  1  0.62369590  0.11456817  0.12325552  1
  O  O176  1  0.61113099  0.12705101  0.63413708  1
  O  O177  1  0.62764734  0.62435795  0.11206285  1
  O  O178  1  0.61530130  0.61312571  0.62440586  1
  O  O179  1  0.37125557  0.37681456  0.38521031  1
  O  O180  1  0.36419886  0.37226347  0.89340158  1
  O  O181  1  0.38587928  0.87128948  0.38528764  1
  O  O182  1  0.38253379  0.88152539  0.88237712  1
  O  O183  1  0.85719364  0.35949215  0.38850945  1
  O  O184  1  0.87856903  0.38059276  0.87202928  1
  O  O185  1  0.86628403  0.88417462  0.38436389  1
  O  O186  1  0.88274842  0.87271983  0.88162560  1
  O  O187  1  0.25834856  -0.01637238  0.37315146  1
  O  O188  1  0.25667193  0.00477301  0.87452757  1
  O  O189  1  0.25090945  0.51175626  0.35910300  1
  O  O190  1  0.25124915  0.51359294  0.86802428  1
  O  O191  1  0.75312635  0.00400717  0.37095125  1
  O  O192  1  0.75320860  -0.01097085  0.85965883  1
  O  O193  1  0.73960721  0.51291470  0.37635083  1
  O  O194  1  0.75934774  0.50271609  0.86874199  1
  O  O195  1  0.24654604  0.49471458  0.13419385  1
  O  O196  1  0.25400996  0.49969686  0.64492210  1
  O  O197  1  0.23672029  0.97495995  0.10717042  1
  O  O198  1  0.24647486  0.99610112  0.63330430  1
  O  O199  1  0.73516900  0.49191477  0.12111630  1
  O  O200  1  0.73764615  0.49693399  0.63165228  1
  O  O201  1  0.74397488  0.99024156  0.13160890  1
  O  O202  1  0.74626401  0.98563967  0.63522789  1
  O  O203  1  0.00922532  0.36926852  0.23970908  1
  O  O204  1  -0.00193914  0.36102342  0.75047724  1
  O  O205  1  -0.01164140  0.85625720  0.25052006  1
  O  O206  1  0.00805588  0.87181091  0.75635013  1
  O  O207  1  0.47230997  0.36966062  0.24180062  1
  O  O208  1  0.48870762  0.39341525  0.75075089  1
  O  O209  1  0.49965188  0.87545139  0.25629532  1
  O  O210  1  0.50669385  0.87234222  0.75271264  1
  O  O211  1  0.49943957  0.11701950  0.22908644  1
  O  O212  1  0.48586134  0.11644452  0.74142849  1
  O  O213  1  0.48723996  0.63786687  0.24901230  1
  O  O214  1  0.49442827  0.62908613  0.74477507  1
  O  O215  1  0.99987362  0.13290357  0.24392790  1
  O  O216  1  0.99390471  0.12404881  0.74211158  1
  O  O217  1  1.00020658  0.63302757  0.22938660  1
  O  O218  1  0.99372484  0.63741532  0.75195549  1
  O  O219  1  0.36157655  0.25385808  -0.00327758  1
  O  O220  1  0.37171810  0.26093184  0.50438351  1
  O  O221  1  0.36890245  0.75916144  -0.00532129  1
  O  O222  1  0.36705461  0.75981027  0.50232749  1
  O  O223  1  0.88780018  0.26586712  -0.01105637  1
  O  O224  1  0.87633627  0.24182524  0.51939192  1
  O  O225  1  0.86927863  0.75223720  0.00554009  1
  O  O226  1  0.87954336  0.76015036  0.49169205  1
  O  O227  1  0.12138649  0.24037313  0.49274295  1
  O  O228  1  0.13105396  0.24075884  0.99375335  1
  O  O229  1  0.14286932  0.73733403  0.50677503  1
  O  O230  1  0.13528981  0.73937373  0.99617131  1
  O  O231  1  0.63573482  0.25811080  0.47854180  1
  O  O232  1  0.63189980  0.23967017  0.98917999  1
  O  O233  1  0.61989160  0.74994173  0.48825622  1
  O  O234  1  0.63077591  0.74387531  0.99445945  1
  O  O235  1  0.50922649  0.23641870  0.11831684  1
  O  O236  1  0.48834902  0.24227586  0.61490638  1
  O  O237  1  0.50567454  0.75225109  0.13920226  1
  O  O238  1  0.49956610  0.74391658  0.63046881  1
  O  O239  1  1.00490211  0.23907140  0.13595789  1
  O  O240  1  0.98997316  0.24101643  0.63621222  1
  O  O241  1  0.99132671  0.74382913  0.12900669  1
  O  O242  1  1.00885816  0.76289015  0.63519721  1
  O  O243  1  0.01275788  0.26115787  0.35787282  1
  O  O244  1  0.00144849  0.25927626  0.87605254  1
  O  O245  1  -0.00015206  0.73886472  0.35595483  1
  O  O246  1  -0.00289825  0.76335556  0.86570841  1
  O  O247  1  0.51149796  0.25787512  0.38023254  1
  O  O248  1  0.51692064  0.24764507  0.88393420  1
  O  O249  1  0.50718056  0.76073701  0.36550798  1
  O  O250  1  0.50761016  0.75623495  0.86916984  1
  O  O251  1  0.23427353  0.12097709  0.49648654  1
  O  O252  1  0.24213104  0.13072014  0.99988244  1
  O  O253  1  0.25143700  0.63444393  0.49548168  1
  O  O254  1  0.24557807  0.62783848  0.99484575  1
  O  O255  1  0.75209064  0.11492626  0.49430535  1
  O  O256  1  0.77689280  0.13261469  1.00146615  1
  O  O257  1  0.73706128  0.62970938  0.48758307  1
  O  O258  1  0.74439610  0.62760150  0.99411355  1
  O  O259  1  0.25261117  0.37045215  0.00886492  1
  O  O260  1  0.24915408  0.37317685  0.50228291  1
  O  O261  1  0.25863826  0.86445099  0.00186835  1
  O  O262  1  0.25767136  0.87027012  0.51156828  1
  O  O263  1  0.74572349  0.37668994  0.01770245  1
  O  O264  1  0.74277527  0.38403262  0.51778229  1
  O  O265  1  0.75356640  0.86574455  0.00653138  1
  O  O266  1  0.75794051  0.87066964  0.50866872  1
  O  O267  1  0.13022291  0.49655880  0.24757834  1
  O  O268  1  0.14099363  0.50172770  0.75619240  1
  O  O269  1  0.11954941  0.97825247  0.26084077  1
  O  O270  1  0.13072160  0.99210422  0.74771915  1
  O  O271  1  0.61641904  0.50855248  0.23046657  1
  O  O272  1  0.63266259  0.50006352  0.74346065  1
  O  O273  1  0.63140643  0.99495327  0.24149494  1
  O  O274  1  0.63138121  0.99084879  0.74828608  1
  O  O275  1  0.35058557  0.01947391  0.21189868  1
  O  O276  1  0.36987929  0.00490147  0.75922746  1
  O  O277  1  0.36458229  0.51630495  0.24917137  1
  O  O278  1  0.37103756  0.51248149  0.75345202  1
  O  O279  1  0.87248217  -0.00065840  0.25823345  1
  O  O280  1  0.86685664  0.00341317  0.74834690  1
  O  O281  1  0.87435706  0.51890501  0.24074685  1
  O  O282  1  0.86928926  0.51010220  0.75600081  1
  O  O283  1  0.13193396  0.37034399  0.35799954  1
  O  O284  1  0.13214214  0.36018766  0.87985526  1
  O  O285  1  0.10589447  0.86023213  0.41339375  1
  O  O286  1  0.11893696  0.87930160  0.86638691  1
  O  O287  1  0.62026962  0.36882478  0.36524374  1
  O  O288  1  0.62571552  0.36325844  0.87162038  1
  O  O289  1  0.61544903  0.87157510  0.36774726  1
  O  O290  1  0.62001249  0.86974119  0.86386836  1
  O  O291  1  0.39721396  0.13141308  0.10836420  1
  O  O292  1  0.38543439  0.12814778  0.63353805  1
  O  O293  1  0.37345754  0.62806663  0.13576698  1
  O  O294  1  0.38254108  0.62737690  0.63417263  1
  O  O295  1  0.89076541  0.11425547  0.14129048  1
  O  O296  1  0.88164734  0.12738537  0.63614593  1
  O  O297  1  0.88187574  0.63403903  0.11313502  1
  O  O298  1  0.88183084  0.61654682  0.62940742  1
  O  O299  1  0.23751291  0.26164021  0.11341683  1
  O  O300  1  0.27126850  0.23175865  0.61792327  1
  O  O301  1  0.24830386  0.75734488  0.10853236  1
  O  O302  1  0.25624697  0.76118118  0.62142968  1
  O  O303  1  0.75029815  0.26175769  0.11873627  1
  O  O304  1  0.75587913  0.25951140  0.63467595  1
  O  O305  1  0.75608836  0.75027831  0.12286250  1
  O  O306  1  0.74300847  0.76043037  0.62172460  1
  O  O307  1  0.23062073  0.24700128  0.37815501  1
  O  O308  1  0.24164890  0.24144891  0.88309442  1
  O  O309  1  0.24874401  0.74857474  0.38462008  1
  O  O310  1  0.25309348  0.73724930  0.88563923  1
  O  O311  1  0.75151582  0.22762045  0.37588131  1
  O  O312  1  0.73862425  0.25166858  0.88103607  1
  O  O313  1  0.73193140  0.75501242  0.37415387  1
  O  O314  1  0.74511094  0.74313359  0.87886083  1
  O  O315  1  -0.00440355  0.11422672  0.00774294  1
  O  O316  1  0.00268070  0.11035545  0.51892415  1
  O  O317  1  0.00680111  0.62196834  0.00026796  1
  O  O318  1  0.01742297  0.63041755  0.51544214  1
  O  O319  1  0.50629089  0.11166178  0.00564510  1
  O  O320  1  0.49674416  0.11618782  0.50999483  1
  O  O321  1  0.50906128  0.62336313  0.00261917  1
  O  O322  1  0.49567951  0.61617738  0.50235572  1
  O  O323  1  0.48763610  0.38816047  0.50236051  1
  O  O324  1  0.48953754  0.38448035  1.00634324  1
  O  O325  1  0.49095138  0.88231758  0.49296241  1
  O  O326  1  0.49761026  0.88290884  0.99477697  1
  O  O327  1  1.03655056  0.38707008  0.49080452  1
  O  O328  1  1.00456940  0.37964358  0.99818790  1
  O  O329  1  0.98727762  0.89008993  0.51903374  1
  O  O330  1  0.99655272  0.87606971  0.99360781  1
  O  O331  1  0.49532925  0.49717659  0.38021291  1
  O  O332  1  0.50261953  0.51017573  0.89168196  1
  O  O333  1  0.50561914  0.99200685  0.38092432  1
  O  O334  1  0.49875674  0.99568077  0.88221475  1
  O  O335  1  0.96880896  0.56954300  0.36030155  1
  O  O336  1  0.98852177  0.50402041  0.87677169  1
  O  O337  1  0.98833646  0.99631718  0.38911186  1
  O  O338  1  0.99693304  0.98597510  0.88494194  1
  O  O339  1  -0.00113128  0.00161684  0.11238284  1
  O  O340  1  0.00774860  0.00632137  0.62672010  1
  O  O341  1  0.00134299  0.51020369  0.11274694  1
  O  O342  1  0.00370518  0.50038997  0.63568827  1
  O  O343  1  0.51112109  0.00374737  0.11514090  1
  O  O344  1  0.50461241  0.00960630  0.61616562  1
  O  O345  1  0.51085670  0.51092883  0.11244226  1
  O  O346  1  0.50323183  0.50808595  0.61497761  1
  O  O347  1  0.24653267  0.38521846  0.24337113  1
  O  O348  1  0.25859224  0.39183475  0.75640795  1
  O  O349  1  0.25408332  0.86959591  0.22836040  1
  O  O350  1  0.24637913  0.87859231  0.74831075  1
  O  O351  1  0.74803578  0.37405926  0.22765211  1
  O  O352  1  0.75276168  0.39064085  0.74088860  1
  O  O353  1  0.74616475  0.87828360  0.24445780  1
  O  O354  1  0.74302054  0.87535909  0.74410962  1
  O  O355  1  0.21337952  0.10989899  0.27028023  1
  O  O356  1  0.26099654  0.11802212  0.75887870  1
  O  O357  1  0.25118589  0.62571526  0.25315689  1
  O  O358  1  0.25865837  0.62184727  0.75847873  1
  O  O359  1  0.76248247  0.11417034  0.24483274  1
  O  O360  1  0.75978677  0.11137348  0.74148721  1
  O  O361  1  0.75188955  0.62664022  0.26459234  1
  O  O362  1  0.75674826  0.61640617  0.75170575  1
  O  O363  1  0.37538826  0.12532408  0.37494868  1
  O  O364  1  0.37121611  0.12056796  0.87060643  1
  O  O365  1  0.36206657  0.62802644  0.36567585  1
  O  O366  1  0.36839880  0.62901254  0.86621373  1
  O  O367  1  0.86096890  0.10611088  0.36465933  1
  O  O368  1  0.88440558  0.11402840  0.85831520  1
  O  O369  1  0.84483495  0.64152373  0.37709467  1
  O  O370  1  0.86971808  0.61882013  0.86498201  1
  O  O371  1  0.13534092  0.38071875  0.13398578  1
  O  O372  1  0.14301554  0.32607792  0.64465337  1
  O  O373  1  0.13134935  0.86378552  0.12134352  1
  O  O374  1  0.13980446  0.88232752  0.63149973  1
  O  O375  1  0.62009454  0.38621034  0.12496374  1
  O  O376  1  0.62505806  0.38429370  0.62959169  1
  O  O377  1  0.62980001  0.88511321  0.12939015  1
  O  O378  1  0.62840711  0.87438357  0.63730632  1
  O  O379  1  0.12170705  0.25990518  0.25365889  1
  O  O380  1  0.10578050  0.23054178  0.77182452  1
  O  O381  1  0.10952556  0.74700288  0.24945322  1
  O  O382  1  0.12068859  0.76439450  0.74875971  1
  O  O383  1  0.63163014  0.23203316  0.27753932  1
  O  O384  1  0.62603740  0.25702447  0.76297838  1
  O  O385  1  0.61597070  0.75873867  0.25502859  1
  O  O386  1  0.61947692  0.75502550  0.75548425  1
  O  O387  1  0.34167597  0.22990690  0.23804179  1
  O  O388  1  0.37205682  0.24025800  0.74257582  1
  O  O389  1  0.38225896  0.74701911  0.25583534  1
  O  O390  1  0.38271988  0.74146379  0.74954113  1
  O  O391  1  0.88630817  0.23499668  0.25467903  1
  O  O392  1  0.88148745  0.24024430  0.74835752  1
  O  O393  1  0.88395888  0.73227979  0.24445077  1
  O  O394  1  0.88192376  0.73776645  0.74840698  1
  O  O395  1  0.37704489  0.49326448  0.49748011  1
  O  O396  1  0.38438258  0.49105014  1.00666955  1
  O  O397  1  0.38437554  0.99178618  0.50768297  1
  O  O398  1  0.38751775  0.99279788  0.99740806  1
  O  O399  1  0.89490748  0.51455162  0.51492630  1
  O  O400  1  0.88868004  0.50618477  0.98936606  1
  O  O401  1  0.87968141  0.99248038  0.49523041  1
  O  O402  1  0.88272001  0.98644529  1.00049533  1
  O  O403  1  0.11362518  0.00798615  -0.00700119  1
  O  O404  1  0.11547198  0.00627818  0.51020474  1
  O  O405  1  0.11357375  0.50693297  -0.00354300  1
  O  O406  1  0.14198202  0.52387653  0.50225052  1
  O  O407  1  0.62490160  0.00400962  0.00461691  1
  O  O408  1  0.61117648  -0.01068353  0.50465182  1
  O  O409  1  0.61943222  0.50711462  0.00526432  1
  O  O410  1  0.61220051  0.50101705  0.50816068  1
  O  O411  1  0.36249769  0.37282826  0.11628001  1
  O  O412  1  0.36236150  0.36647375  0.61204127  1
  O  O413  1  0.37620961  0.87663526  0.11165426  1
  O  O414  1  0.36598486  0.87781558  0.62086683  1
  O  O415  1  0.86675474  0.37960712  0.12276541  1
  O  O416  1  0.86295136  0.36327272  0.62944804  1
  O  O417  1  0.86976624  0.85945082  0.12068613  1
  O  O418  1  0.86396101  0.87632850  0.61665362  1
  O  O419  1  0.10617115  0.13474663  0.39198562  1
  O  O420  1  0.12887993  0.12803655  0.88836880  1
  O  O421  1  0.14060989  0.63312255  0.38071906  1
  O  O422  1  0.13351909  0.62212948  0.88350248  1
  O  O423  1  0.64088806  0.11547845  0.38065372  1
  O  O424  1  0.62897121  0.13727509  0.86949009  1
  O  O425  1  0.62791085  0.63481773  0.37190468  1
  O  O426  1  0.63254356  0.62888967  0.88453907  1
