# generated using pymatgen
data_V85Zn86O256
_symmetry_space_group_name_H-M   'P 1'
_cell_length_a   16.91733115
_cell_length_b   16.91137645
_cell_length_c   16.91408266
_cell_angle_alpha   90.01716665
_cell_angle_beta   90.06379994
_cell_angle_gamma   89.98291327
_symmetry_Int_Tables_number   1
_chemical_formula_structural   V85Zn86O256
_chemical_formula_sum   'V85 Zn86 O256'
_cell_volume   4839.03705976
_cell_formula_units_Z   1
loop_
 _symmetry_equiv_pos_site_id
 _symmetry_equiv_pos_as_xyz
  1  'x, y, z'
loop_
 _atom_site_type_symbol
 _atom_site_label
 _atom_site_symmetry_multiplicity
 _atom_site_fract_x
 _atom_site_fract_y
 _atom_site_fract_z
 _atom_site_occupancy
  V  V0  1  0.37288584  0.13316402  0.76071367  1
  V  V1  1  0.87562103  0.74957958  0.12720425  1
  V  V2  1  0.50012246  0.87470678  0.38054379  1
  V  V3  1  0.11802294  0.87869863  0.75200101  1
  V  V4  1  0.00460250  0.88679249  0.38153852  1
  V  V5  1  0.12226507  0.75534546  0.87667585  1
  V  V6  1  0.62010477  0.75319065  0.87495302  1
  V  V7  1  0.49573842  0.75093243  0.24603027  1
  V  V8  1  0.88008608  0.87361503  -0.00415357  1
  V  V9  1  0.12745839  0.12493141  -0.00627787  1
  V  V10  1  0.12989536  0.49964502  0.13093234  1
  V  V11  1  0.74997273  0.25122966  -0.00037347  1
  V  V12  1  0.24669323  0.87503536  0.61775501  1
  V  V13  1  0.00023051  0.11750250  0.61932952  1
  V  V14  1  0.49960560  0.61816521  0.62170502  1
  V  V15  1  0.75542886  0.49545696  0.74395191  1
  V  V16  1  0.49989638  0.62524456  0.12528799  1
  V  V17  1  0.74919023  0.12638599  0.87425245  1
  V  V18  1  0.25377445  0.62571388  0.87728330  1
  V  V19  1  0.00571418  0.75333787  0.25746834  1
  V  V20  1  0.87137189  0.25794501  0.61341139  1
  V  V21  1  0.49611493  0.75688256  0.75104515  1
  V  V22  1  0.49700841  0.12369633  0.12705717  1
  V  V23  1  0.36697946  -0.01276977  0.87093173  1
  V  V24  1  0.75179114  0.62567182  0.37518215  1
  V  V25  1  0.37749969  0.24812072  0.12834188  1
  V  V26  1  -0.00289399  0.49750016  0.51215307  1
  V  V27  1  0.00276502  -0.00391677  -0.00395641  1
  V  V28  1  0.87549710  0.12751271  0.74715531  1
  V  V29  1  0.37372155  0.38057910  -0.00471184  1
  V  V30  1  0.73751588  0.26106321  0.49875463  1
  V  V31  1  0.75108625  0.87497129  0.12618803  1
  V  V32  1  0.62532046  -0.00068600  0.12269935  1
  V  V33  1  0.24660820  0.38008197  0.62246885  1
  V  V34  1  0.37170402  0.00343708  0.36951270  1
  V  V35  1  0.87433021  0.38285968  -0.00283403  1
  V  V36  1  0.87408916  0.25350194  0.12531984  1
  V  V37  1  0.75253092  0.00109103  0.25180807  1
  V  V38  1  0.37703070  0.62080317  0.75252234  1
  V  V39  1  0.62175964  0.61844400  0.49968763  1
  V  V40  1  0.62505542  0.75045535  0.37637552  1
  V  V41  1  0.37852547  0.38119234  0.50032386  1
  V  V42  1  0.73569889  0.12922266  0.38323414  1
  V  V43  1  0.74632814  0.50048634  0.24476006  1
  V  V44  1  0.49705535  0.37883911  0.86869281  1
  V  V45  1  0.12787733  0.25065281  0.87099639  1
  V  V46  1  0.74582256  -0.00252324  0.74955781  1
  V  V47  1  0.00075468  0.12582515  0.12305318  1
  V  V48  1  0.50039451  0.01297137  0.49806136  1
  V  V49  1  0.62427855  0.37544460  0.74186537  1
  V  V50  1  0.12341248  0.38026542  0.74528806  1
  V  V51  1  0.62429919  0.12558209  -0.00244265  1
  V  V52  1  0.61841500  0.25046103  0.86718321  1
  V  V53  1  0.00123486  0.37154777  0.38460000  1
  V  V54  1  0.87817772  0.62372147  0.26003530  1
  V  V55  1  0.62538983  0.61776187  0.00295044  1
  V  V56  1  0.25168404  0.37836061  0.13200697  1
  V  V57  1  0.87651386  0.74668462  0.63072953  1
  V  V58  1  0.36884760  0.62145719  0.24529480  1
  V  V59  1  0.62193996  0.00255385  0.62064625  1
  V  V60  1  0.36250530  0.49775535  0.37088509  1
  V  V61  1  0.75587202  0.61745971  0.87539895  1
  V  V62  1  -0.00277616  0.38202855  0.87421623  1
  V  V63  1  0.25059030  0.49976577  0.75529954  1
  V  V64  1  0.37959216  0.24898834  0.62531468  1
  V  V65  1  0.50408511  0.38367750  0.37588818  1
  V  V66  1  0.87562119  0.12852099  0.25426483  1
  V  V67  1  0.62453965  0.37571987  0.24480703  1
  V  V68  1  0.36968292  0.74838802  0.61477658  1
  V  V69  1  0.25233375  0.13421945  0.36807124  1
  V  V70  1  0.50107516  -0.00518308  -0.01105903  1
  V  V71  1  0.74876917  0.74805112  0.00024312  1
  V  V72  1  0.01163547  0.25229250  0.25379431  1
  V  V73  1  0.87690118  -0.00067210  0.87505570  1
  V  V74  1  0.75531490  0.75102635  0.50183309  1
  V  V75  1  0.12133170  0.12548080  0.48997240  1
  V  V76  1  0.25181732  0.24665400  -0.00357111  1
  V  V77  1  0.00207678  0.62200105  0.12757200  1
  V  V78  1  0.50442212  0.24585126  0.25844202  1
  V  V79  1  0.01104906  0.62309566  0.63252750  1
  V  V80  1  0.49982210  0.49892947  0.00099884  1
  V  V81  1  0.24581305  0.63889940  0.38047952  1
  V  V82  1  0.25201521  0.75388483  0.01295129  1
  V  V83  1  0.13433341  0.87648332  0.24497991  1
  V  V84  1  0.37668329  0.87085233  0.01591594  1
  Zn  Zn85  1  0.87311927  0.49047292  0.38238455  1
  Zn  Zn86  1  0.13573020  -0.00483288  0.11917974  1
  Zn  Zn87  1  0.61841190  0.87656847  0.75269751  1
  Zn  Zn88  1  0.50055276  0.13026117  0.62740142  1
  Zn  Zn89  1  0.24531517  0.25467324  0.49673656  1
  Zn  Zn90  1  0.36624977  0.87401009  0.49646801  1
  Zn  Zn91  1  0.88278928  0.87976078  0.50639114  1
  Zn  Zn92  1  0.25849879  0.00254431  0.24063380  1
  Zn  Zn93  1  0.74508793  0.37977429  0.12207522  1
  Zn  Zn94  1  -0.00005763  0.50261992  -0.00181966  1
  Zn  Zn95  1  0.62689855  0.87347417  0.25091962  1
  Zn  Zn96  1  0.12658852  0.62390485  0.00107802  1
  Zn  Zn97  1  0.62660173  0.49513412  0.61904738  1
  Zn  Zn98  1  0.87622326  0.00390033  0.38799379  1
  Zn  Zn99  1  -0.00345306  0.75243241  0.75865196  1
  Zn  Zn100  1  0.74898599  0.87427628  0.62554574  1
  Zn  Zn101  1  0.13178706  0.37579196  0.25838186  1
  Zn  Zn102  1  -0.00011180  0.25061932  0.74614265  1
  Zn  Zn103  1  0.12435999  0.00066823  0.62136347  1
  Zn  Zn104  1  0.13155975  0.62687809  0.50408304  1
  Zn  Zn105  1  0.87867623  0.62073271  0.75716640  1
  Zn  Zn106  1  0.24625895  0.00514245  0.74814746  1
  Zn  Zn107  1  0.18994761  0.18324641  0.18117192  1
  Zn  Zn108  1  0.19135540  0.18884182  0.68391830  1
  Zn  Zn109  1  0.18605535  0.68770805  0.19320533  1
  Zn  Zn110  1  0.18889193  0.69208568  0.69067951  1
  Zn  Zn111  1  0.68596424  0.18900444  0.18879213  1
  Zn  Zn112  1  0.68721956  0.18705817  0.68222700  1
  Zn  Zn113  1  0.68420654  0.68582500  0.18814167  1
  Zn  Zn114  1  0.68676699  0.68458167  0.68856061  1
  Zn  Zn115  1  0.31814393  0.30968609  0.31069854  1
  Zn  Zn116  1  0.31167073  0.31231655  0.81195066  1
  Zn  Zn117  1  0.31629372  0.81115948  0.31187884  1
  Zn  Zn118  1  0.30553994  0.81181279  0.80757460  1
  Zn  Zn119  1  0.81313854  0.31221626  0.31713278  1
  Zn  Zn120  1  0.81075026  0.31347187  0.81084953  1
  Zn  Zn121  1  0.81927839  0.81413513  0.31657188  1
  Zn  Zn122  1  0.81073320  0.81049752  0.81481004  1
  Zn  Zn123  1  0.17983176  0.44190106  0.44058917  1
  Zn  Zn124  1  0.18546194  0.43903253  0.93999863  1
  Zn  Zn125  1  0.18439107  0.94186965  0.43536640  1
  Zn  Zn126  1  0.19163417  0.93417849  0.93831166  1
  Zn  Zn127  1  0.68679132  0.43777035  0.42980388  1
  Zn  Zn128  1  0.68665959  0.43719972  0.93300799  1
  Zn  Zn129  1  0.68893014  0.93941150  0.43950038  1
  Zn  Zn130  1  0.68958672  0.93463342  0.93584818  1
  Zn  Zn131  1  0.31392744  0.06206352  0.05891272  1
  Zn  Zn132  1  0.30960705  0.06288661  0.55863614  1
  Zn  Zn133  1  0.31437515  0.56255432  0.06248144  1
  Zn  Zn134  1  0.31183486  0.55902868  0.56183868  1
  Zn  Zn135  1  0.81450093  0.06358123  0.06371548  1
  Zn  Zn136  1  0.80979391  0.06357573  0.56297459  1
  Zn  Zn137  1  0.81461255  0.56261735  0.06627177  1
  Zn  Zn138  1  0.81886565  0.56260151  0.56370960  1
  Zn  Zn139  1  0.43940494  0.43917699  0.18596116  1
  Zn  Zn140  1  0.43645114  0.43921267  0.68757322  1
  Zn  Zn141  1  0.44066966  0.93879678  0.18976316  1
  Zn  Zn142  1  0.43295091  0.93824708  0.68408359  1
  Zn  Zn143  1  0.93752972  0.43641982  0.19159475  1
  Zn  Zn144  1  0.93492605  0.43599612  0.68824745  1
  Zn  Zn145  1  0.94112396  0.93926110  0.18623422  1
  Zn  Zn146  1  0.93618487  0.93632522  0.68631566  1
  Zn  Zn147  1  0.06728005  0.06081721  0.30991868  1
  Zn  Zn148  1  0.06123454  0.06265642  0.81131835  1
  Zn  Zn149  1  0.06377628  0.55498213  0.31716523  1
  Zn  Zn150  1  0.06759930  0.56288125  0.81418958  1
  Zn  Zn151  1  0.56280298  0.06047460  0.31041005  1
  Zn  Zn152  1  0.55665915  0.06476623  0.80776471  1
  Zn  Zn153  1  0.56133020  0.56006543  0.31276519  1
  Zn  Zn154  1  0.56537780  0.56193105  0.81345313  1
  Zn  Zn155  1  0.43129768  0.19220398  0.43820359  1
  Zn  Zn156  1  0.43792551  0.18768098  0.93606559  1
  Zn  Zn157  1  0.43660570  0.68335407  0.43502856  1
  Zn  Zn158  1  0.43569796  0.68966415  0.93737344  1
  Zn  Zn159  1  0.93728827  0.18903378  0.43666432  1
  Zn  Zn160  1  0.94031035  0.19217286  0.93501733  1
  Zn  Zn161  1  0.97308473  0.70574000  0.45791180  1
  Zn  Zn162  1  0.93910880  0.68646572  0.94013533  1
  Zn  Zn163  1  0.06277490  0.31411848  0.06312826  1
  Zn  Zn164  1  0.06221797  0.30545708  0.56237272  1
  Zn  Zn165  1  0.06389596  0.81004942  0.06569535  1
  Zn  Zn166  1  0.06938974  0.80633542  0.56393448  1
  Zn  Zn167  1  0.56327824  0.31293200  0.06230922  1
  Zn  Zn168  1  0.55999059  0.31196159  0.55888587  1
  Zn  Zn169  1  0.56139690  0.81110878  0.06263979  1
  Zn  Zn170  1  0.56332991  0.81213425  0.56463744  1
  O  O171  1  0.11817393  0.12641512  0.10861754  1
  O  O172  1  0.11620726  0.12590566  0.61894801  1
  O  O173  1  0.11899856  0.61905765  0.12644199  1
  O  O174  1  0.11483126  0.62830321  0.62843692  1
  O  O175  1  0.61763107  0.11994699  0.11743271  1
  O  O176  1  0.61807642  0.10930062  0.63384944  1
  O  O177  1  0.61265620  0.62710907  0.11629995  1
  O  O178  1  0.61621970  0.62534728  0.61679466  1
  O  O179  1  0.37932822  0.38050847  0.37973951  1
  O  O180  1  0.38511686  0.36775050  0.88261938  1
  O  O181  1  0.38246739  0.88161078  0.37744098  1
  O  O182  1  0.37194887  0.88489205  0.87686625  1
  O  O183  1  0.89432741  0.37423405  0.36912474  1
  O  O184  1  0.88486971  0.36563883  0.88371184  1
  O  O185  1  0.89016581  0.88166800  0.37417809  1
  O  O186  1  0.86978683  0.87980623  0.88916174  1
  O  O187  1  0.25757151  0.00915132  0.37062747  1
  O  O188  1  0.26475705  0.00081225  0.87552514  1
  O  O189  1  0.26001031  0.49917334  0.37360295  1
  O  O190  1  0.24680371  0.50721858  0.86507052  1
  O  O191  1  0.74987900  0.01167841  0.36724715  1
  O  O192  1  0.75553870  0.00712117  0.87064934  1
  O  O193  1  0.75545447  0.50827173  0.36619549  1
  O  O194  1  0.74353775  0.50843820  0.86353764  1
  O  O195  1  0.24447903  0.48998631  0.11938298  1
  O  O196  1  0.25492957  0.48877380  0.63720700  1
  O  O197  1  0.24904780  1.00694227  0.12766378  1
  O  O198  1  0.24966983  0.99051468  0.62723696  1
  O  O199  1  0.75334217  0.49940100  0.13983327  1
  O  O200  1  0.74665683  0.50718780  0.63988669  1
  O  O201  1  0.74540950  0.99675225  0.13076894  1
  O  O202  1  0.74046486  0.99909049  0.63413280  1
  O  O203  1  0.00413844  0.36651890  0.25705133  1
  O  O204  1  0.00715108  0.37246796  0.75542162  1
  O  O205  1  0.00689287  0.86999967  0.25333061  1
  O  O206  1  0.01309312  0.87461685  0.74828651  1
  O  O207  1  0.50563696  0.36858425  0.25360737  1
  O  O208  1  0.50567048  0.38248449  0.76167577  1
  O  O209  1  0.50230449  0.86755805  0.25982554  1
  O  O210  1  0.49615530  0.86056889  0.74646765  1
  O  O211  1  0.50629293  0.13238820  0.23922944  1
  O  O212  1  0.47910500  0.12005665  0.74483138  1
  O  O213  1  0.49517953  0.62974061  0.24313794  1
  O  O214  1  0.49281452  0.62971449  0.74489822  1
  O  O215  1  0.99405054  0.13126464  0.24614744  1
  O  O216  1  0.99066957  0.12898191  0.74335039  1
  O  O217  1  0.99597123  0.63187629  0.24924636  1
  O  O218  1  0.99776244  0.62314251  0.74652450  1
  O  O219  1  0.37025500  0.25733525  0.00557587  1
  O  O220  1  0.36814577  0.26305073  0.50676744  1
  O  O221  1  0.36770825  0.76265908  -0.00333534  1
  O  O222  1  0.38020779  0.75044622  0.51191970  1
  O  O223  1  0.86973456  0.25698574  0.00561215  1
  O  O224  1  0.86678913  0.24671823  0.50934430  1
  O  O225  1  0.87085794  0.75663503  0.00635364  1
  O  O226  1  0.87148587  0.75275637  0.51000841  1
  O  O227  1  0.13023729  0.23290428  0.50484744  1
  O  O228  1  0.13233521  0.24567530  0.99368321  1
  O  O229  1  0.08501431  0.72867576  0.48719537  1
  O  O230  1  0.13767902  0.75089787  0.99627226  1
  O  O231  1  0.63833973  0.24810152  0.50538752  1
  O  O232  1  0.63069864  0.24554269  0.99225188  1
  O  O233  1  0.63294648  0.74083802  0.49578827  1
  O  O234  1  0.62753625  0.73910657  0.99498150  1
  O  O235  1  0.49537027  0.24270666  0.12866489  1
  O  O236  1  0.48462881  0.25118760  0.62142241  1
  O  O237  1  0.50371221  0.74124131  0.13479791  1
  O  O238  1  0.49298610  0.74043469  0.63280039  1
  O  O239  1  0.99249102  0.24565638  0.13018590  1
  O  O240  1  0.98614021  0.23986320  0.62499608  1
  O  O241  1  0.99642116  0.73939410  0.13411300  1
  O  O242  1  0.99233470  0.74075847  0.63362609  1
  O  O243  1  -0.00107049  0.25958239  0.36775251  1
  O  O244  1  0.01228688  0.26022479  0.87238980  1
  O  O245  1  -0.00983209  0.76451487  0.35937943  1
  O  O246  1  0.01713694  0.74391226  0.87889656  1
  O  O247  1  0.48966152  0.25816592  0.36180703  1
  O  O248  1  0.51189904  0.25943510  0.88130679  1
  O  O249  1  0.50406134  0.75670377  0.37043366  1
  O  O250  1  0.50808311  0.74056450  0.86451420  1
  O  O251  1  0.24160377  0.12870840  0.48775595  1
  O  O252  1  0.24415667  0.13873127  0.99958635  1
  O  O253  1  0.24945079  0.61969525  0.48602251  1
  O  O254  1  0.25395090  0.63562227  0.99348713  1
  O  O255  1  0.74970556  0.13063608  0.48617574  1
  O  O256  1  0.74431092  0.12874022  0.99378331  1
  O  O257  1  0.74726959  0.63401285  0.49513330  1
  O  O258  1  0.74293171  0.62628701  0.99720180  1
  O  O259  1  0.25730992  0.36623598  0.00504672  1
  O  O260  1  0.25317497  0.37773346  0.50761396  1
  O  O261  1  0.26151222  0.86304328  -0.00009226  1
  O  O262  1  0.24533471  0.87726129  0.51145223  1
  O  O263  1  0.75565776  0.37067748  -0.00064721  1
  O  O264  1  0.74695127  0.36081397  0.49078855  1
  O  O265  1  0.75733404  0.86891797  0.00695800  1
  O  O266  1  0.74759750  0.85889985  0.50012471  1
  O  O267  1  0.12158533  0.49545467  0.23588224  1
  O  O268  1  0.13371648  0.48791200  0.75277223  1
  O  O269  1  0.12609788  0.98744403  0.24354041  1
  O  O270  1  0.12701370  0.99414248  0.74829024  1
  O  O271  1  0.63427717  0.49246997  0.25374197  1
  O  O272  1  0.63297320  0.49250207  0.74752272  1
  O  O273  1  0.63731730  0.99916723  0.24265089  1
  O  O274  1  0.63026520  0.99652204  0.74899237  1
  O  O275  1  0.37880081  -0.00123643  0.26428582  1
  O  O276  1  0.37387337  0.00402737  0.76186683  1
  O  O277  1  0.37973101  0.50960629  0.25663683  1
  O  O278  1  0.36872113  0.51307203  0.74902556  1
  O  O279  1  0.86410432  0.00949557  0.24616053  1
  O  O280  1  0.86823235  0.00874031  0.75416324  1
  O  O281  1  0.86932017  0.50910472  0.25328765  1
  O  O282  1  0.85981333  0.49867875  0.75102257  1
  O  O283  1  0.10973509  0.37816582  0.37296077  1
  O  O284  1  0.11945468  0.36936189  0.86868783  1
  O  O285  1  0.11278014  0.88134891  0.36260462  1
  O  O286  1  0.13184242  0.86719861  0.86682015  1
  O  O287  1  0.61360692  0.37788110  0.36266401  1
  O  O288  1  0.61690745  0.36839623  0.86661010  1
  O  O289  1  0.61835876  0.86929250  0.37324366  1
  O  O290  1  0.62819929  0.85818157  0.87564571  1
  O  O291  1  0.38928386  0.13371111  0.11419656  1
  O  O292  1  0.37375697  0.13458307  0.62942421  1
  O  O293  1  0.38789550  0.61992588  0.13196759  1
  O  O294  1  0.37893154  0.62999557  0.63017489  1
  O  O295  1  0.87941604  0.13197553  0.13416595  1
  O  O296  1  0.87899440  0.13081840  0.63120553  1
  O  O297  1  0.88309780  0.62925995  0.13540267  1
  O  O298  1  0.88034716  0.63481604  0.63278895  1
  O  O299  1  0.25943277  0.25420320  0.11680693  1
  O  O300  1  0.26107013  0.26513610  0.62627371  1
  O  O301  1  0.24929474  0.74319836  0.11139264  1
  O  O302  1  0.25944332  0.75717705  0.62822975  1
  O  O303  1  0.75698980  0.25135509  0.11832851  1
  O  O304  1  0.75983939  0.24230536  0.61009341  1
  O  O305  1  0.75440590  0.75320521  0.11988652  1
  O  O306  1  0.75639518  0.74830128  0.61914223  1
  O  O307  1  0.25417722  0.23859114  0.37455806  1
  O  O308  1  0.23742909  0.25700409  0.88243807  1
  O  O309  1  0.25592204  0.73763965  0.37845834  1
  O  O310  1  0.24262740  0.74372831  0.88208061  1
  O  O311  1  0.75385128  0.23882535  0.38548921  1
  O  O312  1  0.74036953  0.24491660  0.87967504  1
  O  O313  1  0.74694771  0.74465886  0.38044584  1
  O  O314  1  0.74228196  0.74146122  0.88299939  1
  O  O315  1  0.00607362  0.12039177  0.00294963  1
  O  O316  1  0.01095908  0.12940641  0.50349315  1
  O  O317  1  0.00202125  0.62319951  0.01290382  1
  O  O318  1  -0.01136484  0.60881478  0.51883024  1
  O  O319  1  0.50603926  0.11649642  0.00433619  1
  O  O320  1  0.49569931  0.11604579  0.49916719  1
  O  O321  1  0.50342286  0.61953633  0.00455727  1
  O  O322  1  0.50996082  0.63015235  0.50746512  1
  O  O323  1  0.49175206  0.37119194  0.48784075  1
  O  O324  1  0.49464743  0.38107349  0.99393979  1
  O  O325  1  0.49919805  0.87873631  0.48868927  1
  O  O326  1  0.48884529  0.88108844  1.00257541  1
  O  O327  1  1.00423396  0.38043542  0.49411645  1
  O  O328  1  0.99176753  0.37481895  0.99273454  1
  O  O329  1  1.00434146  0.87469313  0.48439611  1
  O  O330  1  0.99249119  0.88287748  1.00628534  1
  O  O331  1  0.48881075  0.48840322  0.36997325  1
  O  O332  1  0.50461601  0.49206374  0.88741740  1
  O  O333  1  0.49696048  0.99430839  0.37984753  1
  O  O334  1  0.49086281  1.00208632  0.88494826  1
  O  O335  1  0.99502144  0.48963812  0.38444803  1
  O  O336  1  1.00561245  0.48679558  0.87746481  1
  O  O337  1  0.99622297  0.99003581  0.36764768  1
  O  O338  1  0.99218547  1.00563036  0.88788190  1
  O  O339  1  0.00130375  0.00866140  0.11180386  1
  O  O340  1  -0.00122415  0.01408037  0.62808424  1
  O  O341  1  0.00416094  0.51058947  0.12699907  1
  O  O342  1  -0.00171056  0.50329090  0.62097097  1
  O  O343  1  0.50460049  0.00643022  0.11660374  1
  O  O344  1  0.50262311  -0.00087889  0.61363654  1
  O  O345  1  0.49896728  0.50586571  0.11017609  1
  O  O346  1  0.50171082  0.51424863  0.62774867  1
  O  O347  1  0.25086322  0.36721464  0.23599319  1
  O  O348  1  0.24533409  0.38302603  0.74643433  1
  O  O349  1  0.23712890  0.87386732  0.25657004  1
  O  O350  1  0.23900032  0.87752423  0.73860947  1
  O  O351  1  0.74266764  0.38153516  0.25201093  1
  O  O352  1  0.74081813  0.38783814  0.75581483  1
  O  O353  1  0.75202031  0.88415061  0.24585565  1
  O  O354  1  0.74918775  0.88873480  0.75312222  1
  O  O355  1  0.24275602  0.12448903  0.26418243  1
  O  O356  1  0.26651084  0.12256794  0.74545307  1
  O  O357  1  0.26431551  0.63122778  0.25713264  1
  O  O358  1  0.25568836  0.61884057  0.75587914  1
  O  O359  1  0.75652194  0.12205710  0.25684833  1
  O  O360  1  0.75491895  0.11505064  0.75401468  1
  O  O361  1  0.75651801  0.62049370  0.25475383  1
  O  O362  1  0.74865973  0.61385375  0.75963562  1
  O  O363  1  0.36063113  0.12017328  0.37845986  1
  O  O364  1  0.37746215  0.11766972  0.86589561  1
  O  O365  1  0.36772152  0.61632992  0.36875799  1
  O  O366  1  0.36316146  0.63033943  0.86728384  1
  O  O367  1  0.86985857  0.12439786  0.36332069  1
  O  O368  1  0.87043439  0.12287136  0.86702211  1
  O  O369  1  0.87290925  0.62847425  0.36474063  1
  O  O370  1  0.86041221  0.62892597  0.87845914  1
  O  O371  1  0.13574996  0.38062499  0.12399446  1
  O  O372  1  0.13253129  0.36803217  0.63444430  1
  O  O373  1  0.12163347  0.87632090  0.13953774  1
  O  O374  1  0.12905432  0.87553466  0.63127471  1
  O  O375  1  0.62579823  0.37339827  0.13760623  1
  O  O376  1  0.61617038  0.37600455  0.63763992  1
  O  O377  1  0.63218923  0.88113026  0.12613734  1
  O  O378  1  0.62655720  0.88537433  0.63053086  1
  O  O379  1  0.11349014  0.25017885  0.24099407  1
  O  O380  1  0.12638933  0.25863869  0.75640265  1
  O  O381  1  0.11693973  0.76217815  0.24787408  1
  O  O382  1  0.12442732  0.75855037  0.76079652  1
  O  O383  1  0.61417553  0.25813580  0.24648547  1
  O  O384  1  0.63282848  0.25838705  0.75756369  1
  O  O385  1  0.61485158  0.74919309  0.25839451  1
  O  O386  1  0.61562475  0.74921322  0.75734215  1
  O  O387  1  0.38549045  0.25285506  0.23425517  1
  O  O388  1  0.37270404  0.24004006  0.74598463  1
  O  O389  1  0.38898771  0.74025216  0.25514397  1
  O  O390  1  0.37875961  0.73946031  0.74382310  1
  O  O391  1  0.88035680  0.24384389  0.24377539  1
  O  O392  1  0.86920369  0.23798208  0.74188235  1
  O  O393  1  0.88037364  0.74342407  0.24320584  1
  O  O394  1  0.87615882  0.74619431  0.74709790  1
  O  O395  1  0.37304749  0.48820934  0.49157242  1
  O  O396  1  0.38081371  0.48736575  1.00032066  1
  O  O397  1  0.38302490  0.99731559  0.48850214  1
  O  O398  1  0.38035993  0.98946258  0.98966047  1
  O  O399  1  0.88830305  0.49540229  0.50070377  1
  O  O400  1  0.87614085  0.48683798  1.00391110  1
  O  O401  1  0.86495866  0.99151479  0.50044460  1
  O  O402  1  0.88154251  0.99331372  0.99659608  1
  O  O403  1  0.11978611  0.00635212  -0.00376176  1
  O  O404  1  0.12839038  0.01920994  0.50321663  1
  O  O405  1  0.12168393  0.50260803  0.01285822  1
  O  O406  1  0.10446782  0.50937611  0.49638517  1
  O  O407  1  0.61774459  0.00242378  0.00099504  1
  O  O408  1  0.61476830  -0.00335249  0.50791435  1
  O  O409  1  0.61942498  0.51098511  -0.00331958  1
  O  O410  1  0.63305412  0.51384476  0.49968519  1
  O  O411  1  0.37139843  0.36848519  0.11634090  1
  O  O412  1  0.37047021  0.37311708  0.61815033  1
  O  O413  1  0.37774656  0.87757841  0.11471531  1
  O  O414  1  0.36590900  0.86580250  0.62239452  1
  O  O415  1  0.87335571  0.36834731  0.11772079  1
  O  O416  1  0.87491220  0.35553518  0.63132966  1
  O  O417  1  0.87089091  0.87079882  0.11680414  1
  O  O418  1  0.87180109  0.86114283  0.62755168  1
  O  O419  1  0.13405244  0.12308990  0.38193556  1
  O  O420  1  0.11913490  0.13450120  0.88509467  1
  O  O421  1  0.14572206  0.62002711  0.36588385  1
  O  O422  1  0.13834779  0.63154016  0.87839169  1
  O  O423  1  0.63768033  0.12639157  0.36971991  1
  O  O424  1  0.62662764  0.13218769  0.87655811  1
  O  O425  1  0.62909450  0.63053674  0.38079989  1
  O  O426  1  0.63319868  0.63247663  0.88306671  1
