# generated using pymatgen
data_V85Zn86O256
_symmetry_space_group_name_H-M   'P 1'
_cell_length_a   16.94087565
_cell_length_b   16.94389287
_cell_length_c   16.93973775
_cell_angle_alpha   89.91665289
_cell_angle_beta   90.02548571
_cell_angle_gamma   89.88710273
_symmetry_Int_Tables_number   1
_chemical_formula_structural   V85Zn86O256
_chemical_formula_sum   'V85 Zn86 O256'
_cell_volume   4862.44148407
_cell_formula_units_Z   1
loop_
 _symmetry_equiv_pos_site_id
 _symmetry_equiv_pos_as_xyz
  1  'x, y, z'
loop_
 _atom_site_type_symbol
 _atom_site_label
 _atom_site_symmetry_multiplicity
 _atom_site_fract_x
 _atom_site_fract_y
 _atom_site_fract_z
 _atom_site_occupancy
  V  V0  1  0.00156461  -0.00286841  0.49476607  1
  V  V1  1  0.37840236  0.50605769  0.37125364  1
  V  V2  1  -0.00169521  0.49631240  0.50173352  1
  V  V3  1  0.12242397  0.87178017  0.25672002  1
  V  V4  1  0.62653293  0.37930416  0.24356281  1
  V  V5  1  0.50332067  0.37762400  0.37552950  1
  V  V6  1  0.76003509  0.37442054  0.12565381  1
  V  V7  1  0.49608263  0.11812500  0.61653575  1
  V  V8  1  0.81634416  0.92938165  0.05083227  1
  V  V9  1  0.87339702  0.62660489  0.25165884  1
  V  V10  1  -0.00009094  0.87416011  0.87722447  1
  V  V11  1  0.75284074  0.61989319  0.87749728  1
  V  V12  1  0.37573626  0.61694767  0.75446266  1
  V  V13  1  0.50984709  0.49843464  0.50482380  1
  V  V14  1  0.62300459  0.74820458  0.87715777  1
  V  V15  1  0.00366249  -0.00661100  0.00091150  1
  V  V16  1  0.62295230  -0.00549238  0.62263144  1
  V  V17  1  0.50833635  0.62011403  0.62685463  1
  V  V18  1  0.50324458  0.25153883  0.25222175  1
  V  V19  1  0.24798648  0.12758452  0.37881768  1
  V  V20  1  0.87523340  -0.00123582  0.86735475  1
  V  V21  1  0.49929249  0.61858932  0.13368164  1
  V  V22  1  0.75429117  0.74709765  0.50742776  1
  V  V23  1  0.88051126  0.86896897  0.50559357  1
  V  V24  1  0.37745943  0.74883173  0.12000712  1
  V  V25  1  0.24588340  0.49226697  0.74313520  1
  V  V26  1  0.62502503  0.11906401  0.49469585  1
  V  V27  1  0.12708228  0.87210215  0.74238930  1
  V  V28  1  0.37622790  0.25262307  0.12689039  1
  V  V29  1  0.87493737  0.63195313  0.74738076  1
  V  V30  1  0.74969996  0.75103112  0.00534212  1
  V  V31  1  0.49474577  0.74873222  0.25394010  1
  V  V32  1  -0.00242051  0.62952792  0.62421686  1
  V  V33  1  0.12764781  0.62234742  0.50380370  1
  V  V34  1  0.87513768  0.13160330  0.25053307  1
  V  V35  1  0.25189135  -0.00176829  0.25314116  1
  V  V36  1  0.24728708  0.37838060  0.12800420  1
  V  V37  1  0.62549280  0.24813511  0.88116640  1
  V  V38  1  0.37654615  0.12514543  0.25137275  1
  V  V39  1  0.50164860  0.75010542  0.75440764  1
  V  V40  1  0.26163556  -0.01687336  0.77544055  1
  V  V41  1  0.20446115  0.15950335  0.83793201  1
  V  V42  1  0.62638846  0.61637943  0.00848977  1
  V  V43  1  0.24680778  0.25103319  -0.00020801  1
  V  V44  1  0.12861422  0.00008398  0.12582640  1
  V  V45  1  0.74582286  0.50329093  0.24574201  1
  V  V46  1  0.37418885  0.75308416  0.62729830  1
  V  V47  1  0.12436325  0.25584349  0.36776200  1
  V  V48  1  0.88053956  0.49767090  0.87594925  1
  V  V49  1  0.62685146  0.74927067  0.37788607  1
  V  V50  1  0.50098191  0.38287255  0.87567878  1
  V  V51  1  0.49794779  0.25142823  0.74954836  1
  V  V52  1  0.25368520  0.62861111  0.37249073  1
  V  V53  1  0.87623010  -0.00865227  0.36863198  1
  V  V54  1  0.36888350  0.37859400  0.50282085  1
  V  V55  1  0.75473242  -0.00382848  0.74631985  1
  V  V56  1  0.25121819  0.75495562  0.50445179  1
  V  V57  1  0.13158925  0.12550845  0.00236228  1
  V  V58  1  0.50105824  0.49935855  0.00293846  1
  V  V59  1  -0.00029978  0.37582559  0.36843878  1
  V  V60  1  0.63616548  0.88094784  0.23577012  1
  V  V61  1  0.82806058  0.18105769  0.69101923  1
  V  V62  1  0.25362796  0.61607863  0.87693021  1
  V  V63  1  0.24774118  0.49881045  0.25372263  1
  V  V64  1  0.25997429  0.87915797  0.11919807  1
  V  V65  1  0.13366412  -0.00522248  0.62130219  1
  V  V66  1  0.87454149  0.75482482  0.12028776  1
  V  V67  1  0.37611146  0.12164820  0.75774263  1
  V  V68  1  0.75269989  0.12279962  0.37276296  1
  V  V69  1  0.12683202  0.62524542  0.00157220  1
  V  V70  1  0.12396712  0.75024594  0.87388523  1
  V  V71  1  0.00533468  0.35602963  0.87023716  1
  V  V72  1  0.74713190  0.12135742  0.88279179  1
  V  V73  1  0.75057805  0.49599644  0.73673729  1
  V  V74  1  0.62802162  0.37940522  0.73813626  1
  V  V75  1  0.38047701  0.87978373  0.50403424  1
  V  V76  1  0.00182508  0.62850077  0.12768616  1
  V  V77  1  0.00217464  0.13037841  0.63322600  1
  V  V78  1  0.50431522  0.88397814  0.37875598  1
  V  V79  1  0.37110533  0.25303819  0.62205645  1
  V  V80  1  0.87057227  0.36705929  0.51221877  1
  V  V81  1  0.37288959  0.38373765  -0.00303126  1
  V  V82  1  0.12369117  0.49680958  0.13123905  1
  V  V83  1  0.75430406  0.24674631  0.00696309  1
  V  V84  1  -0.00962848  0.13255108  0.12364679  1
  Zn  Zn85  1  0.25566028  0.75290484  -0.00237399  1
  Zn  Zn86  1  0.87255956  0.49757316  0.37494597  1
  Zn  Zn87  1  0.75619077  0.86882011  0.62680340  1
  Zn  Zn88  1  0.63095379  0.25121309  0.37834043  1
  Zn  Zn89  1  0.49061023  -0.00807453  0.03412455  1
  Zn  Zn90  1  0.24448476  0.25842565  0.49938946  1
  Zn  Zn91  1  0.12058447  0.75372226  0.37975759  1
  Zn  Zn92  1  0.62634591  0.87294425  0.74838403  1
  Zn  Zn93  1  0.12814360  0.48032347  0.62429478  1
  Zn  Zn94  1  0.12563429  0.34226430  0.74954291  1
  Zn  Zn95  1  0.11999503  0.12664655  0.49573475  1
  Zn  Zn96  1  0.51892346  0.12357923  0.12169333  1
  Zn  Zn97  1  -0.00045358  0.49722030  -0.00034089  1
  Zn  Zn98  1  0.40948306  0.94086329  -0.09184480  1
  Zn  Zn99  1  0.74992135  0.62330559  0.37698924  1
  Zn  Zn100  1  0.38009981  0.00338064  0.38303260  1
  Zn  Zn101  1  0.87987429  0.37024457  0.00198742  1
  Zn  Zn102  1  -0.00540202  0.75348628  0.74388488  1
  Zn  Zn103  1  0.00236269  0.25877109  0.24184686  1
  Zn  Zn104  1  0.75216032  0.24932612  0.51018526  1
  Zn  Zn105  1  -0.00669240  0.75942003  0.25652738  1
  Zn  Zn106  1  0.63212309  0.61955782  0.50438547  1
  Zn  Zn107  1  0.18790137  0.18789167  0.18815100  1
  Zn  Zn108  1  0.18912396  0.18251583  0.67077419  1
  Zn  Zn109  1  0.19302576  0.68835415  0.18940278  1
  Zn  Zn110  1  0.18796254  0.68405639  0.68682664  1
  Zn  Zn111  1  0.69436637  0.19166828  0.19379488  1
  Zn  Zn112  1  0.66659601  0.18360297  0.69169031  1
  Zn  Zn113  1  0.68410024  0.69357736  0.18834855  1
  Zn  Zn114  1  0.68980045  0.68242413  0.68795240  1
  Zn  Zn115  1  0.31327345  0.31677960  0.31551507  1
  Zn  Zn116  1  0.31741457  0.31437179  0.81374523  1
  Zn  Zn117  1  0.31588382  0.81298324  0.31478371  1
  Zn  Zn118  1  0.30411340  0.80665785  0.80671004  1
  Zn  Zn119  1  0.81595630  0.31021615  0.31712369  1
  Zn  Zn120  1  0.81128196  0.31690045  0.81700000  1
  Zn  Zn121  1  0.81099047  0.81124846  0.31568769  1
  Zn  Zn122  1  0.80965969  0.81518565  0.81984531  1
  Zn  Zn123  1  0.18467600  0.43857513  0.43552047  1
  Zn  Zn124  1  0.18131867  0.43724454  0.93402316  1
  Zn  Zn125  1  0.19190235  0.93720295  0.43867208  1
  Zn  Zn126  1  0.20556733  0.94144723  0.93235486  1
  Zn  Zn127  1  0.69269730  0.43485264  0.43442517  1
  Zn  Zn128  1  0.69005751  0.43509054  0.93537999  1
  Zn  Zn129  1  0.69264991  0.93585167  0.43554617  1
  Zn  Zn130  1  0.58020642  0.93053245  0.91874525  1
  Zn  Zn131  1  0.34233963  0.07968752  0.04452658  1
  Zn  Zn132  1  0.31214896  0.06262057  0.56465590  1
  Zn  Zn133  1  0.31501908  0.56587551  0.06628675  1
  Zn  Zn134  1  0.31774594  0.56471281  0.56389224  1
  Zn  Zn135  1  0.67094038  0.05683049  0.05812542  1
  Zn  Zn136  1  0.81136760  0.05522613  0.55394917  1
  Zn  Zn137  1  0.81434275  0.56033060  0.06499235  1
  Zn  Zn138  1  0.81712127  0.56133559  0.56202648  1
  Zn  Zn139  1  0.43528407  0.43948939  0.18898260  1
  Zn  Zn140  1  0.43591018  0.43782638  0.68837455  1
  Zn  Zn141  1  0.43903201  0.93522714  0.19486677  1
  Zn  Zn142  1  0.44272996  0.93758348  0.69759996  1
  Zn  Zn143  1  0.93635831  0.44213738  0.18791599  1
  Zn  Zn144  1  0.94293091  0.43731757  0.69040174  1
  Zn  Zn145  1  0.94057617  0.94411047  0.18959714  1
  Zn  Zn146  1  0.94318504  0.93996178  0.68396023  1
  Zn  Zn147  1  0.06190928  0.06316938  0.31190488  1
  Zn  Zn148  1  0.06318032  0.05616283  0.81022532  1
  Zn  Zn149  1  0.06274031  0.56703315  0.31604085  1
  Zn  Zn150  1  0.06291393  0.56138431  0.81094259  1
  Zn  Zn151  1  0.56610354  0.05907362  0.30054464  1
  Zn  Zn152  1  0.55905654  0.06215651  0.81225210  1
  Zn  Zn153  1  0.56600485  0.56403765  0.31421807  1
  Zn  Zn154  1  0.56677904  0.56167631  0.81438481  1
  Zn  Zn155  1  0.43840939  0.18979604  0.43679697  1
  Zn  Zn156  1  0.44008080  0.19326693  0.93952017  1
  Zn  Zn157  1  0.44014498  0.68811372  0.44062853  1
  Zn  Zn158  1  0.43829502  0.68674412  0.94041123  1
  Zn  Zn159  1  0.93945738  0.18784715  0.43920927  1
  Zn  Zn160  1  0.93382251  0.18029177  0.93803093  1
  Zn  Zn161  1  0.94034668  0.68923881  0.43457563  1
  Zn  Zn162  1  0.93862997  0.68615220  0.93874295  1
  Zn  Zn163  1  0.06320410  0.31429705  0.05704823  1
  Zn  Zn164  1  0.06426943  0.31132189  0.56113078  1
  Zn  Zn165  1  0.06916707  0.81284760  0.06749072  1
  Zn  Zn166  1  0.06029121  0.81149338  0.55863550  1
  Zn  Zn167  1  0.56769566  0.30951607  0.06622567  1
  Zn  Zn168  1  0.56015526  0.30715662  0.55985562  1
  Zn  Zn169  1  0.55545918  0.81446635  0.05924102  1
  Zn  Zn170  1  0.56298432  0.80869370  0.56299515  1
  O  O171  1  0.12090923  0.11934926  0.11720823  1
  O  O172  1  0.11624054  0.11373651  0.61708745  1
  O  O173  1  0.12098144  0.62145426  0.12113708  1
  O  O174  1  0.12119288  0.62178201  0.61347453  1
  O  O175  1  0.62981479  0.13816677  0.12290107  1
  O  O176  1  0.61559146  0.11449257  0.61675601  1
  O  O177  1  0.61410808  0.63140249  0.11719261  1
  O  O178  1  0.61224874  0.62383311  0.62496476  1
  O  O179  1  0.38386886  0.38459980  0.38245573  1
  O  O180  1  0.38810201  0.37112610  0.88516130  1
  O  O181  1  0.38565491  0.87513655  0.38503667  1
  O  O182  1  0.30866043  0.90996890  0.85717584  1
  O  O183  1  0.88433592  0.37671388  0.38451600  1
  O  O184  1  0.88565553  0.38200966  0.87746442  1
  O  O185  1  0.87151731  0.88612620  0.38047420  1
  O  O186  1  0.88496917  0.88572999  0.87201248  1
  O  O187  1  0.25254101  0.00751686  0.36750363  1
  O  O188  1  0.22776289  0.03530468  0.86327769  1
  O  O189  1  0.25647836  0.50641155  0.37074530  1
  O  O190  1  0.24412509  0.51185782  0.86712669  1
  O  O191  1  0.76345619  0.01178482  0.38229949  1
  O  O192  1  0.75559556  0.00832824  0.85817681  1
  O  O193  1  0.75250541  0.50298720  0.36112589  1
  O  O194  1  0.76292182  0.50278328  0.87090221  1
  O  O195  1  0.24439720  0.50034590  0.13490717  1
  O  O196  1  0.25207930  0.50358574  0.63942385  1
  O  O197  1  0.24757187  0.99392159  0.14024180  1
  O  O198  1  0.23533389  1.00150248  0.62426603  1
  O  O199  1  0.75200906  0.49296724  0.13703413  1
  O  O200  1  0.75210767  0.50361888  0.63756880  1
  O  O201  1  0.75879682  0.99170894  0.10070778  1
  O  O202  1  0.74433686  1.00029923  0.63264913  1
  O  O203  1  -0.00560293  0.37758161  0.26317244  1
  O  O204  1  0.00140009  0.37425276  0.76607999  1
  O  O205  1  0.01883162  0.87764175  0.24342105  1
  O  O206  1  0.00977552  0.87322186  0.75663544  1
  O  O207  1  0.50771182  0.37289525  0.25410336  1
  O  O208  1  0.50325252  0.37234614  0.75921481  1
  O  O209  1  0.50878217  0.86454087  0.26230322  1
  O  O210  1  0.50539891  0.85256093  0.74222582  1
  O  O211  1  0.49179247  0.13683517  0.25457510  1
  O  O212  1  0.49520352  0.13218730  0.73668640  1
  O  O213  1  0.50666677  0.63248837  0.24228037  1
  O  O214  1  0.49346263  0.62590629  0.74619112  1
  O  O215  1  0.99939179  0.12586677  0.23569910  1
  O  O216  1  1.00285991  0.11477886  0.73274058  1
  O  O217  1  0.99347975  0.62457085  0.23922810  1
  O  O218  1  0.99290242  0.62525492  0.74172193  1
  O  O219  1  0.36350646  0.26553948  0.00603607  1
  O  O220  1  0.37682693  0.26162065  0.50458563  1
  O  O221  1  0.37459331  0.74845121  0.01389644  1
  O  O222  1  0.37057409  0.75504443  0.50917122  1
  O  O223  1  0.85823473  0.24941605  -0.00647915  1
  O  O224  1  0.87510483  0.26276063  0.50118027  1
  O  O225  1  0.86957611  0.74474815  0.01256754  1
  O  O226  1  0.86799868  0.75787890  0.49321512  1
  O  O227  1  0.12747488  0.24676304  0.48572405  1
  O  O228  1  0.13945224  0.24429957  1.00416583  1
  O  O229  1  0.13542508  0.74306833  0.50088201  1
  O  O230  1  0.12787545  0.73919769  0.99505337  1
  O  O231  1  0.62850877  0.23564658  0.49984572  1
  O  O232  1  0.63367034  0.25603019  0.98753542  1
  O  O233  1  0.63364275  0.74664122  0.49436064  1
  O  O234  1  0.63194793  0.73979013  0.99554764  1
  O  O235  1  0.49397646  0.25486245  0.13931645  1
  O  O236  1  0.49047972  0.24049318  0.62822524  1
  O  O237  1  0.49388166  0.74293728  0.13378303  1
  O  O238  1  0.49482653  0.73788211  0.63182121  1
  O  O239  1  1.00628984  0.23701289  0.12246621  1
  O  O240  1  1.00493453  0.22906264  0.62036768  1
  O  O241  1  0.99372009  0.74546291  0.12909076  1
  O  O242  1  1.00426268  0.73442417  0.62453817  1
  O  O243  1  0.00690471  0.25878983  0.37295181  1
  O  O244  1  -0.00415872  0.25789111  0.87967304  1
  O  O245  1  0.00894176  0.74318639  0.36656894  1
  O  O246  1  0.01132200  0.75243506  0.87500765  1
  O  O247  1  0.50176013  0.25861370  0.36589062  1
  O  O248  1  0.50725289  0.25855947  0.87235503  1
  O  O249  1  0.50623705  0.75454593  0.37083741  1
  O  O250  1  0.51066496  0.73767144  0.86681874  1
  O  O251  1  0.25099779  0.12512499  0.48649337  1
  O  O252  1  0.24409576  0.13606804  1.00516308  1
  O  O253  1  0.24574204  0.63063504  0.49491928  1
  O  O254  1  0.24444123  0.62617015  0.99406876  1
  O  O255  1  0.74298425  0.12750053  0.49403514  1
  O  O256  1  0.74399073  0.13042147  0.98606835  1
  O  O257  1  0.75164717  0.63035847  0.49743559  1
  O  O258  1  0.74363617  0.62888325  0.99963338  1
  O  O259  1  0.25438171  0.37303849  0.00218601  1
  O  O260  1  0.26509406  0.37879149  0.49432583  1
  O  O261  1  0.24106653  0.87118507  0.01689337  1
  O  O262  1  0.25971151  0.86081257  0.49555692  1
  O  O263  1  0.75089554  0.36761233  0.00935035  1
  O  O264  1  0.76452115  0.37138467  0.49901386  1
  O  O265  1  0.75751953  0.86515773  -0.00247220  1
  O  O266  1  0.76040179  0.86623018  0.50250089  1
  O  O267  1  0.13374572  0.50746871  0.24239713  1
  O  O268  1  0.14112287  0.50750416  0.74545033  1
  O  O269  1  0.13262412  0.99257426  0.24787942  1
  O  O270  1  0.13496240  0.98902224  0.74371367  1
  O  O271  1  0.63289799  0.49227992  0.25301838  1
  O  O272  1  0.63703540  0.49131939  0.75649571  1
  O  O273  1  0.63097261  0.98027875  0.25403597  1
  O  O274  1  0.63664173  0.99964998  0.73851161  1
  O  O275  1  0.36656059  0.00904717  0.25858246  1
  O  O276  1  0.36148008  0.00759762  0.73785020  1
  O  O277  1  0.36916906  0.49936827  0.26476244  1
  O  O278  1  0.36518763  0.51001454  0.74867851  1
  O  O279  1  0.88450318  0.01213122  0.26102104  1
  O  O280  1  0.86924144  -0.00409369  0.75475262  1
  O  O281  1  0.86710318  0.51130155  0.25021697  1
  O  O282  1  0.86992881  0.50687690  0.75701059  1
  O  O283  1  0.11416855  0.36858184  0.37871231  1
  O  O284  1  0.11070404  0.37370101  0.86955164  1
  O  O285  1  0.13337400  0.87490387  0.35996755  1
  O  O286  1  0.12385337  0.86675211  0.86754871  1
  O  O287  1  0.62018808  0.37349799  0.36575642  1
  O  O288  1  0.61774622  0.36775993  0.86925607  1
  O  O289  1  0.62005335  0.86459123  0.37653569  1
  O  O290  1  0.64000300  0.85094202  0.86581722  1
  O  O291  1  0.35596060  0.13867016  0.14796849  1
  O  O292  1  0.38180367  0.13025017  0.62766539  1
  O  O293  1  0.38622752  0.63407967  0.12627790  1
  O  O294  1  0.38407649  0.63323548  0.63422189  1
  O  O295  1  0.89104145  0.12163559  0.13161779  1
  O  O296  1  0.88354501  0.11990021  0.62578695  1
  O  O297  1  0.88290440  0.63283741  0.13203498  1
  O  O298  1  0.88517972  0.62008602  0.63515405  1
  O  O299  1  0.25283057  0.26072953  0.12072983  1
  O  O300  1  0.26634238  0.24443583  0.61580421  1
  O  O301  1  0.26129315  0.75663616  0.12633202  1
  O  O302  1  0.26149985  0.74145369  0.61665851  1
  O  O303  1  0.74992865  0.26090671  0.11718609  1
  O  O304  1  0.75917989  0.23253169  0.63430608  1
  O  O305  1  0.75719668  0.74513743  0.11292779  1
  O  O306  1  0.74584912  0.74880006  0.61238850  1
  O  O307  1  0.24417927  0.24516941  0.37508487  1
  O  O308  1  0.25912400  0.23943949  0.88447064  1
  O  O309  1  0.24967398  0.74215684  0.38280584  1
  O  O310  1  0.23821685  0.73785499  0.87577693  1
  O  O311  1  0.75055893  0.23623756  0.37908751  1
  O  O312  1  0.74329925  0.24281686  0.87912036  1
  O  O313  1  0.74227354  0.74735230  0.38562023  1
  O  O314  1  0.74923365  0.73906100  0.88810188  1
  O  O315  1  0.00524583  0.11630249  0.00965718  1
  O  O316  1  -0.00169422  0.11307546  0.50753989  1
  O  O317  1  0.00792959  0.62476690  0.01277278  1
  O  O318  1  0.00656591  0.61682127  0.50442576  1
  O  O319  1  0.45349638  0.12683089  0.02611532  1
  O  O320  1  0.50534304  0.12611253  0.50848583  1
  O  O321  1  0.50712780  0.61771555  0.00799853  1
  O  O322  1  0.50110960  0.61596203  0.51027520  1
  O  O323  1  0.49444033  0.38162888  0.49501043  1
  O  O324  1  0.49494141  0.38000210  0.99747802  1
  O  O325  1  0.49203468  0.86642660  0.49163385  1
  O  O326  1  0.50003622  0.87631591  0.98509449  1
  O  O327  1  0.99318818  0.38110867  0.49301141  1
  O  O328  1  0.99933501  0.37783962  0.98710603  1
  O  O329  1  0.99360043  0.88310001  0.49855297  1
  O  O330  1  1.01331028  0.88668629  0.99596793  1
  O  O331  1  0.49371144  0.49875883  0.38121743  1
  O  O332  1  0.50522319  0.48959043  0.88310612  1
  O  O333  1  0.50070482  0.98710878  0.37139238  1
  O  O334  1  0.49695228  0.97582143  0.84437035  1
  O  O335  1  1.00066568  0.49503697  0.38571915  1
  O  O336  1  0.98959852  0.50067694  0.87589930  1
  O  O337  1  0.99283314  1.00584724  0.38613529  1
  O  O338  1  0.99374722  0.99718927  0.88257479  1
  O  O339  1  0.00796212  0.00790208  0.11669327  1
  O  O340  1  0.00958274  0.00524323  0.61382931  1
  O  O341  1  0.00850503  0.50864268  0.12420295  1
  O  O342  1  0.00377583  0.50816582  0.61535587  1
  O  O343  1  0.50040260  0.01191789  0.14663468  1
  O  O344  1  0.50919330  0.00717542  0.63065203  1
  O  O345  1  0.49541486  0.51059154  0.12114201  1
  O  O346  1  0.49296227  0.50745798  0.61620879  1
  O  O347  1  0.25385893  0.39068372  0.24662695  1
  O  O348  1  0.24965828  0.39039094  0.76056058  1
  O  O349  1  0.24570109  0.88247457  0.24726627  1
  O  O350  1  0.23513193  0.87638173  0.73750145  1
  O  O351  1  0.74658444  0.37994785  0.24529664  1
  O  O352  1  0.74074664  0.38353372  0.75442528  1
  O  O353  1  0.73478372  0.86313442  0.24986918  1
  O  O354  1  0.74978045  0.88187908  0.74476960  1
  O  O355  1  0.25284571  0.11875293  0.26197183  1
  O  O356  1  0.25959096  0.11861088  0.74792678  1
  O  O357  1  0.24737545  0.61719796  0.26429170  1
  O  O358  1  0.25783911  0.61834615  0.75695096  1
  O  O359  1  0.76290044  0.12680281  0.25928916  1
  O  O360  1  0.75854788  0.12360091  0.75009810  1
  O  O361  1  0.75593342  0.62024189  0.24748547  1
  O  O362  1  0.75728274  0.61693012  0.75669895  1
  O  O363  1  0.36887640  0.12606459  0.36771998  1
  O  O364  1  0.38546433  0.12848057  0.85680412  1
  O  O365  1  0.36649261  0.61735774  0.38431147  1
  O  O366  1  0.36583460  0.63012425  0.86706783  1
  O  O367  1  0.87159367  0.11836025  0.36979653  1
  O  O368  1  0.86595917  0.10765562  0.88027238  1
  O  O369  1  0.87417897  0.62454753  0.35994820  1
  O  O370  1  0.87223437  0.61747235  0.87011223  1
  O  O371  1  0.12939395  0.39026262  0.11904603  1
  O  O372  1  0.12147122  0.36754989  0.63847695  1
  O  O373  1  0.13643373  0.88149845  0.13625180  1
  O  O374  1  0.11490541  0.88193228  0.63173542  1
  O  O375  1  0.63577699  0.37223155  0.13805440  1
  O  O376  1  0.61642469  0.36891128  0.63929773  1
  O  O377  1  0.62161575  0.86635681  0.13700947  1
  O  O378  1  0.62680605  0.88504586  0.62371179  1
  O  O379  1  0.12278450  0.24825334  0.26184053  1
  O  O380  1  0.15152534  0.22583221  0.76881253  1
  O  O381  1  0.12953289  0.76549173  0.24866871  1
  O  O382  1  0.12331249  0.75376705  0.75644696  1
  O  O383  1  0.61775031  0.25980256  0.25584610  1
  O  O384  1  0.61603645  0.25966184  0.75958238  1
  O  O385  1  0.61548005  0.75497002  0.25986673  1
  O  O386  1  0.61776983  0.74131825  0.75776271  1
  O  O387  1  0.38322118  0.24804379  0.25008571  1
  O  O388  1  0.37937068  0.24478823  0.74113123  1
  O  O389  1  0.38925491  0.75112716  0.24726244  1
  O  O390  1  0.38019735  0.74112205  0.74613767  1
  O  O391  1  0.88313990  0.23662586  0.25466256  1
  O  O392  1  0.87502922  0.24454770  0.75007673  1
  O  O393  1  0.87277810  0.74595018  0.23769942  1
  O  O394  1  0.87429719  0.73588367  0.75853836  1
  O  O395  1  0.38378717  0.49537954  0.49303499  1
  O  O396  1  0.37832274  0.48938155  1.00496961  1
  O  O397  1  0.37013430  0.98384504  0.50255629  1
  O  O398  1  0.37515121  0.98107156  1.00767944  1
  O  O399  1  0.88343956  0.49210873  0.49626074  1
  O  O400  1  0.87752160  0.49822673  0.99119876  1
  O  O401  1  0.88326674  0.99017023  0.49151355  1
  O  O402  1  0.88408734  0.98775389  0.99297053  1
  O  O403  1  0.12302866  0.00735939  0.00428178  1
  O  O404  1  0.11886980  -0.00209247  0.50362752  1
  O  O405  1  0.12505282  0.51260577  0.00789799  1
  O  O406  1  0.11920009  0.50521639  0.50445369  1
  O  O407  1  0.59642815  0.01636280  -0.01265747  1
  O  O408  1  0.63185002  0.01029169  0.50706398  1
  O  O409  1  0.62314144  0.51064796  -0.00344862  1
  O  O410  1  0.61345648  0.49883546  0.49334444  1
  O  O411  1  0.36750643  0.37149185  0.11986722  1
  O  O412  1  0.38238572  0.36566622  0.61587538  1
  O  O413  1  0.36713714  0.86341043  0.13876466  1
  O  O414  1  0.38468875  0.86031482  0.62083856  1
  O  O415  1  0.86508684  0.37843428  0.12342308  1
  O  O416  1  0.88288473  0.37891406  0.61043721  1
  O  O417  1  0.87464140  0.87375156  0.12162726  1
  O  O418  1  0.87682362  0.87789888  0.61030068  1
  O  O419  1  0.13223991  0.13176079  0.37518700  1
  O  O420  1  0.11365793  0.12850137  0.89128267  1
  O  O421  1  0.13558519  0.62344458  0.38889145  1
  O  O422  1  0.12860944  0.63000651  0.88333989  1
  O  O423  1  0.63235098  0.12188307  0.37968721  1
  O  O424  1  0.63457862  0.13751365  0.85947680  1
  O  O425  1  0.62609294  0.63794232  0.37921893  1
  O  O426  1  0.63389425  0.62976086  0.88409355  1
