# generated using pymatgen
data_V85Zn86O256
_symmetry_space_group_name_H-M   'P 1'
_cell_length_a   16.93047007
_cell_length_b   16.92347971
_cell_length_c   16.91250194
_cell_angle_alpha   89.94408151
_cell_angle_beta   90.01104579
_cell_angle_gamma   89.98864630
_symmetry_Int_Tables_number   1
_chemical_formula_structural   V85Zn86O256
_chemical_formula_sum   'V85 Zn86 O256'
_cell_volume   4845.80928084
_cell_formula_units_Z   1
loop_
 _symmetry_equiv_pos_site_id
 _symmetry_equiv_pos_as_xyz
  1  'x, y, z'
loop_
 _atom_site_type_symbol
 _atom_site_label
 _atom_site_symmetry_multiplicity
 _atom_site_fract_x
 _atom_site_fract_y
 _atom_site_fract_z
 _atom_site_occupancy
  V  V0  1  0.87090828  0.89152181  0.00102290  1
  V  V1  1  0.12674522  -0.00414492  0.62407333  1
  V  V2  1  0.74869815  0.36947910  0.62989067  1
  V  V3  1  0.37689822  0.25646897  0.12022912  1
  V  V4  1  0.62794269  0.63325760  0.00023440  1
  V  V5  1  0.24677404  0.50434246  0.74288588  1
  V  V6  1  0.37930139  0.37180641  0.49566252  1
  V  V7  1  0.12346146  0.62309230  0.01096502  1
  V  V8  1  -0.01171815  -0.00762204  0.50030847  1
  V  V9  1  0.86627287  0.75071062  0.11353178  1
  V  V10  1  0.51534047  0.12486513  0.12372598  1
  V  V11  1  0.87839164  0.01090303  0.85535846  1
  V  V12  1  0.87858767  0.62530003  0.24329601  1
  V  V13  1  0.62818758  0.62481751  0.50115658  1
  V  V14  1  -0.00065581  0.74832825  0.24082933  1
  V  V15  1  -0.01390585  0.87432902  0.37642226  1
  V  V16  1  0.49710856  0.86832976  0.36902184  1
  V  V17  1  0.87642920  0.50150654  0.87728420  1
  V  V18  1  0.24995995  0.63103535  0.87962287  1
  V  V19  1  0.62771026  0.11698755  0.49503079  1
  V  V20  1  0.62094300  0.74684961  0.36398133  1
  V  V21  1  0.50194817  0.49534641  0.49353720  1
  V  V22  1  0.62488044  0.50133653  0.12522374  1
  V  V23  1  0.12311169  0.87556958  0.24995424  1
  V  V24  1  0.25325113  0.74647129  0.50919083  1
  V  V25  1  0.49708263  0.25993725  0.74510507  1
  V  V26  1  0.37671181  0.86977674  0.50838906  1
  V  V27  1  0.25108576  0.12613020  0.87452893  1
  V  V28  1  0.74873199  0.24701872  0.49888029  1
  V  V29  1  0.49700545  0.63010720  0.62401563  1
  V  V30  1  0.12668667  0.24809074  0.37357661  1
  V  V31  1  0.74829950  0.37124202  0.12722288  1
  V  V32  1  0.25452097  0.37271662  0.62508944  1
  V  V33  1  0.00025293  0.37635554  0.87386506  1
  V  V34  1  0.37331865  0.49556596  0.87806923  1
  V  V35  1  0.75282274  0.62450230  0.37746295  1
  V  V36  1  0.50780475  0.75303154  0.74876711  1
  V  V37  1  0.12288306  0.25142240  0.87270765  1
  V  V38  1  0.87606623  0.49980244  0.37516355  1
  V  V39  1  0.25164240  0.12361439  0.37349364  1
  V  V40  1  0.12672682  0.37922397  0.23870339  1
  V  V41  1  0.12592637  0.75059674  0.88034968  1
  V  V42  1  0.24950991  0.50547139  0.24458559  1
  V  V43  1  0.12596373  0.74721282  0.37784308  1
  V  V44  1  0.00039147  0.88156073  0.87929379  1
  V  V45  1  0.25643665  0.24700042  0.50465608  1
  V  V46  1  0.12247874  0.38067406  0.74254062  1
  V  V47  1  0.11804664  -0.00057325  0.11935648  1
  V  V48  1  0.87412289  0.24077643  0.12587802  1
  V  V49  1  0.62348008  0.88430193  0.24330257  1
  V  V50  1  0.62427880  0.49773411  0.63243997  1
  V  V51  1  0.74326216  0.12147645  0.86724418  1
  V  V52  1  0.75135021  0.87510567  0.64278060  1
  V  V53  1  0.00404756  0.62104961  0.62669137  1
  V  V54  1  0.49511181  0.12409547  0.62667770  1
  V  V55  1  0.50966348  0.87580349  0.87172214  1
  V  V56  1  0.25377091  0.25957910  -0.00271387  1
  V  V57  1  0.87440815  0.37272407  0.50532525  1
  V  V58  1  0.37927375  0.74988707  0.13319273  1
  V  V59  1  0.51461196  0.00474344  0.00384380  1
  V  V60  1  0.37451312  0.63249161  0.74783820  1
  V  V61  1  0.00363806  0.50152376  0.01385216  1
  V  V62  1  0.00043792  0.37419962  0.37448522  1
  V  V63  1  0.37651944  -0.00253306  0.37390565  1
  V  V64  1  0.61500641  0.25243655  0.37929487  1
  V  V65  1  0.24809241  0.87062390  0.11786450  1
  V  V66  1  0.00100312  0.24784250  0.25302855  1
  V  V67  1  0.87324092  0.12088473  0.28407512  1
  V  V68  1  0.61684238  0.37550988  0.25618461  1
  V  V69  1  0.75290344  0.76414038  0.49719390  1
  V  V70  1  -0.00375446  0.24316380  0.73525718  1
  V  V71  1  -0.00196966  0.75133686  0.75003133  1
  V  V72  1  0.00917565  0.49847940  0.50407465  1
  V  V73  1  0.62422832  -0.00752797  0.63912607  1
  V  V74  1  0.62610514  0.26215122  0.87612793  1
  V  V75  1  0.74903894  0.49678151  0.75273697  1
  V  V76  1  0.37700325  0.12520405  0.24468518  1
  V  V77  1  0.11625883  0.12346268  -0.00179262  1
  V  V78  1  0.37332088  0.86833482  -0.00340400  1
  V  V79  1  0.75187814  0.63179228  0.87887431  1
  V  V80  1  0.37657864  0.00253568  0.87684092  1
  V  V81  1  0.87506796  0.37354097  0.00249443  1
  V  V82  1  0.12404046  0.12051336  0.50475593  1
  V  V83  1  0.49672337  0.49692843  0.00051116  1
  V  V84  1  0.24930731  -0.00041137  0.24716642  1
  Zn  Zn85  1  0.84091726  0.17661532  0.68425306  1
  Zn  Zn86  1  0.38454660  0.62818917  0.25810472  1
  Zn  Zn87  1  0.87415521  0.62586873  0.74790065  1
  Zn  Zn88  1  0.63295951  0.75660646  0.87548145  1
  Zn  Zn89  1  0.75409500  0.00706810  0.25286402  1
  Zn  Zn90  1  0.25254794  0.38176796  0.11766660  1
  Zn  Zn91  1  0.37308760  0.12923560  0.74620547  1
  Zn  Zn92  1  0.49993653  0.37897224  0.87292612  1
  Zn  Zn93  1  0.25178376  -0.00132553  0.74881629  1
  Zn  Zn94  1  0.49664223  0.25257704  0.25306283  1
  Zn  Zn95  1  0.50517125  0.63246028  0.12933648  1
  Zn  Zn96  1  0.37669803  0.49824455  0.37243318  1
  Zn  Zn97  1  0.75109668  0.49856010  0.25217464  1
  Zn  Zn98  1  0.50170089  -0.00381481  0.50015691  1
  Zn  Zn99  1  0.25456878  0.87137918  0.63127029  1
  Zn  Zn100  1  0.87883635  0.75335472  0.61732606  1
  Zn  Zn101  1  0.12892730  0.61991301  0.50399848  1
  Zn  Zn102  1  0.73953666  0.88339865  0.11580392  1
  Zn  Zn103  1  0.25350621  0.62286816  0.37760429  1
  Zn  Zn104  1  -0.00489348  0.11833797  0.12565803  1
  Zn  Zn105  1  0.12848363  0.87566273  0.75064130  1
  Zn  Zn106  1  0.74203994  0.24105748  0.00237442  1
  Zn  Zn107  1  0.18926736  0.18793830  0.18269347  1
  Zn  Zn108  1  0.18411949  0.18766476  0.68696775  1
  Zn  Zn109  1  0.19180374  0.69091079  0.18751325  1
  Zn  Zn110  1  0.18221186  0.68864258  0.68884827  1
  Zn  Zn111  1  0.69192332  0.18849342  0.19730056  1
  Zn  Zn112  1  0.67330531  0.18635001  0.69046811  1
  Zn  Zn113  1  0.69334735  0.68892329  0.18666681  1
  Zn  Zn114  1  0.68841560  0.68665155  0.68781692  1
  Zn  Zn115  1  0.31248164  0.31414083  0.31121958  1
  Zn  Zn116  1  0.31452373  0.31320385  0.81031666  1
  Zn  Zn117  1  0.30764964  0.81209854  0.31456643  1
  Zn  Zn118  1  0.31533954  0.81301701  0.81202370  1
  Zn  Zn119  1  0.80998827  0.30783378  0.31637270  1
  Zn  Zn120  1  0.81208830  0.31332208  0.81429177  1
  Zn  Zn121  1  0.80811430  0.81102894  0.30734818  1
  Zn  Zn122  1  0.81821199  0.81376773  0.81596388  1
  Zn  Zn123  1  0.19006446  0.43477184  0.43076034  1
  Zn  Zn124  1  0.18566790  0.44254918  0.93295524  1
  Zn  Zn125  1  0.18850705  0.93210276  0.43754644  1
  Zn  Zn126  1  0.18857358  0.93947026  0.93675506  1
  Zn  Zn127  1  0.68738647  0.43675330  0.43953925  1
  Zn  Zn128  1  0.68787711  0.43901274  0.94146719  1
  Zn  Zn129  1  0.68912557  0.94096586  0.42810039  1
  Zn  Zn130  1  0.69381993  0.94299978  0.93033419  1
  Zn  Zn131  1  0.31298695  0.06447362  0.05905824  1
  Zn  Zn132  1  0.31323879  0.05733453  0.56125758  1
  Zn  Zn133  1  0.30993598  0.56519599  0.06220471  1
  Zn  Zn134  1  0.31534628  0.56139473  0.56191753  1
  Zn  Zn135  1  0.79910500  0.06144415  0.06103244  1
  Zn  Zn136  1  0.80313632  0.04860108  0.55489466  1
  Zn  Zn137  1  0.81192400  0.56199656  0.06318905  1
  Zn  Zn138  1  0.81684437  0.56352472  0.56444593  1
  Zn  Zn139  1  0.43689018  0.44060764  0.18668411  1
  Zn  Zn140  1  0.43331219  0.44135123  0.68483806  1
  Zn  Zn141  1  0.44043213  0.93623542  0.18586076  1
  Zn  Zn142  1  0.43872988  0.93983142  0.69080824  1
  Zn  Zn143  1  0.93543497  0.43433719  0.18887656  1
  Zn  Zn144  1  0.93433474  0.43726339  0.68736172  1
  Zn  Zn145  1  0.93110619  0.94125841  0.18946499  1
  Zn  Zn146  1  0.93901546  0.93408367  0.68334890  1
  Zn  Zn147  1  0.05949089  0.06073192  0.31542347  1
  Zn  Zn148  1  0.06073230  0.06416777  0.80898412  1
  Zn  Zn149  1  0.06366722  0.56255936  0.31042833  1
  Zn  Zn150  1  0.06227124  0.56362055  0.81519936  1
  Zn  Zn151  1  0.56433504  0.06236246  0.31516439  1
  Zn  Zn152  1  0.56054437  0.06765335  0.81338041  1
  Zn  Zn153  1  0.56190173  0.56392619  0.30949771  1
  Zn  Zn154  1  0.56316223  0.56521672  0.81392911  1
  Zn  Zn155  1  0.43907837  0.18515350  0.43906160  1
  Zn  Zn156  1  0.44102383  0.18945084  0.93775450  1
  Zn  Zn157  1  0.43670079  0.68521399  0.43734196  1
  Zn  Zn158  1  0.44038292  0.68671781  0.93911312  1
  Zn  Zn159  1  0.91814625  0.16465440  0.49637004  1
  Zn  Zn160  1  0.93523850  0.18922776  0.93463116  1
  Zn  Zn161  1  0.93796354  0.68727427  0.43744413  1
  Zn  Zn162  1  0.94031389  0.68793781  0.94006361  1
  Zn  Zn163  1  0.06076467  0.30869636  0.06165145  1
  Zn  Zn164  1  0.06884944  0.31386738  0.56156578  1
  Zn  Zn165  1  0.05776613  0.81287891  0.05845767  1
  Zn  Zn166  1  0.06508946  0.81252919  0.56257999  1
  Zn  Zn167  1  0.56112249  0.31302611  0.05975807  1
  Zn  Zn168  1  0.56437022  0.31263690  0.56633333  1
  Zn  Zn169  1  0.55864079  0.81464823  0.05889004  1
  Zn  Zn170  1  0.56565934  0.81212932  0.55889348  1
  O  O171  1  0.12426890  0.11698511  0.11628342  1
  O  O172  1  0.12900013  0.11788201  0.61092210  1
  O  O173  1  0.12906189  0.63352127  0.10942468  1
  O  O174  1  0.10983194  0.62732472  0.62301147  1
  O  O175  1  0.61464767  0.13266750  0.13239059  1
  O  O176  1  0.61704462  0.11201854  0.61984897  1
  O  O177  1  0.63035944  0.61784339  0.11895895  1
  O  O178  1  0.61979994  0.61732143  0.62044262  1
  O  O179  1  0.37040449  0.37624501  0.39097384  1
  O  O180  1  0.37371316  0.39213381  0.87109228  1
  O  O181  1  0.38091263  0.87722594  0.37846207  1
  O  O182  1  0.38376423  0.88178845  0.88141949  1
  O  O183  1  0.88043416  0.38047361  0.38014686  1
  O  O184  1  0.87927216  0.38130600  0.88315295  1
  O  O185  1  0.88778446  0.86804156  0.36972970  1
  O  O186  1  0.87962998  0.88829004  0.88071658  1
  O  O187  1  0.25579891  0.00313550  0.36843230  1
  O  O188  1  0.25778512  0.00972019  0.87431394  1
  O  O189  1  0.25088279  0.50139601  0.36119508  1
  O  O190  1  0.25531547  0.51083097  0.86547361  1
  O  O191  1  0.73854849  0.01220673  0.36390575  1
  O  O192  1  0.76100912  0.01269471  0.86696106  1
  O  O193  1  0.75833026  0.50501960  0.37544592  1
  O  O194  1  0.75484217  0.50518747  0.86935144  1
  O  O195  1  0.25319523  0.49813356  0.13757657  1
  O  O196  1  0.25281290  0.49485876  0.63694855  1
  O  O197  1  0.24271350  0.99174829  0.12774114  1
  O  O198  1  0.24208032  0.99721839  0.62765561  1
  O  O199  1  0.74043946  0.49099132  0.12647413  1
  O  O200  1  0.74418742  0.49637838  0.63334688  1
  O  O201  1  0.75803194  0.99391565  0.13845357  1
  O  O202  1  0.73779153  0.98446392  0.62441017  1
  O  O203  1  0.00711561  0.36908228  0.25369477  1
  O  O204  1  0.00775589  0.37300174  0.75281202  1
  O  O205  1  0.00328328  0.86923716  0.25887701  1
  O  O206  1  0.00224805  0.86838331  0.76038876  1
  O  O207  1  0.51324969  0.37342188  0.24458958  1
  O  O208  1  0.49503315  0.36432187  0.74809999  1
  O  O209  1  0.50714697  0.87378369  0.25972017  1
  O  O210  1  0.49378611  0.86525089  0.75917779  1
  O  O211  1  0.49269358  0.12562216  0.24163915  1
  O  O212  1  0.49786001  0.13483787  0.74334602  1
  O  O213  1  0.49640270  0.61996144  0.24099698  1
  O  O214  1  0.49295742  0.62986678  0.74412543  1
  O  O215  1  0.99050700  0.13256141  0.25219456  1
  O  O216  1  1.00357572  0.14410976  0.74889876  1
  O  O217  1  0.98803311  0.63345909  0.25435890  1
  O  O218  1  0.99912659  0.63128184  0.74474710  1
  O  O219  1  0.36548013  0.24585943  0.00560068  1
  O  O220  1  0.36393852  0.25344089  0.49792944  1
  O  O221  1  0.37892472  0.76362528  0.00497745  1
  O  O222  1  0.36616665  0.75772262  0.49605825  1
  O  O223  1  0.87549051  0.25806694  0.00859198  1
  O  O224  1  0.86506348  0.26583260  0.49508677  1
  O  O225  1  0.88294946  0.76014862  0.00856881  1
  O  O226  1  0.85748760  0.74579800  0.49872128  1
  O  O227  1  0.13303567  0.24074679  0.49495779  1
  O  O228  1  0.13161401  0.24383159  0.99276149  1
  O  O229  1  0.13285866  0.74834193  0.49238537  1
  O  O230  1  0.11713379  0.73968213  0.98825181  1
  O  O231  1  0.62927440  0.24443453  0.49694434  1
  O  O232  1  0.62251074  0.25125818  0.98209498  1
  O  O233  1  0.63487147  0.74347923  0.49114713  1
  O  O234  1  0.62053137  0.73771117  0.99860354  1
  O  O235  1  0.49320232  0.24193727  0.12269877  1
  O  O236  1  0.50756001  0.24190857  0.63834729  1
  O  O237  1  0.48266795  0.75326522  0.12172992  1
  O  O238  1  0.50714401  0.73839885  0.63027806  1
  O  O239  1  0.99273275  0.24833349  0.13745380  1
  O  O240  1  1.00373805  0.25527963  0.63521560  1
  O  O241  1  0.99320164  0.75669081  0.13717777  1
  O  O242  1  0.99924397  0.74625065  0.63276983  1
  O  O243  1  0.00715284  0.25635879  0.36259641  1
  O  O244  1  0.00554492  0.25905166  0.86810118  1
  O  O245  1  0.00507200  0.75827055  0.36880088  1
  O  O246  1  0.00570919  0.75763699  0.86951712  1
  O  O247  1  0.51008120  0.25236821  0.37617385  1
  O  O248  1  0.50835889  0.25477357  0.86833960  1
  O  O249  1  0.50975234  0.75583144  0.38039280  1
  O  O250  1  0.50188690  0.75939179  0.86905813  1
  O  O251  1  0.24621312  0.13030951  0.49519312  1
  O  O252  1  0.24228454  0.13415556  0.98935768  1
  O  O253  1  0.24773721  0.63019870  0.49990860  1
  O  O254  1  0.23626557  0.62017817  0.99008049  1
  O  O255  1  0.73507330  0.13324252  0.50573584  1
  O  O256  1  0.75711556  0.12805783  0.97546639  1
  O  O257  1  0.74507535  0.62954528  0.49653797  1
  O  O258  1  0.74173545  0.61835250  0.99014342  1
  O  O259  1  0.24214829  0.36412061  -0.00221358  1
  O  O260  1  0.25283943  0.36719805  0.50673125  1
  O  O261  1  0.25994559  0.88047962  0.00634950  1
  O  O262  1  0.26038970  0.86521215  0.50046114  1
  O  O263  1  0.75456732  0.37267734  0.01302210  1
  O  O264  1  0.75578670  0.36976165  0.50901332  1
  O  O265  1  0.76581031  0.87830389  -0.00407730  1
  O  O266  1  0.74155158  0.86531870  0.50216591  1
  O  O267  1  0.13527566  0.49206726  0.25172556  1
  O  O268  1  0.13469578  0.49304722  0.75621798  1
  O  O269  1  0.13011086  0.99565459  0.24309668  1
  O  O270  1  0.12268009  1.00190736  0.73465766  1
  O  O271  1  0.62986147  0.49244986  0.24283833  1
  O  O272  1  0.63105780  0.50423779  0.74011218  1
  O  O273  1  0.61684736  0.98551996  0.24731052  1
  O  O274  1  0.62124524  1.00216259  0.73782104  1
  O  O275  1  0.36963608  0.00391804  0.25329167  1
  O  O276  1  0.37666601  0.00500478  0.76505410  1
  O  O277  1  0.36274162  0.49865904  0.25173845  1
  O  O278  1  0.36844813  0.51204176  0.75684222  1
  O  O279  1  0.88331425  0.01905638  0.25949856  1
  O  O280  1  0.87894018  0.00113968  0.75672890  1
  O  O281  1  0.87432922  0.50741947  0.25449193  1
  O  O282  1  0.86719974  0.50211811  0.75889191  1
  O  O283  1  0.11948780  0.36626096  0.36574241  1
  O  O284  1  0.12123649  0.37180812  0.86277484  1
  O  O285  1  0.12098849  0.86307889  0.36812730  1
  O  O286  1  0.11781412  0.86943663  0.87708433  1
  O  O287  1  0.62899191  0.36920240  0.36685279  1
  O  O288  1  0.62544459  0.36611685  0.87365434  1
  O  O289  1  0.61469715  0.86575041  0.36708198  1
  O  O290  1  0.61443459  0.87543266  0.87932994  1
  O  O291  1  0.37895572  0.13317738  0.12964862  1
  O  O292  1  0.39048115  0.11624003  0.62437751  1
  O  O293  1  0.36983983  0.64489330  0.12137081  1
  O  O294  1  0.38634621  0.61974991  0.63398880  1
  O  O295  1  0.87654813  0.13670094  0.11705557  1
  O  O296  1  0.87627966  0.12392946  0.59585282  1
  O  O297  1  0.86960435  0.63553853  0.13135300  1
  O  O298  1  0.88692345  0.63075262  0.62725050  1
  O  O299  1  0.25780824  0.25126526  0.11339132  1
  O  O300  1  0.24564247  0.25834745  0.61666314  1
  O  O301  1  0.25773718  0.76450189  0.12501510  1
  O  O302  1  0.24534418  0.75011199  0.61366360  1
  O  O303  1  0.75575060  0.25423051  0.12281457  1
  O  O304  1  0.74527351  0.25584061  0.61990171  1
  O  O305  1  0.76325021  0.76193608  0.12883735  1
  O  O306  1  0.74516309  0.76173878  0.61617908  1
  O  O307  1  0.24563569  0.24365860  0.38182553  1
  O  O308  1  0.24480693  0.24615671  0.87836614  1
  O  O309  1  0.24115353  0.74737919  0.38383505  1
  O  O310  1  0.24235370  0.73940730  0.87047244  1
  O  O311  1  0.73790962  0.25649157  0.39253209  1
  O  O312  1  0.73846715  0.24794222  0.87530426  1
  O  O313  1  0.74309230  0.74619802  0.38243673  1
  O  O314  1  0.75134505  0.73627505  0.86944725  1
  O  O315  1  0.01321426  0.13264846  0.00133440  1
  O  O316  1  0.01359382  0.10157121  0.48835525  1
  O  O317  1  0.01377585  0.61585622  -0.00446312  1
  O  O318  1  0.00053304  0.61520973  0.50632125  1
  O  O319  1  0.49813042  0.11208192  0.00604050  1
  O  O320  1  0.50915470  0.12361090  0.50886577  1
  O  O321  1  0.50928276  0.61640670  0.00509798  1
  O  O322  1  0.50640323  0.61800719  0.50856173  1
  O  O323  1  0.49070640  0.38233514  0.51192295  1
  O  O324  1  0.50486897  0.39215344  0.99569652  1
  O  O325  1  0.49311956  0.87292819  0.48921071  1
  O  O326  1  0.49319992  0.88707814  0.99385945  1
  O  O327  1  0.99381719  0.37894071  0.49742249  1
  O  O328  1  0.99754049  0.38085596  0.99425234  1
  O  O329  1  1.00377314  0.87856487  0.48626909  1
  O  O330  1  0.98958127  0.87457857  0.98615643  1
  O  O331  1  0.50525145  0.50007413  0.39101312  1
  O  O332  1  0.49131800  0.50220769  0.88041758  1
  O  O333  1  0.49244619  0.98990490  0.37626617  1
  O  O334  1  0.49593411  0.99742897  0.88357198  1
  O  O335  1  0.99443731  0.49444757  0.38108858  1
  O  O336  1  0.99407759  0.49381673  0.88139773  1
  O  O337  1  1.00857107  0.98108722  0.38358986  1
  O  O338  1  0.98899328  0.99594159  0.86975114  1
  O  O339  1  0.01387980  -0.00050545  0.13010072  1
  O  O340  1  0.00818788  -0.01313227  0.60709000  1
  O  O341  1  -0.00297823  0.49468621  0.11331855  1
  O  O342  1  -0.00542269  0.50643702  0.61579061  1
  O  O343  1  0.49554930  0.00723366  0.11094761  1
  O  O344  1  0.51038216  0.00340427  0.62366457  1
  O  O345  1  0.51185598  0.49976723  0.11854769  1
  O  O346  1  0.50809814  0.50826198  0.62176792  1
  O  O347  1  0.24224592  0.38387560  0.24762136  1
  O  O348  1  0.24549446  0.38187915  0.74349718  1
  O  O349  1  0.24182099  0.88028700  0.24188075  1
  O  O350  1  0.24790852  0.87872907  0.74970601  1
  O  O351  1  0.74343404  0.37253698  0.24001269  1
  O  O352  1  0.75364468  0.38738055  0.74464986  1
  O  O353  1  0.73044453  0.87452351  0.25269374  1
  O  O354  1  0.74529753  0.86635715  0.74117911  1
  O  O355  1  0.25656516  0.11958776  0.25268082  1
  O  O356  1  0.25114497  0.12708013  0.76217184  1
  O  O357  1  0.25071894  0.61437557  0.25091281  1
  O  O358  1  0.25505119  0.62134393  0.75366249  1
  O  O359  1  0.77283215  0.13388267  0.25618536  1
  O  O360  1  0.75724009  0.14139602  0.76051042  1
  O  O361  1  0.76281002  0.62471623  0.25761300  1
  O  O362  1  0.75172810  0.61400691  0.75647936  1
  O  O363  1  0.37131543  0.11864941  0.36724825  1
  O  O364  1  0.36747269  0.11899412  0.87753914  1
  O  O365  1  0.37219710  0.61793976  0.37445969  1
  O  O366  1  0.36713761  0.62078343  0.87021024  1
  O  O367  1  0.88117324  0.13274271  0.38143339  1
  O  O368  1  0.87312216  0.11489271  0.87145468  1
  O  O369  1  0.87174537  0.61913394  0.36848962  1
  O  O370  1  0.86910592  0.61794493  0.87698797  1
  O  O371  1  0.12755805  0.36808946  0.13614003  1
  O  O372  1  0.13587215  0.37534267  0.63525351  1
  O  O373  1  0.13037617  0.87960554  0.12508654  1
  O  O374  1  0.13016926  0.88219020  0.62704660  1
  O  O375  1  0.63153952  0.37958114  0.13006983  1
  O  O376  1  0.63863600  0.38423882  0.62206309  1
  O  O377  1  0.62121634  0.86608733  0.13986617  1
  O  O378  1  0.62980272  0.88558214  0.62335708  1
  O  O379  1  0.11973578  0.25363716  0.25216177  1
  O  O380  1  0.11653334  0.25926208  0.75344350  1
  O  O381  1  0.11757651  0.75413144  0.25447550  1
  O  O382  1  0.11476287  0.75043034  0.76263219  1
  O  O383  1  0.62422320  0.25731623  0.26236908  1
  O  O384  1  0.60952755  0.24955419  0.76312730  1
  O  O385  1  0.62866279  0.75262567  0.26105056  1
  O  O386  1  0.61145449  0.74163312  0.75535889  1
  O  O387  1  0.37560715  0.24328952  0.24250385  1
  O  O388  1  0.39153398  0.24678084  0.75643239  1
  O  O389  1  0.36876695  0.75153226  0.23658405  1
  O  O390  1  0.38514352  0.73780315  0.75472892  1
  O  O391  1  0.88319446  0.24214295  0.24791078  1
  O  O392  1  0.89028249  0.25847220  0.74875679  1
  O  O393  1  0.88084667  0.74459192  0.24185041  1
  O  O394  1  0.88836101  0.74818322  0.75070034  1
  O  O395  1  0.38540310  0.49074480  0.50045223  1
  O  O396  1  0.38314254  0.50951295  0.99159380  1
  O  O397  1  0.37637955  0.98986502  0.48945795  1
  O  O398  1  0.37984627  0.99319059  0.99030707  1
  O  O399  1  0.88184082  0.48984178  0.49477135  1
  O  O400  1  0.88253807  0.49422761  0.99726177  1
  O  O401  1  0.88991603  0.99275067  0.49660746  1
  O  O402  1  0.87606661  0.99273790  0.99243432  1
  O  O403  1  0.13024457  0.01046967  0.00743170  1
  O  O404  1  0.12585145  0.00286420  0.50735424  1
  O  O405  1  0.11830032  0.51278628  -0.00342944  1
  O  O406  1  0.11257471  0.49666392  0.49405129  1
  O  O407  1  0.61323935  -0.00305072  -0.00252272  1
  O  O408  1  0.62224422  0.00586471  0.50741783  1
  O  O409  1  0.62020036  0.50852165  0.00767186  1
  O  O410  1  0.62072662  0.50350159  0.51161183  1
  O  O411  1  0.37468894  0.36056118  0.12795977  1
  O  O412  1  0.36148876  0.37889571  0.61611744  1
  O  O413  1  0.36871259  0.86887963  0.11871972  1
  O  O414  1  0.37724474  0.88045269  0.61176829  1
  O  O415  1  0.86718946  0.36326938  0.12485157  1
  O  O416  1  0.86105227  0.38088387  0.61713499  1
  O  O417  1  0.87956399  0.87272417  0.11072150  1
  O  O418  1  0.85651642  0.87222743  0.62830761  1
  O  O419  1  0.13284599  0.12747692  0.38215894  1
  O  O420  1  0.13091052  0.12905280  0.87991811  1
  O  O421  1  0.12323699  0.63760382  0.37673174  1
  O  O422  1  0.13188008  0.63271632  0.88052461  1
  O  O423  1  0.61668884  0.13574773  0.38598212  1
  O  O424  1  0.63869538  0.13274844  0.86874976  1
  O  O425  1  0.63230723  0.62965172  0.37966057  1
  O  O426  1  0.63421174  0.62476282  0.88390425  1
