# generated using pymatgen
data_V85Zn86O256
_symmetry_space_group_name_H-M   'P 1'
_cell_length_a   16.92564416
_cell_length_b   16.92128154
_cell_length_c   16.92731460
_cell_angle_alpha   89.94741818
_cell_angle_beta   90.02365256
_cell_angle_gamma   89.98709484
_symmetry_Int_Tables_number   1
_chemical_formula_structural   V85Zn86O256
_chemical_formula_sum   'V85 Zn86 O256'
_cell_volume   4848.04109089
_cell_formula_units_Z   1
loop_
 _symmetry_equiv_pos_site_id
 _symmetry_equiv_pos_as_xyz
  1  'x, y, z'
loop_
 _atom_site_type_symbol
 _atom_site_label
 _atom_site_symmetry_multiplicity
 _atom_site_fract_x
 _atom_site_fract_y
 _atom_site_fract_z
 _atom_site_occupancy
  V  V0  1  0.74863137  0.74979515  0.49450087  1
  V  V1  1  0.36865749  0.74631665  0.11493594  1
  V  V2  1  0.12627577  0.38007495  0.75096662  1
  V  V3  1  0.74357684  0.38912749  0.12819074  1
  V  V4  1  0.75149917  0.37472098  0.62248902  1
  V  V5  1  0.37758917  0.25084045  0.62707227  1
  V  V6  1  0.50496878  0.12254602  0.62615288  1
  V  V7  1  0.75254759  0.75292135  0.00189362  1
  V  V8  1  0.25116149  0.24964050  0.00295037  1
  V  V9  1  0.62456525  0.12907220  0.49906562  1
  V  V10  1  0.25236316  0.00321453  0.24593590  1
  V  V11  1  0.24692002  0.24370426  0.50042348  1
  V  V12  1  0.87612158  0.12459782  0.74610986  1
  V  V13  1  0.50174398  0.50292974  0.49994342  1
  V  V14  1  0.62878721  0.61981648  0.00426219  1
  V  V15  1  0.50197235  0.12144817  0.12939331  1
  V  V16  1  0.50217873  0.61832189  0.12734949  1
  V  V17  1  0.87475770  0.37881930  0.49581808  1
  V  V18  1  0.12437142  0.37723789  0.24477898  1
  V  V19  1  0.87356310  0.00177048  0.87573876  1
  V  V20  1  0.50221193  0.00142593  0.50161863  1
  V  V21  1  0.50888532  0.36831530  0.87599205  1
  V  V22  1  0.24828330  0.12456785  0.37232296  1
  V  V23  1  0.50228527  0.49989929  0.00170111  1
  V  V24  1  0.49882087  0.24642987  0.25617012  1
  V  V25  1  0.00257848  0.50729376  0.49705610  1
  V  V26  1  0.87374916  0.87474532  0.00340303  1
  V  V27  1  0.62019644  0.75482773  0.37131791  1
  V  V28  1  0.87149363  0.74468951  0.62242051  1
  V  V29  1  0.74716948  0.88054337  0.62122457  1
  V  V30  1  0.62288740  0.62661560  0.50162306  1
  V  V31  1  -0.00258742  0.37700117  0.37505666  1
  V  V32  1  0.87861863  0.50208038  0.87307532  1
  V  V33  1  0.24554862  0.00503327  0.75082517  1
  V  V34  1  0.36859052  0.62130969  0.25020660  1
  V  V35  1  0.87646565  0.37669571  0.00077784  1
  V  V36  1  0.75881155  0.50314340  0.74550163  1
  V  V37  1  -0.01161309  0.74649728  0.75286601  1
  V  V38  1  -0.00163305  0.62693965  0.62655509  1
  V  V39  1  0.37959992  0.74667711  0.62628924  1
  V  V40  1  0.12401033  0.25133867  0.87736304  1
  V  V41  1  0.74523738  0.00232444  0.74412166  1
  V  V42  1  0.00425052  0.88238466  0.37393100  1
  V  V43  1  0.37411704  0.37473060  0.49794494  1
  V  V44  1  0.50228185  0.37551950  0.37646776  1
  V  V45  1  0.74640774  0.25287919  0.48786516  1
  V  V46  1  0.14029512  0.63054755  -0.02292142  1
  V  V47  1  0.88256117  0.24656979  0.61834802  1
  V  V48  1  0.24883679  0.87062310  0.11661611  1
  V  V49  1  0.14945147  0.84233996  0.76774140  1
  V  V50  1  0.36630570  0.61891502  0.75285299  1
  V  V51  1  0.12886667  0.73535521  0.38279570  1
  V  V52  1  0.62236552  0.87589059  0.74752953  1
  V  V53  1  0.74247911  0.13184991  0.87176942  1
  V  V54  1  0.86621927  0.10583522  0.24852898  1
  V  V55  1  0.00094442  0.87278475  0.87139490  1
  V  V56  1  0.62312051  0.38520146  0.24866988  1
  V  V57  1  0.12526979  0.50611294  0.62620170  1
  V  V58  1  0.74080248  0.25342249  -0.00238707  1
  V  V59  1  0.86805227  0.51186543  0.36167514  1
  V  V60  1  0.24814753  0.87838849  0.62330299  1
  V  V61  1  0.37380034  0.00354992  0.36811167  1
  V  V62  1  0.88124321  0.74294545  0.13077546  1
  V  V63  1  0.63647185  -0.03874049  0.16530903  1
  V  V64  1  0.24654290  0.37558222  0.63128684  1
  V  V65  1  0.74710201  0.11082103  0.36844141  1
  V  V66  1  0.12075430  0.24561845  0.37822750  1
  V  V67  1  0.37876832  0.12477029  0.75462888  1
  V  V68  1  0.12336086  0.12562453  0.00088699  1
  V  V69  1  0.37310511  0.87616639  0.49801861  1
  V  V70  1  0.12273131  -0.00231899  0.12463766  1
  V  V71  1  0.62277428  0.50275305  0.62793303  1
  V  V72  1  0.49367949  0.75758354  0.24987781  1
  V  V73  1  0.01524724  0.61800894  0.12790884  1
  V  V74  1  0.62695071  0.11800118  0.00479151  1
  V  V75  1  0.31680905  0.55700152  0.42551306  1
  V  V76  1  0.50548952  0.73542776  0.74839343  1
  V  V77  1  0.24921321  0.50008020  0.24255204  1
  V  V78  1  0.37579233  0.37452848  0.00351706  1
  V  V79  1  0.86853284  0.24974865  0.12914733  1
  V  V80  1  0.36767459  0.50077489  0.87297328  1
  V  V81  1  0.87781404  0.88429439  0.49567903  1
  V  V82  1  -0.00537684  0.12362679  0.12504508  1
  V  V83  1  0.75536127  0.62611301  0.87094066  1
  V  V84  1  0.00130499  0.24511353  0.74715339  1
  Zn  Zn85  1  0.37388434  0.24269904  0.13085625  1
  Zn  Zn86  1  -0.00007116  0.37528945  0.87530198  1
  Zn  Zn87  1  0.68864934  0.56480450  0.19107575  1
  Zn  Zn88  1  0.24542655  0.37547027  0.12348882  1
  Zn  Zn89  1  0.00081495  0.74495429  0.25501291  1
  Zn  Zn90  1  0.00709784  0.01360206  0.50261872  1
  Zn  Zn91  1  0.49909622  0.87361335  0.87559312  1
  Zn  Zn92  1  0.37856236  -0.00519941  0.87871109  1
  Zn  Zn93  1  0.12655989  0.86893981  0.25043462  1
  Zn  Zn94  1  0.50415287  -0.00690899  0.00001723  1
  Zn  Zn95  1  0.62621113  0.74902382  0.87506162  1
  Zn  Zn96  1  0.11642000  0.01237620  0.62520664  1
  Zn  Zn97  1  0.24761200  0.73891892  0.50065926  1
  Zn  Zn98  1  0.63213782  0.36931023  0.75550302  1
  Zn  Zn99  1  0.01185378  0.49959469  0.00323308  1
  Zn  Zn100  1  0.37798560  0.87398396  -0.00258007  1
  Zn  Zn101  1  0.75168588  0.63036776  0.35517738  1
  Zn  Zn102  1  0.25349284  0.12366416  0.87963311  1
  Zn  Zn103  1  0.50074743  0.88143865  0.36763550  1
  Zn  Zn104  1  0.51129133  0.24573415  0.75611379  1
  Zn  Zn105  1  -0.00170097  -0.00020405  -0.00228958  1
  Zn  Zn106  1  -0.00294421  0.24788647  0.24971170  1
  Zn  Zn107  1  0.18594489  0.18728022  0.18922858  1
  Zn  Zn108  1  0.19275576  0.19241248  0.69373430  1
  Zn  Zn109  1  0.18596558  0.68774504  0.19297092  1
  Zn  Zn110  1  0.19118510  0.69030185  0.70100562  1
  Zn  Zn111  1  0.68184131  0.19575649  0.19087840  1
  Zn  Zn112  1  0.68806590  0.19089631  0.68056487  1
  Zn  Zn113  1  0.70954551  0.75435379  0.21006547  1
  Zn  Zn114  1  0.68953756  0.68576357  0.68577202  1
  Zn  Zn115  1  0.31552233  0.31560455  0.31368234  1
  Zn  Zn116  1  0.31624930  0.31189346  0.81636716  1
  Zn  Zn117  1  0.30680119  0.81269786  0.31154507  1
  Zn  Zn118  1  0.31793914  0.80925544  0.81348442  1
  Zn  Zn119  1  0.80912206  0.31619303  0.30918860  1
  Zn  Zn120  1  0.81350164  0.31366708  0.81086084  1
  Zn  Zn121  1  0.81315608  0.84862200  0.30641732  1
  Zn  Zn122  1  0.81252928  0.81427068  0.81295195  1
  Zn  Zn123  1  0.17857096  0.42880339  0.44360708  1
  Zn  Zn124  1  0.18729355  0.44236267  0.93871322  1
  Zn  Zn125  1  0.18243924  0.93936869  0.43984836  1
  Zn  Zn126  1  0.18978740  0.93907263  0.93670764  1
  Zn  Zn127  1  0.68653972  0.44024166  0.43175616  1
  Zn  Zn128  1  0.69049346  0.44116151  0.93859534  1
  Zn  Zn129  1  0.68266768  0.93784295  0.43612737  1
  Zn  Zn130  1  0.68894630  0.93645166  0.93290988  1
  Zn  Zn131  1  0.31677344  0.06106065  0.06137657  1
  Zn  Zn132  1  0.31135861  0.06318248  0.56305222  1
  Zn  Zn133  1  0.30697927  0.56257594  0.05953714  1
  Zn  Zn134  1  0.31542514  0.56132514  0.58974573  1
  Zn  Zn135  1  0.80153303  0.05607691  0.06715153  1
  Zn  Zn136  1  0.81622601  0.06515799  0.55894236  1
  Zn  Zn137  1  0.82073660  0.56658455  0.05987739  1
  Zn  Zn138  1  0.81274738  0.56477650  0.55570759  1
  Zn  Zn139  1  0.43251358  0.43861884  0.19052684  1
  Zn  Zn140  1  0.44157240  0.43564023  0.68859284  1
  Zn  Zn141  1  0.43854577  0.94066578  0.17868122  1
  Zn  Zn142  1  0.43652893  0.93830420  0.68938724  1
  Zn  Zn143  1  0.93775014  0.43952275  0.18722293  1
  Zn  Zn144  1  0.94029426  0.43408250  0.68571447  1
  Zn  Zn145  1  0.94005770  0.93200082  0.18595688  1
  Zn  Zn146  1  0.93620995  0.93648099  0.68641942  1
  Zn  Zn147  1  0.06088369  0.06249753  0.31075068  1
  Zn  Zn148  1  0.06458038  0.06211032  0.81016686  1
  Zn  Zn149  1  0.06287953  0.56328501  0.30874689  1
  Zn  Zn150  1  0.06023238  0.56571552  0.81004411  1
  Zn  Zn151  1  0.56416330  0.06571947  0.31735751  1
  Zn  Zn152  1  0.56475358  0.05950331  0.81514871  1
  Zn  Zn153  1  0.55674617  0.56632890  0.31840152  1
  Zn  Zn154  1  0.56657611  0.55684327  0.81703514  1
  Zn  Zn155  1  0.43384118  0.18850553  0.43429186  1
  Zn  Zn156  1  0.44095741  0.18563783  0.94227945  1
  Zn  Zn157  1  0.44220099  0.69233924  0.44335424  1
  Zn  Zn158  1  0.44015477  0.68742193  0.93351649  1
  Zn  Zn159  1  0.92799084  0.18857018  0.42706707  1
  Zn  Zn160  1  0.93412007  0.18878780  0.93704880  1
  Zn  Zn161  1  0.94023358  0.69135385  0.43732198  1
  Zn  Zn162  1  0.94409294  0.68480766  0.94215411  1
  Zn  Zn163  1  0.05798087  0.31108737  0.06448840  1
  Zn  Zn164  1  0.06244865  0.17558437  0.55966713  1
  Zn  Zn165  1  0.06520152  0.80653071  0.05547250  1
  Zn  Zn166  1  0.06525575  0.81775948  0.56249569  1
  Zn  Zn167  1  0.56308972  0.30964347  0.06793747  1
  Zn  Zn168  1  0.56476840  0.31272800  0.56593123  1
  Zn  Zn169  1  0.55910085  0.80371001  0.06086106  1
  Zn  Zn170  1  0.56102948  0.81563846  0.56466417  1
  O  O171  1  0.11709546  0.11870960  0.12114882  1
  O  O172  1  0.12392887  0.12811980  0.63738840  1
  O  O173  1  0.11674907  0.62589636  0.12337588  1
  O  O174  1  0.12012746  0.61213036  0.63399245  1
  O  O175  1  0.61794284  0.13463765  0.11575801  1
  O  O176  1  0.61850232  0.12435503  0.61039278  1
  O  O177  1  0.61389920  0.62183699  0.11713796  1
  O  O178  1  0.63060759  0.61091989  0.61829790  1
  O  O179  1  0.38825107  0.37167357  0.38502213  1
  O  O180  1  0.38614422  0.37851650  0.88560363  1
  O  O181  1  0.37430730  0.88308919  0.38313458  1
  O  O182  1  0.37749348  0.87266058  0.87854713  1
  O  O183  1  0.87927436  0.38493573  0.37556137  1
  O  O184  1  0.87450365  0.38167818  0.88460079  1
  O  O185  1  0.88972435  0.86761680  0.38239641  1
  O  O186  1  0.88031317  0.88184790  0.88230792  1
  O  O187  1  0.25314787  0.00541293  0.36756699  1
  O  O188  1  0.25448708  0.00424115  0.86582219  1
  O  O189  1  0.25184159  0.49555492  0.37612455  1
  O  O190  1  0.26927882  0.48647638  0.87034709  1
  O  O191  1  0.74877638  0.01192996  0.37798861  1
  O  O192  1  0.75567388  0.00919462  0.86548884  1
  O  O193  1  0.76369142  0.50709382  0.37788450  1
  O  O194  1  0.75945335  0.50449417  0.86630344  1
  O  O195  1  0.25344313  0.49501005  0.13839082  1
  O  O196  1  0.23887132  0.48660549  0.62001522  1
  O  O197  1  0.24420098  0.99600046  0.13042410  1
  O  O198  1  0.25148283  0.99369581  0.63243136  1
  O  O199  1  0.75401953  0.49353903  0.12254793  1
  O  O200  1  0.74818330  0.49699420  0.62951994  1
  O  O201  1  0.72202519  1.00145202  0.12824188  1
  O  O202  1  0.75596816  0.99173440  0.63060457  1
  O  O203  1  0.00531856  0.37604806  0.25923171  1
  O  O204  1  0.00715869  0.36272256  0.75027843  1
  O  O205  1  0.00266933  0.87178623  0.26251110  1
  O  O206  1  -0.00208925  0.86693268  0.76171987  1
  O  O207  1  0.50235886  0.37265508  0.25791787  1
  O  O208  1  0.50163918  0.37457992  0.76663084  1
  O  O209  1  0.48785046  0.86091711  0.24914327  1
  O  O210  1  0.51032658  0.86775685  0.74547003  1
  O  O211  1  0.50970301  0.13903758  0.24727970  1
  O  O212  1  0.49757555  0.12427540  0.74172621  1
  O  O213  1  0.48679735  0.62692534  0.24475382  1
  O  O214  1  0.50447322  0.63290467  0.75199091  1
  O  O215  1  0.98482648  0.12451024  0.24454523  1
  O  O216  1  0.99307419  0.13784353  0.75672268  1
  O  O217  1  1.00326209  0.62707088  0.23396404  1
  O  O218  1  0.99344966  0.62988656  0.73597734  1
  O  O219  1  0.36724716  0.25553779  0.00253756  1
  O  O220  1  0.36761024  0.25470144  0.50637470  1
  O  O221  1  0.37708322  0.74474956  0.01238556  1
  O  O222  1  0.37333187  0.75790348  0.50820917  1
  O  O223  1  0.86647779  0.25779881  0.00926810  1
  O  O224  1  0.86806823  0.25914559  0.50306977  1
  O  O225  1  0.87191422  0.75655392  0.00254042  1
  O  O226  1  0.86440137  0.75649516  0.50339290  1
  O  O227  1  0.13160731  0.24913195  0.48607007  1
  O  O228  1  0.13077593  0.24767971  0.99716469  1
  O  O229  1  0.12959061  0.75226045  0.48999999  1
  O  O230  1  0.12498826  0.73072756  0.99819778  1
  O  O231  1  0.63474642  0.24234250  0.50492310  1
  O  O232  1  0.63699909  0.24460492  1.00123622  1
  O  O233  1  0.62747457  0.74320208  0.49984476  1
  O  O234  1  0.63545269  0.73778021  0.99857812  1
  O  O235  1  0.49718325  0.24186685  0.13573708  1
  O  O236  1  0.49392642  0.23818144  0.62268898  1
  O  O237  1  0.48981897  0.73599305  0.13290009  1
  O  O238  1  0.48780293  0.75642561  0.63251673  1
  O  O239  1  0.98697487  0.24231124  0.12732272  1
  O  O240  1  0.98818269  0.25110737  0.63072743  1
  O  O241  1  0.99467347  0.74131375  0.12466969  1
  O  O242  1  0.98812789  0.74494042  0.62340992  1
  O  O243  1  0.00448256  0.25918414  0.37070537  1
  O  O244  1  0.00492768  0.25309990  0.86794425  1
  O  O245  1  0.01139676  0.75644778  0.37526405  1
  O  O246  1  -0.01069113  0.75713831  0.86384438  1
  O  O247  1  0.49883072  0.25575391  0.36475687  1
  O  O248  1  0.49844710  0.26502204  0.87801430  1
  O  O249  1  0.50178768  0.75339452  0.36800423  1
  O  O250  1  0.50653711  0.75098226  0.86242679  1
  O  O251  1  0.25407842  0.13722024  0.49300538  1
  O  O252  1  0.24397231  0.13312041  1.00163120  1
  O  O253  1  0.26648176  0.61455526  0.49323467  1
  O  O254  1  0.24140574  0.62390852  0.99266876  1
  O  O255  1  0.74506524  0.13104365  0.49010179  1
  O  O256  1  0.74622931  0.13364084  0.99320255  1
  O  O257  1  0.73850135  0.63373402  0.49728206  1
  O  O258  1  0.74542871  0.62892286  0.99375128  1
  O  O259  1  0.25767195  0.36821412  0.00203531  1
  O  O260  1  0.25286661  0.36282723  0.50697317  1
  O  O261  1  0.25040993  0.87752257  0.01329974  1
  O  O262  1  0.26199853  0.87748641  0.50681398  1
  O  O263  1  0.75605277  0.37092683  0.00595607  1
  O  O264  1  0.75345226  0.37080086  0.50107816  1
  O  O265  1  0.75960136  0.86495945  -0.00853409  1
  O  O266  1  0.75362752  0.87069109  0.50407883  1
  O  O267  1  0.13635463  0.48925385  0.26013927  1
  O  O268  1  0.11547195  0.48709486  0.74325438  1
  O  O269  1  0.13121870  0.99932464  0.23728109  1
  O  O270  1  0.13899731  0.99677067  0.74945554  1
  O  O271  1  0.61862374  0.49297186  0.25195495  1
  O  O272  1  0.63580375  0.49574644  0.74243353  1
  O  O273  1  0.62047504  0.98421442  0.26219642  1
  O  O274  1  0.63789760  0.99358261  0.74957416  1
  O  O275  1  0.36942863  -0.00421502  0.26009149  1
  O  O276  1  0.36688807  0.01022136  0.74981724  1
  O  O277  1  0.36498621  0.50722658  0.25587020  1
  O  O278  1  0.38810176  0.51252681  0.75571371  1
  O  O279  1  0.86948386  0.00609324  0.23945996  1
  O  O280  1  0.86441723  0.00377460  0.75423309  1
  O  O281  1  0.87530782  0.50002898  0.26349630  1
  O  O282  1  0.86641825  0.49448506  0.75525147  1
  O  O283  1  0.11581333  0.36629290  0.36848815  1
  O  O284  1  0.12399839  0.36962518  0.86865002  1
  O  O285  1  0.11438107  0.86932060  0.37420767  1
  O  O286  1  0.11747331  0.87937898  0.86565685  1
  O  O287  1  0.61187557  0.37923942  0.36829524  1
  O  O288  1  0.61258191  0.38125987  0.87749601  1
  O  O289  1  0.61560914  0.85930623  0.38833740  1
  O  O290  1  0.63036478  0.86989650  0.85780542  1
  O  O291  1  0.39673354  0.12001940  0.12418095  1
  O  O292  1  0.38132820  0.13092376  0.63431803  1
  O  O293  1  0.37661258  0.62865772  0.13268795  1
  O  O294  1  0.38426110  0.63260285  0.63947350  1
  O  O295  1  0.87101350  0.13074106  0.12985733  1
  O  O296  1  0.86717144  0.13563984  0.63362594  1
  O  O297  1  0.88856440  0.63853285  0.11765769  1
  O  O298  1  0.87879080  0.63729654  0.61896472  1
  O  O299  1  0.25285917  0.25051674  0.11619737  1
  O  O300  1  0.25602833  0.25710182  0.61777174  1
  O  O301  1  0.25770437  0.75882073  0.13459315  1
  O  O302  1  0.26305988  0.75408861  0.62304938  1
  O  O303  1  0.75347748  0.25989888  0.11712971  1
  O  O304  1  0.76154806  0.25602427  0.61253416  1
  O  O305  1  0.76847611  0.74481648  0.10721948  1
  O  O306  1  0.75304242  0.75527037  0.61418301  1
  O  O307  1  0.24489907  0.24389862  0.37957384  1
  O  O308  1  0.24456765  0.24919294  0.88781558  1
  O  O309  1  0.23566311  0.75342017  0.38052682  1
  O  O310  1  0.21616218  0.76380800  0.80132658  1
  O  O311  1  0.75292459  0.24758852  0.38516576  1
  O  O312  1  0.75836138  0.24324928  0.88455535  1
  O  O313  1  0.74018438  0.75224037  0.38677649  1
  O  O314  1  0.75262815  0.74120582  0.88219292  1
  O  O315  1  0.00353680  0.12365856  0.00644218  1
  O  O316  1  -0.01187446  0.12685062  0.49455741  1
  O  O317  1  0.00985085  0.62139460  0.00990471  1
  O  O318  1  -0.00421312  0.61822257  0.51264124  1
  O  O319  1  0.51181955  0.12379512  0.00910308  1
  O  O320  1  0.50571460  0.12220942  0.50273008  1
  O  O321  1  0.50832211  0.62206667  0.00669376  1
  O  O322  1  0.51216056  0.61816052  0.49957254  1
  O  O323  1  0.49623007  0.38022494  0.49530976  1
  O  O324  1  0.49638187  0.37758828  0.99484610  1
  O  O325  1  0.48790110  0.88502309  0.50337170  1
  O  O326  1  0.50007701  0.87360106  0.99680360  1
  O  O327  1  0.99295461  0.38502447  0.48321183  1
  O  O328  1  0.98923975  0.37810389  0.99963725  1
  O  O329  1  0.99154909  0.87029028  0.48844160  1
  O  O330  1  0.99535681  0.87518960  0.98628574  1
  O  O331  1  0.50140540  0.49305817  0.39110257  1
  O  O332  1  0.49428808  0.49021625  0.88333254  1
  O  O333  1  0.48898791  1.00192067  0.38164614  1
  O  O334  1  0.49865527  0.99383859  0.87646163  1
  O  O335  1  0.99225640  0.49873040  0.37978081  1
  O  O336  1  0.98668704  0.49824540  0.87240299  1
  O  O337  1  1.00465761  0.98601962  0.37734072  1
  O  O338  1  0.99153238  0.99319191  0.87391986  1
  O  O339  1  0.00741072  0.00410097  0.12203728  1
  O  O340  1  0.00311698  -0.01269059  0.61712074  1
  O  O341  1  -0.00548290  0.51430726  0.12218865  1
  O  O342  1  0.00323402  0.50681742  0.61828637  1
  O  O343  1  0.52701239  0.00321859  0.13233827  1
  O  O344  1  0.49170048  0.01424794  0.61626945  1
  O  O345  1  0.49014463  0.51146313  0.11883293  1
  O  O346  1  0.50989969  0.49155630  0.61211876  1
  O  O347  1  0.24295361  0.38070132  0.25032172  1
  O  O348  1  0.24262113  0.36547834  0.74080729  1
  O  O349  1  0.24763369  0.88788869  0.24104311  1
  O  O350  1  0.25422756  0.89013903  0.74114649  1
  O  O351  1  0.73725778  0.37341505  0.24019864  1
  O  O352  1  0.75213283  0.38382110  0.74125760  1
  O  O353  1  0.73173172  0.86138333  0.23869343  1
  O  O354  1  0.74647909  0.88221200  0.74083287  1
  O  O355  1  0.24894276  0.11254499  0.25484636  1
  O  O356  1  0.26176041  0.12151649  0.75446935  1
  O  O357  1  0.25971256  0.61640838  0.25118312  1
  O  O358  1  0.26785616  0.61416601  0.74317224  1
  O  O359  1  0.74855990  0.13002620  0.26140356  1
  O  O360  1  0.75289215  0.12038275  0.75387284  1
  O  O361  1  0.73918361  0.64780030  0.24399799  1
  O  O362  1  0.74872033  0.61614497  0.75799554  1
  O  O363  1  0.36024270  0.11723631  0.37750210  1
  O  O364  1  0.37836066  0.12784084  0.86320610  1
  O  O365  1  0.37698994  0.62233746  0.37152240  1
  O  O366  1  0.38024651  0.61736474  0.86230099  1
  O  O367  1  0.85665704  0.12837776  0.36070306  1
  O  O368  1  0.86501480  0.12155499  0.86754831  1
  O  O369  1  0.87381697  0.61569846  0.37750978  1
  O  O370  1  0.86461429  0.61588937  0.88246676  1
  O  O371  1  0.12308082  0.36855800  0.14057785  1
  O  O372  1  0.13351673  0.38379649  0.63546071  1
  O  O373  1  0.12888246  0.88100023  0.12510526  1
  O  O374  1  0.14292530  0.86610198  0.63953271  1
  O  O375  1  0.63241720  0.37806715  0.13146902  1
  O  O376  1  0.63512654  0.38801681  0.62140458  1
  O  O377  1  0.62084024  0.86614566  0.13385967  1
  O  O378  1  0.63829132  0.87203655  0.63210099  1
  O  O379  1  0.12329393  0.25630729  0.26146908  1
  O  O380  1  0.11847046  0.25921450  0.75744439  1
  O  O381  1  0.12383929  0.75129531  0.26557947  1
  O  O382  1  0.09476701  0.75127539  0.73049939  1
  O  O383  1  0.60820506  0.26838244  0.24660265  1
  O  O384  1  0.62363942  0.25713409  0.74155846  1
  O  O385  1  0.60416479  0.74076773  0.26312565  1
  O  O386  1  0.62020246  0.75601417  0.74636889  1
  O  O387  1  0.39234728  0.25737518  0.24791118  1
  O  O388  1  0.38109359  0.24301579  0.74446157  1
  O  O389  1  0.37665850  0.73973158  0.24624270  1
  O  O390  1  0.38463302  0.73670186  0.74611928  1
  O  O391  1  0.87120114  0.24735554  0.23724224  1
  O  O392  1  0.88209110  0.24721044  0.74096470  1
  O  O393  1  0.87917700  0.75976773  0.23121260  1
  O  O394  1  0.87905681  0.75541146  0.73736629  1
  O  O395  1  0.37762950  0.50097985  0.49751874  1
  O  O396  1  0.38032330  0.49347576  0.99320371  1
  O  O397  1  0.38105465  0.99641216  0.49118485  1
  O  O398  1  0.38304188  0.99568405  0.99939697  1
  O  O399  1  0.88418014  0.49585307  0.49317094  1
  O  O400  1  0.87510563  0.49019442  0.99086195  1
  O  O401  1  0.87397978  0.98595781  0.49979832  1
  O  O402  1  0.87178485  0.99256602  0.99637787  1
  O  O403  1  0.12480635  0.00571472  0.01048541  1
  O  O404  1  0.12322336  -0.00096888  0.51017786  1
  O  O405  1  0.12521021  0.51642544  -0.00579618  1
  O  O406  1  0.11027582  0.49453607  0.50970705  1
  O  O407  1  0.62870594  0.01422856  -0.00694441  1
  O  O408  1  0.60859377  0.00694288  0.49474947  1
  O  O409  1  0.62045669  0.51208013  -0.00355062  1
  O  O410  1  0.61999309  0.50719985  0.50468349  1
  O  O411  1  0.37588653  0.37316954  0.11169251  1
  O  O412  1  0.36859004  0.37218028  0.62050154  1
  O  O413  1  0.36703913  0.86418854  0.12413506  1
  O  O414  1  0.36682130  0.86953937  0.62044179  1
  O  O415  1  0.86802549  0.37000133  0.11955653  1
  O  O416  1  0.87087806  0.36905002  0.61592209  1
  O  O417  1  0.88692696  0.86359811  0.10858781  1
  O  O418  1  0.86362603  0.86379346  0.61676569  1
  O  O419  1  0.13648514  0.13206027  0.36701458  1
  O  O420  1  0.12611762  0.13343242  0.88281646  1
  O  O421  1  0.12097682  0.63589856  0.37844853  1
  O  O422  1  0.12635468  0.62712784  0.87626708  1
  O  O423  1  0.63607739  0.12668394  0.38579809  1
  O  O424  1  0.63793646  0.12681202  0.88003799  1
  O  O425  1  0.62487919  0.63597968  0.38496081  1
  O  O426  1  0.63942698  0.62416540  0.88175120  1
