# generated using pymatgen
data_V85Zn86O256
_symmetry_space_group_name_H-M   'P 1'
_cell_length_a   16.92391612
_cell_length_b   16.93499275
_cell_length_c   16.93961302
_cell_angle_alpha   89.94410335
_cell_angle_beta   90.01998987
_cell_angle_gamma   90.02326791
_symmetry_Int_Tables_number   1
_chemical_formula_structural   V85Zn86O256
_chemical_formula_sum   'V85 Zn86 O256'
_cell_volume   4854.99844471
_cell_formula_units_Z   1
loop_
 _symmetry_equiv_pos_site_id
 _symmetry_equiv_pos_as_xyz
  1  'x, y, z'
loop_
 _atom_site_type_symbol
 _atom_site_label
 _atom_site_symmetry_multiplicity
 _atom_site_fract_x
 _atom_site_fract_y
 _atom_site_fract_z
 _atom_site_occupancy
  V  V0  1  0.50626927  0.62572004  0.11811710  1
  V  V1  1  0.50432626  0.00634120  0.00145779  1
  V  V2  1  0.25392401  0.75541621  0.49787254  1
  V  V3  1  0.11601384  0.01130997  0.11971626  1
  V  V4  1  0.49985234  0.12455085  0.62575758  1
  V  V5  1  0.24131497  0.37984562  0.12296533  1
  V  V6  1  0.01566800  0.36999628  0.36823099  1
  V  V7  1  0.74903592  0.62425869  0.89029555  1
  V  V8  1  0.74007428  0.73857266  0.50193656  1
  V  V9  1  0.13066397  0.49847820  0.62699535  1
  V  V10  1  0.75179152  0.50541016  0.25055225  1
  V  V11  1  0.88615602  0.24625822  0.13305138  1
  V  V12  1  0.50440188  0.50403996  -0.00585301  1
  V  V13  1  0.62095114  0.13176682  -0.01239766  1
  V  V14  1  0.61712497  0.50775908  0.62039453  1
  V  V15  1  0.24240065  0.50113736  0.24199665  1
  V  V16  1  0.75013464  0.49945951  0.75085170  1
  V  V17  1  0.50168732  0.74139676  0.74943737  1
  V  V18  1  -0.00286987  0.61090241  0.12518760  1
  V  V19  1  0.00429476  0.62308600  0.62519782  1
  V  V20  1  0.36840894  0.13228792  0.24884841  1
  V  V21  1  0.00450769  0.37658929  0.87871798  1
  V  V22  1  0.74654324  0.25271276  -0.00469773  1
  V  V23  1  0.37770965  0.74837502  0.62650077  1
  V  V24  1  0.24811785  0.00092126  0.75236613  1
  V  V25  1  -0.00327550  0.25020082  0.74813894  1
  V  V26  1  0.50944328  0.24699585  0.75660149  1
  V  V27  1  0.75158156  0.12318219  0.36761690  1
  V  V28  1  0.37346038  0.00241448  0.87674040  1
  V  V29  1  0.87255488  0.87228904  0.50000711  1
  V  V30  1  0.25252312  0.37419695  0.62537024  1
  V  V31  1  0.37522721  0.87661274  0.00102638  1
  V  V32  1  0.37504991  0.12662573  0.75207164  1
  V  V33  1  0.62444878  0.87296822  0.75189269  1
  V  V34  1  0.38311757  0.24790137  0.12774560  1
  V  V35  1  0.86573222  0.87407570  0.00103367  1
  V  V36  1  0.37871501  0.37652698  -0.00447278  1
  V  V37  1  0.74884051  0.36926836  0.12964395  1
  V  V38  1  0.74980613  0.87344970  0.62572391  1
  V  V39  1  0.74504418  0.89239901  0.14375591  1
  V  V40  1  0.12270604  0.74684820  0.87895184  1
  V  V41  1  0.86880812  -0.00277740  0.36752855  1
  V  V42  1  0.12262396  0.12996887  0.49824780  1
  V  V43  1  0.24783595  0.74877405  0.00017492  1
  V  V44  1  0.24762903  -0.00252016  0.24902619  1
  V  V45  1  0.50756244  0.75454433  0.24263999  1
  V  V46  1  0.12009498  0.87216876  0.24621211  1
  V  V47  1  -0.00258822  -0.00266723  0.49897315  1
  V  V48  1  0.87634944  0.74724413  0.62459791  1
  V  V49  1  0.25387098  0.62493066  0.37237537  1
  V  V50  1  -0.00600302  0.01278583  -0.00237988  1
  V  V51  1  0.87512897  0.62313717  0.75353943  1
  V  V52  1  0.86508966  0.74637693  0.12457359  1
  V  V53  1  -0.00911419  0.74275604  0.24834905  1
  V  V54  1  0.53243846  0.11237212  0.15636017  1
  V  V55  1  0.88121419  0.36681530  0.50178539  1
  V  V56  1  0.24092288  0.24712689  -0.00289612  1
  V  V57  1  0.61642315  0.37034515  0.24718470  1
  V  V58  1  0.87697006  0.50472904  0.37463846  1
  V  V59  1  0.25752762  0.49738538  0.75567160  1
  V  V60  1  0.24621742  0.12330363  0.37679509  1
  V  V61  1  0.75705327  -0.00340711  0.75658545  1
  V  V62  1  0.87356294  0.12787895  0.74294408  1
  V  V63  1  0.75336663  0.36926399  0.62521427  1
  V  V64  1  0.49981890  0.38000562  0.37756302  1
  V  V65  1  0.87971842  0.37944164  0.00100116  1
  V  V66  1  0.23590226  0.12905884  0.87735256  1
  V  V67  1  0.75727564  0.12530174  0.87502916  1
  V  V68  1  -0.00603199  0.87596071  0.88042549  1
  V  V69  1  0.62121188  0.24944736  0.37308420  1
  V  V70  1  0.49163173  -0.00645109  0.50240347  1
  V  V71  1  0.62912422  0.74515973  0.88716130  1
  V  V72  1  0.12175026  -0.00026287  0.62630299  1
  V  V73  1  0.00064519  0.74960763  0.75244257  1
  V  V74  1  0.24605603  0.87398969  0.12320241  1
  V  V75  1  0.38328201  0.37976177  0.49917972  1
  V  V76  1  0.25797580  0.62023683  0.87798156  1
  V  V77  1  0.50277510  0.87780484  0.36623997  1
  V  V78  1  0.50946120  0.37333494  0.87641449  1
  V  V79  1  0.11995684  0.60784170  0.00359092  1
  V  V80  1  0.62573949  0.12475274  0.50275817  1
  V  V81  1  0.24911235  0.25314209  0.49785149  1
  V  V82  1  0.12810014  0.36545572  0.75563293  1
  V  V83  1  0.12458844  0.74915703  0.37386784  1
  V  V84  1  0.25399543  0.87710999  0.62252735  1
  Zn  Zn85  1  0.62477154  -0.00132443  0.62696802  1
  Zn  Zn86  1  0.88481248  0.12116585  0.24499351  1
  Zn  Zn87  1  0.55477729  0.57023066  0.46435518  1
  Zn  Zn88  1  0.37580717  0.75020299  0.12395302  1
  Zn  Zn89  1  0.62924217  0.37087289  0.75107802  1
  Zn  Zn90  1  -0.00403583  0.87007831  0.37380379  1
  Zn  Zn91  1  0.88005570  0.50200680  0.88065709  1
  Zn  Zn92  1  0.38163179  0.61793657  0.75190717  1
  Zn  Zn93  1  0.03566109  0.24406552  0.25522129  1
  Zn  Zn94  1  0.75631632  0.24464758  0.50424359  1
  Zn  Zn95  1  0.13332179  0.62434756  0.50280442  1
  Zn  Zn96  1  0.12329772  0.87555629  0.75356035  1
  Zn  Zn97  1  -0.00844464  0.13232281  0.61989043  1
  Zn  Zn98  1  0.50132413  0.87456001  0.87707998  1
  Zn  Zn99  1  0.62245454  0.74478336  0.37540959  1
  Zn  Zn100  1  0.73980932  0.61823439  0.37906396  1
  Zn  Zn101  1  0.37848667  0.25121716  0.62526301  1
  Zn  Zn102  1  0.00454674  0.49913516  0.49803999  1
  Zn  Zn103  1  0.62727974  0.50221670  0.11998843  1
  Zn  Zn104  1  0.37672115  0.62673071  0.24260157  1
  Zn  Zn105  1  0.37060694  -0.00548374  0.37797573  1
  Zn  Zn106  1  0.38270966  0.50301241  0.36879669  1
  Zn  Zn107  1  0.19059080  0.18533447  0.17579545  1
  Zn  Zn108  1  0.18649878  0.18662652  0.68444385  1
  Zn  Zn109  1  0.18273378  0.68445019  0.18492864  1
  Zn  Zn110  1  0.19136919  0.68691254  0.69115296  1
  Zn  Zn111  1  0.68888160  0.17957002  0.19005435  1
  Zn  Zn112  1  0.68882797  0.18665177  0.68701166  1
  Zn  Zn113  1  0.68401020  0.68720632  0.18590423  1
  Zn  Zn114  1  0.68761930  0.68416960  0.69091521  1
  Zn  Zn115  1  0.24578172  0.29474945  0.29111261  1
  Zn  Zn116  1  0.31903987  0.31115353  0.81594925  1
  Zn  Zn117  1  0.31953900  0.81357135  0.31046528  1
  Zn  Zn118  1  0.31173828  0.81325524  0.81268836  1
  Zn  Zn119  1  0.81081434  0.31522490  0.31719451  1
  Zn  Zn120  1  0.81666677  0.31173051  0.81363107  1
  Zn  Zn121  1  0.80788125  0.80864653  0.31443083  1
  Zn  Zn122  1  0.81216502  0.80897468  0.81646377  1
  Zn  Zn123  1  0.19391782  0.44462796  0.43882304  1
  Zn  Zn124  1  0.18922862  0.43329881  0.93672642  1
  Zn  Zn125  1  0.18403188  0.93649533  0.43644991  1
  Zn  Zn126  1  0.18213133  0.93879887  0.93846150  1
  Zn  Zn127  1  0.69077929  0.43364591  0.43963363  1
  Zn  Zn128  1  0.68770623  0.43731920  0.93796947  1
  Zn  Zn129  1  0.68383174  0.93633619  0.43671014  1
  Zn  Zn130  1  0.68548781  0.94016811  0.93837642  1
  Zn  Zn131  1  0.30957507  0.06318849  0.06321320  1
  Zn  Zn132  1  0.31292867  0.06350587  0.56462797  1
  Zn  Zn133  1  0.31968440  0.56193716  0.06085778  1
  Zn  Zn134  1  0.36401993  0.58540493  0.53852141  1
  Zn  Zn135  1  0.81330399  0.06394768  0.06159758  1
  Zn  Zn136  1  0.80944674  0.05877475  0.56229565  1
  Zn  Zn137  1  0.81622731  0.55800286  0.06847152  1
  Zn  Zn138  1  0.81586252  0.55474150  0.56448945  1
  Zn  Zn139  1  0.43220853  0.44113655  0.18581523  1
  Zn  Zn140  1  0.43955775  0.43396454  0.68923211  1
  Zn  Zn141  1  0.43614729  0.94157099  0.18802268  1
  Zn  Zn142  1  0.43782311  0.93476468  0.68969252  1
  Zn  Zn143  1  0.93647578  0.43012341  0.19385319  1
  Zn  Zn144  1  0.93884606  0.43669233  0.68841123  1
  Zn  Zn145  1  0.93586109  0.93375293  0.18360932  1
  Zn  Zn146  1  0.93650264  0.93707089  0.68933046  1
  Zn  Zn147  1  0.05863218  0.06189006  0.31236605  1
  Zn  Zn148  1  0.05652506  0.06238717  0.81411758  1
  Zn  Zn149  1  0.06331877  0.56125038  0.31186946  1
  Zn  Zn150  1  0.06672454  0.55769354  0.81344890  1
  Zn  Zn151  1  0.55796936  0.06693012  0.32129545  1
  Zn  Zn152  1  0.56573704  0.06015511  0.81540934  1
  Zn  Zn153  1  0.56590376  0.56370696  0.29877013  1
  Zn  Zn154  1  0.56633425  0.55966842  0.81485184  1
  Zn  Zn155  1  0.43566994  0.19080151  0.43581158  1
  Zn  Zn156  1  0.43220371  0.19101571  0.93612420  1
  Zn  Zn157  1  0.43261239  0.70248124  0.43216265  1
  Zn  Zn158  1  0.44018831  0.69029124  0.93759570  1
  Zn  Zn159  1  0.94097485  0.18760601  0.42902132  1
  Zn  Zn160  1  0.93350365  0.19582029  0.93222953  1
  Zn  Zn161  1  0.93645408  0.68441483  0.43945782  1
  Zn  Zn162  1  0.93513894  0.68628668  0.94495950  1
  Zn  Zn163  1  0.06326994  0.31301097  0.06316741  1
  Zn  Zn164  1  0.06164242  0.31287239  0.56439085  1
  Zn  Zn165  1  0.05561852  0.80902300  0.06265769  1
  Zn  Zn166  1  0.06594475  0.81249979  0.56221735  1
  Zn  Zn167  1  0.56135496  0.30375429  0.06432026  1
  Zn  Zn168  1  0.56633377  0.31257231  0.56621745  1
  Zn  Zn169  1  0.56674722  0.81985151  0.06511606  1
  Zn  Zn170  1  0.55948482  0.81402151  0.56293079  1
  O  O171  1  0.12489889  0.10954397  0.12152764  1
  O  O172  1  0.12416822  0.11238799  0.61629297  1
  O  O173  1  0.10947675  0.62880069  0.11492567  1
  O  O174  1  0.12085621  0.61766160  0.62837184  1
  O  O175  1  0.62156682  0.14608427  0.09836969  1
  O  O176  1  0.61927853  0.12129689  0.61927034  1
  O  O177  1  0.61255428  0.62301814  0.12272251  1
  O  O178  1  0.63101553  0.60733238  0.62805894  1
  O  O179  1  0.39457043  0.37217668  0.38007860  1
  O  O180  1  0.38709148  0.36976827  0.88853967  1
  O  O181  1  0.39266848  0.87852891  0.37298446  1
  O  O182  1  0.37364552  0.88234923  0.88684668  1
  O  O183  1  0.88196071  0.38063153  0.38691470  1
  O  O184  1  0.88310154  0.37543894  0.88489188  1
  O  O185  1  0.87373698  0.87975319  0.38338046  1
  O  O186  1  0.88607918  0.86705081  0.88353525  1
  O  O187  1  0.24996773  0.00485730  0.37013157  1
  O  O188  1  0.25257253  0.00702394  0.87276269  1
  O  O189  1  0.25299718  0.50988201  0.36329507  1
  O  O190  1  0.24718966  0.50785405  0.86857147  1
  O  O191  1  0.75807913  0.00743473  0.38239425  1
  O  O192  1  0.74721007  0.00898704  0.86675194  1
  O  O193  1  0.75687088  0.49767837  0.36877822  1
  O  O194  1  0.75146810  0.50613458  0.86776614  1
  O  O195  1  0.25596766  0.49556963  0.13239139  1
  O  O196  1  0.23926501  0.49277220  0.63579303  1
  O  O197  1  0.23471332  0.99318814  0.12564224  1
  O  O198  1  0.24269055  0.99497503  0.62958777  1
  O  O199  1  0.75056707  0.48582309  0.13209485  1
  O  O200  1  0.74634083  0.48993373  0.63280135  1
  O  O201  1  0.75810046  0.99188478  0.13036664  1
  O  O202  1  0.74673876  0.98942685  0.63356255  1
  O  O203  1  0.00314247  0.36992229  0.26489992  1
  O  O204  1  0.00832802  0.36859682  0.75378370  1
  O  O205  1  0.00586372  0.86507951  0.24999054  1
  O  O206  1  -0.00000410  0.86894280  0.76041188  1
  O  O207  1  0.51089555  0.37979201  0.25622827  1
  O  O208  1  0.50010492  0.36456029  0.75953148  1
  O  O209  1  0.50161750  0.87446387  0.25615521  1
  O  O210  1  0.50974862  0.86822123  0.75481176  1
  O  O211  1  0.47576993  0.12859569  0.25523755  1
  O  O212  1  0.49612433  0.12806635  0.74806257  1
  O  O213  1  0.49832750  0.63487506  0.23684178  1
  O  O214  1  0.49972416  0.63678226  0.75613372  1
  O  O215  1  0.99550490  0.13763423  0.26357807  1
  O  O216  1  0.99037988  0.13076693  0.74987750  1
  O  O217  1  1.00674436  0.63181749  0.23725974  1
  O  O218  1  0.99745797  0.62814962  0.74319684  1
  O  O219  1  0.37066871  0.25695095  0.00877887  1
  O  O220  1  0.36714259  0.25972500  0.50181857  1
  O  O221  1  0.36893656  0.76163005  -0.00097120  1
  O  O222  1  0.36095502  0.75809975  0.51048304  1
  O  O223  1  0.86665679  0.25793589  0.01005879  1
  O  O224  1  0.87740768  0.26275263  0.49716457  1
  O  O225  1  0.87903821  0.76108241  0.01263879  1
  O  O226  1  0.86847799  0.75443730  0.50644237  1
  O  O227  1  0.13176477  0.23714294  0.50886701  1
  O  O228  1  0.14192592  0.25196626  1.00190291  1
  O  O229  1  0.13537937  0.74772262  0.49408512  1
  O  O230  1  0.12678746  0.74448019  0.99087757  1
  O  O231  1  0.62681081  0.23762939  0.49673695  1
  O  O232  1  0.63877573  0.24979645  0.99389863  1
  O  O233  1  0.63763500  0.75102558  0.50431152  1
  O  O234  1  0.62147176  0.75480036  0.98477390  1
  O  O235  1  0.48885972  0.23152119  0.12582721  1
  O  O236  1  0.49934607  0.24115847  0.63367385  1
  O  O237  1  0.50153542  0.74751447  0.12657715  1
  O  O238  1  0.48844749  0.75893198  0.63503194  1
  O  O239  1  0.98887182  0.25626229  0.13038729  1
  O  O240  1  1.00588783  0.24772537  0.64072713  1
  O  O241  1  0.98967483  0.74357665  0.13294154  1
  O  O242  1  0.99903470  0.74286986  0.63176965  1
  O  O243  1  0.00495591  0.26627298  0.37743210  1
  O  O244  1  -0.00264333  0.26188218  0.86132986  1
  O  O245  1  0.00515417  0.74654529  0.36784870  1
  O  O246  1  0.00538232  0.75339858  0.87329966  1
  O  O247  1  0.51480317  0.25563697  0.37956344  1
  O  O248  1  0.49757670  0.25700597  0.86716429  1
  O  O249  1  0.50084056  0.76329486  0.36494227  1
  O  O250  1  0.51183174  0.75293594  0.86876436  1
  O  O251  1  0.24426130  0.12930090  0.49579499  1
  O  O252  1  0.25428334  0.13797592  0.99231657  1
  O  O253  1  0.25636515  0.63527648  0.48958068  1
  O  O254  1  0.24309622  0.62869638  0.99563859  1
  O  O255  1  0.74148493  0.12524793  0.49622766  1
  O  O256  1  0.74658325  0.13107634  0.99124663  1
  O  O257  1  0.75697321  0.63674618  0.50434540  1
  O  O258  1  0.75450096  0.61601041  0.98963090  1
  O  O259  1  0.26029147  0.36744278  0.00127983  1
  O  O260  1  0.25458468  0.36721696  0.50371019  1
  O  O261  1  0.25442387  0.87096231  0.00330978  1
  O  O262  1  0.24275583  0.86994324  0.51080510  1
  O  O263  1  0.75534884  0.36876242  0.00710043  1
  O  O264  1  0.76344252  0.37144715  0.50693629  1
  O  O265  1  0.76383453  0.88403101  -0.00013495  1
  O  O266  1  0.75349186  0.86590333  0.50654573  1
  O  O267  1  0.14286353  0.50502388  0.24994406  1
  O  O268  1  0.13491963  0.48745424  0.74644919  1
  O  O269  1  0.12436227  0.99188555  0.23890040  1
  O  O270  1  0.12753102  1.00029430  0.74163826  1
  O  O271  1  0.63418293  0.48724277  0.24326950  1
  O  O272  1  0.63842854  0.49732705  0.74467577  1
  O  O273  1  0.60912233  1.07618558  0.22176889  1
  O  O274  1  0.63449223  0.98941831  0.75134739  1
  O  O275  1  0.36235483  0.00849311  0.24941236  1
  O  O276  1  0.36878743  0.00531361  0.75659170  1
  O  O277  1  0.36609039  0.50754732  0.25188073  1
  O  O278  1  0.36194458  0.49959782  0.74534217  1
  O  O279  1  0.88533115  -0.00104956  0.26515536  1
  O  O280  1  0.86346294  0.00452690  0.74895750  1
  O  O281  1  0.86374771  0.48807534  0.26241092  1
  O  O282  1  0.86589711  0.50510109  0.75135202  1
  O  O283  1  0.11371759  0.38242726  0.38320096  1
  O  O284  1  0.11916848  0.37485084  0.86694594  1
  O  O285  1  0.12201224  0.86920696  0.36158329  1
  O  O286  1  0.11318175  0.86552340  0.87709774  1
  O  O287  1  0.61954638  0.36794581  0.37099109  1
  O  O288  1  0.61437780  0.37541116  0.87158318  1
  O  O289  1  0.60915203  0.87160991  0.37843164  1
  O  O290  1  0.62814975  0.86403119  0.86689935  1
  O  O291  1  0.36554919  0.13307465  0.13502074  1
  O  O292  1  0.38133008  0.12516524  0.63569792  1
  O  O293  1  0.38911125  0.63121949  0.12061015  1
  O  O294  1  0.35925381  0.64537334  0.63706872  1
  O  O295  1  0.87029118  0.14276795  0.12572982  1
  O  O296  1  0.87338062  0.11951913  0.63734760  1
  O  O297  1  0.88713778  0.63211185  0.11984913  1
  O  O298  1  0.88457133  0.62715107  0.63178705  1
  O  O299  1  0.25951333  0.25681976  0.10974029  1
  O  O300  1  0.25314724  0.25470055  0.61515793  1
  O  O301  1  0.24903057  0.75637500  0.11714132  1
  O  O302  1  0.25003485  0.75981796  0.61978075  1
  O  O303  1  0.75465930  0.25845635  0.11905467  1
  O  O304  1  0.74758111  0.26418162  0.62513694  1
  O  O305  1  0.76266364  0.75164432  0.13325960  1
  O  O306  1  0.75474820  0.75261245  0.61845178  1
  O  O307  1  0.24895085  0.23897551  0.39084817  1
  O  O308  1  0.25669325  0.24343962  0.88784095  1
  O  O309  1  0.24640315  0.74923836  0.38044357  1
  O  O310  1  0.24074039  0.74388937  0.87971090  1
  O  O311  1  0.74099177  0.24328546  0.38139079  1
  O  O312  1  0.75687457  0.24184114  0.88417686  1
  O  O313  1  0.74716904  0.74365088  0.38946357  1
  O  O314  1  0.73803480  0.74020364  0.87197806  1
  O  O315  1  -0.00839220  0.11172582  -0.01032104  1
  O  O316  1  0.00630632  0.11807504  0.50079638  1
  O  O317  1  0.00647355  0.62408388  0.01284038  1
  O  O318  1  0.00350878  0.62369044  0.51552251  1
  O  O319  1  0.50776546  0.12116425  -0.00951338  1
  O  O320  1  0.50536748  0.12020621  0.50543166  1
  O  O321  1  0.49596141  0.61410652  0.00144550  1
  O  O322  1  0.46767510  0.62506671  0.50492893  1
  O  O323  1  0.49399589  0.36979932  0.49468444  1
  O  O324  1  0.49634863  0.37518805  0.99451048  1
  O  O325  1  0.50332989  0.88553889  0.49142407  1
  O  O326  1  0.49247791  0.88672389  1.00152783  1
  O  O327  1  0.99328781  0.37721304  0.49603891  1
  O  O328  1  0.99293706  0.36704534  0.99087245  1
  O  O329  1  0.99333991  0.88035887  0.49973269  1
  O  O330  1  0.99082588  0.88067804  0.99535626  1
  O  O331  1  0.50399366  0.49365752  0.37574247  1
  O  O332  1  0.50184497  0.49020595  0.88117787  1
  O  O333  1  0.49842465  0.99297408  0.38158559  1
  O  O334  1  0.49213681  0.99728623  0.88281097  1
  O  O335  1  0.99457351  0.49175436  0.37553861  1
  O  O336  1  0.99741304  0.48331994  0.86690458  1
  O  O337  1  0.99403013  0.99475967  0.38839975  1
  O  O338  1  1.00537193  0.99003257  0.88906530  1
  O  O339  1  0.00767646  -0.00286583  0.11433030  1
  O  O340  1  0.00529475  0.00011241  0.61586913  1
  O  O341  1  -0.00823364  0.51215795  0.13307414  1
  O  O342  1  0.01338897  0.50640791  0.62909552  1
  O  O343  1  0.49353078  0.01811805  0.11663954  1
  O  O344  1  0.50158938  0.00395938  0.61958488  1
  O  O345  1  0.50138863  0.50843304  0.11614986  1
  O  O346  1  0.51783401  0.49586160  0.63372035  1
  O  O347  1  0.25882199  0.39294150  0.23665626  1
  O  O348  1  0.24703926  0.37716998  0.74884610  1
  O  O349  1  0.24184644  0.87796856  0.24376072  1
  O  O350  1  0.24480140  0.88331002  0.74504827  1
  O  O351  1  0.74091453  0.37838487  0.24431118  1
  O  O352  1  0.75356538  0.38175474  0.74453664  1
  O  O353  1  0.75100917  0.87769974  0.24350116  1
  O  O354  1  0.74639591  0.87920116  0.74803068  1
  O  O355  1  0.24957212  0.11642086  0.25925878  1
  O  O356  1  0.25504199  0.12095463  0.75552364  1
  O  O357  1  0.25137201  0.61922250  0.25184187  1
  O  O358  1  0.24731904  0.61408897  0.76202966  1
  O  O359  1  0.76148065  0.12845581  0.26537928  1
  O  O360  1  0.75428614  0.11788457  0.75479760  1
  O  O361  1  0.74376296  0.60852232  0.25051867  1
  O  O362  1  0.75745909  0.61722879  0.75766092  1
  O  O363  1  0.36045244  0.12425708  0.37075003  1
  O  O364  1  0.36677670  0.11948345  0.86786628  1
  O  O365  1  0.36202239  0.63077446  0.36705317  1
  O  O366  1  0.36085591  0.63173182  0.87392890  1
  O  O367  1  0.86625238  0.11411708  0.38193982  1
  O  O368  1  0.86428436  0.12703629  0.86313006  1
  O  O369  1  0.87307538  0.60803027  0.38092022  1
  O  O370  1  0.86927209  0.62389530  0.87161301  1
  O  O371  1  0.14205351  0.37755995  0.11526492  1
  O  O372  1  0.13170049  0.38109525  0.63226440  1
  O  O373  1  0.12509476  0.87684264  0.13338689  1
  O  O374  1  0.13146342  0.88572602  0.62814493  1
  O  O375  1  0.63114843  0.36930597  0.13241749  1
  O  O376  1  0.63639311  0.38258013  0.62891413  1
  O  O377  1  0.64797118  0.87572516  0.11906543  1
  O  O378  1  0.63085253  0.87361652  0.63778984  1
  O  O379  1  0.14730036  0.25824679  0.24585851  1
  O  O380  1  0.12289685  0.26037042  0.74696428  1
  O  O381  1  0.11618070  0.75604745  0.25303847  1
  O  O382  1  0.11967392  0.74967561  0.76331259  1
  O  O383  1  0.63085257  0.25764741  0.26030918  1
  O  O384  1  0.61361243  0.24930037  0.74803441  1
  O  O385  1  0.61197398  0.74763736  0.25293162  1
  O  O386  1  0.61963611  0.75557218  0.75456669  1
  O  O387  1  0.35252939  0.24218605  0.23853383  1
  O  O388  1  0.38453719  0.24102040  0.74876476  1
  O  O389  1  0.38898104  0.75104169  0.24289228  1
  O  O390  1  0.38528466  0.75212892  0.74711877  1
  O  O391  1  0.86927015  0.25495395  0.23504677  1
  O  O392  1  0.88272617  0.24068162  0.74946304  1
  O  O393  1  0.88530915  0.75248510  0.24582089  1
  O  O394  1  0.88078436  0.74317669  0.74444529  1
  O  O395  1  0.36377395  0.48230409  0.48960699  1
  O  O396  1  0.38762308  0.48589340  1.00364143  1
  O  O397  1  0.38751597  1.00665047  0.49865391  1
  O  O398  1  0.38156706  0.99753755  0.99638932  1
  O  O399  1  0.87993514  0.48877470  0.49284406  1
  O  O400  1  0.87277183  0.48323988  1.00090880  1
  O  O401  1  0.88110283  0.99151493  0.49675915  1
  O  O402  1  0.88868218  0.99247509  1.00651190  1
  O  O403  1  0.11111289  -0.00566387  0.01225321  1
  O  O404  1  0.11592358  0.00390482  0.50671412  1
  O  O405  1  0.12723104  0.50929039  -0.00304711  1
  O  O406  1  0.12616074  0.50460181  0.51245414  1
  O  O407  1  0.61145656  0.01081567  -0.00514427  1
  O  O408  1  0.61528667  0.01104905  0.50144711  1
  O  O409  1  0.61015556  0.49124817  0.00331171  1
  O  O410  1  0.62852179  0.49659200  0.51423419  1
  O  O411  1  0.37308595  0.36548121  0.11559567  1
  O  O412  1  0.36993266  0.37377580  0.61734198  1
  O  O413  1  0.36751868  0.87900245  0.11319055  1
  O  O414  1  0.36011121  0.86820038  0.63279237  1
  O  O415  1  0.86881658  0.36588339  0.12014440  1
  O  O416  1  0.87150828  0.38159731  0.61066247  1
  O  O417  1  0.86444599  0.86765527  0.12005159  1
  O  O418  1  0.86984078  0.86698535  0.62090752  1
  O  O419  1  0.13561489  0.11422866  0.38789807  1
  O  O420  1  0.13680080  0.12260666  0.87044485  1
  O  O421  1  0.13639967  0.63201062  0.37640737  1
  O  O422  1  0.12923485  0.63025751  0.88314970  1
  O  O423  1  0.63182738  0.13119760  0.38441958  1
  O  O424  1  0.63775283  0.12556637  0.88039841  1
  O  O425  1  0.62079094  0.62401041  0.38117779  1
  O  O426  1  0.63344818  0.63713316  0.87225945  1
