# generated using pymatgen
data_V85Zn86O256
_symmetry_space_group_name_H-M   'P 1'
_cell_length_a   16.93624341
_cell_length_b   16.95072039
_cell_length_c   16.93981257
_cell_angle_alpha   89.93539307
_cell_angle_beta   90.02409425
_cell_angle_gamma   90.01544178
_symmetry_Int_Tables_number   1
_chemical_formula_structural   V85Zn86O256
_chemical_formula_sum   'V85 Zn86 O256'
_cell_volume   4863.10355190
_cell_formula_units_Z   1
loop_
 _symmetry_equiv_pos_site_id
 _symmetry_equiv_pos_as_xyz
  1  'x, y, z'
loop_
 _atom_site_type_symbol
 _atom_site_label
 _atom_site_symmetry_multiplicity
 _atom_site_fract_x
 _atom_site_fract_y
 _atom_site_fract_z
 _atom_site_occupancy
  V  V0  1  0.24196023  0.37384576  0.62972036  1
  V  V1  1  0.25030545  0.62293122  0.87552544  1
  V  V2  1  0.49452067  0.37931242  0.36618298  1
  V  V3  1  0.75469090  0.25632109  0.50780585  1
  V  V4  1  0.87498215  0.49597758  0.87602728  1
  V  V5  1  0.64294020  0.49731593  0.62515504  1
  V  V6  1  0.25522874  0.75345173  0.51239685  1
  V  V7  1  0.00330505  0.12021903  0.12562495  1
  V  V8  1  -0.06209133  -0.06171365  0.05134141  1
  V  V9  1  0.50000026  0.25242906  0.74366751  1
  V  V10  1  -0.00593410  0.75299749  0.25221917  1
  V  V11  1  0.12336539  0.37545663  0.23817218  1
  V  V12  1  0.74776699  0.00456322  0.24315321  1
  V  V13  1  0.76189476  0.75512624  0.00278906  1
  V  V14  1  0.49539204  0.13116814  0.62357718  1
  V  V15  1  0.10702201  0.37721453  0.76400516  1
  V  V16  1  0.86548271  0.62270978  0.74981564  1
  V  V17  1  -0.00427742  0.24318266  0.25009081  1
  V  V18  1  0.38249122  0.25244527  0.13561459  1
  V  V19  1  0.12348123  0.75132767  0.87374859  1
  V  V20  1  0.50702817  0.62482465  0.12020694  1
  V  V21  1  0.25330383  0.24768950  0.00127376  1
  V  V22  1  0.49578190  0.61175888  0.62400586  1
  V  V23  1  0.62469494  0.74639538  0.87476441  1
  V  V24  1  -0.00985931  0.62339973  0.12772884  1
  V  V25  1  0.49854832  0.00232115  0.49792503  1
  V  V26  1  0.51175562  0.50290215  -0.00098706  1
  V  V27  1  0.37448100  0.62408986  0.24976299  1
  V  V28  1  0.25051865  0.25128859  0.50800549  1
  V  V29  1  0.37744018  0.62141679  0.74570310  1
  V  V30  1  -0.00219267  0.87731787  0.87278900  1
  V  V31  1  0.61797528  0.25278573  0.36818470  1
  V  V32  1  0.00021097  0.50227904  0.49734845  1
  V  V33  1  0.37480988  0.75141791  0.12509681  1
  V  V34  1  0.24799205  -0.00949860  0.74606648  1
  V  V35  1  0.74957457  0.25548127  -0.00363384  1
  V  V36  1  -0.00140019  0.37471887  0.37563723  1
  V  V37  1  0.74502015  0.62170045  0.88036194  1
  V  V38  1  0.62680786  0.00139121  0.62353959  1
  V  V39  1  0.38119722  0.37825797  0.51053481  1
  V  V40  1  0.24841149  0.12754118  0.87249465  1
  V  V41  1  0.12514544  0.75773573  0.37413218  1
  V  V42  1  0.12726096  0.62091021  0.01059306  1
  V  V43  1  0.62358314  0.75022494  0.37317212  1
  V  V44  1  0.62516645  0.11915743  -0.00312448  1
  V  V45  1  0.12306606  0.12636977  0.50633904  1
  V  V46  1  0.74964647  0.75026478  0.49721332  1
  V  V47  1  0.12746480  -0.01565914  0.62786868  1
  V  V48  1  0.24758878  0.62446376  0.37575941  1
  V  V49  1  0.87892300  0.00069256  0.86743157  1
  V  V50  1  0.24463294  0.00427742  0.24780311  1
  V  V51  1  0.24169833  0.87956129  0.12570183  1
  V  V52  1  0.74549639  0.61884997  0.36610782  1
  V  V53  1  0.12553600  0.24991439  0.37842510  1
  V  V54  1  0.62427965  0.88025061  0.23655879  1
  V  V55  1  0.63856257  0.37867491  0.74523950  1
  V  V56  1  0.37914118  0.37552676  0.00028499  1
  V  V57  1  0.37246384  0.00302287  0.37608893  1
  V  V58  1  0.50662763  0.12331922  0.13240388  1
  V  V59  1  0.24540703  0.50029500  0.24236755  1
  V  V60  1  0.37613606  0.00202112  0.87591427  1
  V  V61  1  -0.00070130  0.49789663  0.00129737  1
  V  V62  1  0.87059124  0.49776959  0.36440014  1
  V  V63  1  0.87931776  0.87622288  0.49263620  1
  V  V64  1  0.87772215  0.00611614  0.37449884  1
  V  V65  1  0.12880160  0.10847086  0.00702045  1
  V  V66  1  0.50308265  0.37529758  0.87106245  1
  V  V67  1  0.61841970  0.61973334  0.49903101  1
  V  V68  1  0.75429862  0.00807429  0.74717633  1
  V  V69  1  0.50188688  0.87068070  0.87752827  1
  V  V70  1  0.87404663  0.24558906  0.12417054  1
  V  V71  1  0.75481576  0.38116106  0.13194055  1
  V  V72  1  0.87440255  0.75222173  0.62378864  1
  V  V73  1  0.36823801  0.13432760  0.74583291  1
  V  V74  1  0.49882977  0.75093282  0.24842456  1
  V  V75  1  0.75235406  0.12862817  0.37071601  1
  V  V76  1  0.00170525  0.00064054  0.50097890  1
  V  V77  1  -0.00048874  0.62555798  0.62498637  1
  V  V78  1  0.00234868  0.75451573  0.74889793  1
  V  V79  1  0.62379715  0.12879869  0.49874641  1
  V  V80  1  0.37520399  0.87645311  0.00271210  1
  V  V81  1  0.94417134  0.18199004  0.68945621  1
  V  V82  1  0.75125490  0.87694387  0.62373422  1
  V  V83  1  0.49894940  0.87585390  0.37409593  1
  V  V84  1  0.44280372  0.79672831  0.68981026  1
  Zn  Zn85  1  0.37704533  0.50080844  0.87418277  1
  Zn  Zn86  1  0.62813978  0.24775504  0.87104322  1
  Zn  Zn87  1  0.37359275  0.87212946  0.50908376  1
  Zn  Zn88  1  0.24816683  0.49864342  0.74935666  1
  Zn  Zn89  1  0.25216561  0.12851787  0.37455260  1
  Zn  Zn90  1  0.12264191  0.87903184  0.25057660  1
  Zn  Zn91  1  0.24898030  0.37681122  0.12209902  1
  Zn  Zn92  1  0.75661637  0.87678751  0.11908505  1
  Zn  Zn93  1  0.37497252  0.50127313  0.37971578  1
  Zn  Zn94  1  0.12548627  0.62634618  0.50111569  1
  Zn  Zn95  1  0.86342928  0.37980758  0.51263181  1
  Zn  Zn96  1  0.12140919  0.49996625  0.62921080  1
  Zn  Zn97  1  0.10686215  0.25002088  0.87639013  1
  Zn  Zn98  1  0.75429893  0.12728185  0.87200129  1
  Zn  Zn99  1  0.37795350  0.13074583  0.25364799  1
  Zn  Zn100  1  0.62775578  0.87208046  0.74866778  1
  Zn  Zn101  1  0.63418725  0.50547167  0.12961554  1
  Zn  Zn102  1  0.62431575  0.37913120  0.24744104  1
  Zn  Zn103  1  0.50743889  -0.00180781  0.00511396  1
  Zn  Zn104  1  0.92389729  0.33770315  -0.04863333  1
  Zn  Zn105  1  0.24904980  0.74912083  0.00285347  1
  Zn  Zn106  1  0.86640896  0.62700206  0.24558230  1
  Zn  Zn107  1  0.18849318  0.18846137  0.18681607  1
  Zn  Zn108  1  0.13494207  0.20726481  0.66975573  1
  Zn  Zn109  1  0.18567911  0.69026818  0.18849927  1
  Zn  Zn110  1  0.18537061  0.68626269  0.69040963  1
  Zn  Zn111  1  0.68512690  0.19151427  0.18770464  1
  Zn  Zn112  1  0.68563799  0.18890188  0.68694409  1
  Zn  Zn113  1  0.68659593  0.69322173  0.18330386  1
  Zn  Zn114  1  0.68384017  0.68863827  0.68929208  1
  Zn  Zn115  1  0.31010368  0.31604032  0.31542784  1
  Zn  Zn116  1  0.31190943  0.31204569  0.81257677  1
  Zn  Zn117  1  0.31074435  0.81414127  0.31369108  1
  Zn  Zn118  1  0.30875989  0.81157261  0.82012964  1
  Zn  Zn119  1  0.81450257  0.30971006  0.31376918  1
  Zn  Zn120  1  0.81629785  0.30656132  0.80395197  1
  Zn  Zn121  1  0.80980056  0.81489272  0.31157850  1
  Zn  Zn122  1  0.81298559  0.81419925  0.81353925  1
  Zn  Zn123  1  0.18541964  0.43709420  0.43664322  1
  Zn  Zn124  1  0.18882320  0.44057490  0.94024758  1
  Zn  Zn125  1  0.19049738  0.93460898  0.43960177  1
  Zn  Zn126  1  0.18930082  0.93343663  0.93299571  1
  Zn  Zn127  1  0.68282596  0.43791491  0.43683359  1
  Zn  Zn128  1  0.69023794  0.43541482  0.93758500  1
  Zn  Zn129  1  0.68755784  0.93983133  0.43368200  1
  Zn  Zn130  1  0.69080989  0.93616741  0.93537660  1
  Zn  Zn131  1  0.31830368  0.06315101  0.06550699  1
  Zn  Zn132  1  0.30801588  0.06341130  0.56317183  1
  Zn  Zn133  1  0.31749994  0.56107304  0.06222279  1
  Zn  Zn134  1  0.30871979  0.55953216  0.56315683  1
  Zn  Zn135  1  0.80889743  0.07083228  0.06450700  1
  Zn  Zn136  1  0.81458489  0.07014454  0.56180822  1
  Zn  Zn137  1  0.81287094  0.56611110  0.05576517  1
  Zn  Zn138  1  0.81490545  0.56536791  0.55304798  1
  Zn  Zn139  1  0.43715222  0.44220806  0.18790735  1
  Zn  Zn140  1  0.43554606  0.43827430  0.68601455  1
  Zn  Zn141  1  0.43431549  0.94339368  0.18845420  1
  Zn  Zn142  1  0.43703787  0.95946531  0.68891985  1
  Zn  Zn143  1  0.93708547  0.43604835  0.18346514  1
  Zn  Zn144  1  0.92773385  0.43981155  0.69024669  1
  Zn  Zn145  1  0.93623970  0.93733233  0.21134866  1
  Zn  Zn146  1  0.94087570  0.94141707  0.68514783  1
  Zn  Zn147  1  0.06332124  0.06355117  0.31596007  1
  Zn  Zn148  1  0.06796537  0.05987275  0.81351524  1
  Zn  Zn149  1  0.06442171  0.56318074  0.30966088  1
  Zn  Zn150  1  0.06083709  0.56261656  0.81438587  1
  Zn  Zn151  1  0.56409681  0.06368453  0.31111331  1
  Zn  Zn152  1  0.56484877  0.06109055  0.81197288  1
  Zn  Zn153  1  0.56127451  0.55600838  0.30877482  1
  Zn  Zn154  1  0.56338920  0.56188561  0.80753844  1
  Zn  Zn155  1  0.43412034  0.19444040  0.43891773  1
  Zn  Zn156  1  0.44115434  0.18925208  0.93740991  1
  Zn  Zn157  1  0.43453555  0.68721717  0.43927803  1
  Zn  Zn158  1  0.43786571  0.68884018  0.93618775  1
  Zn  Zn159  1  0.93720560  0.18616568  0.44321951  1
  Zn  Zn160  1  0.94175521  0.17103383  0.94270301  1
  Zn  Zn161  1  0.93550937  0.68604629  0.43221540  1
  Zn  Zn162  1  0.93647591  0.68333458  0.93681729  1
  Zn  Zn163  1  0.06070005  0.30009384  0.04979614  1
  Zn  Zn164  1  0.02224254  0.33259684  0.58951093  1
  Zn  Zn165  1  0.06465346  0.80221393  0.06603896  1
  Zn  Zn166  1  0.06248803  0.81243347  0.55618512  1
  Zn  Zn167  1  0.56759370  0.30981757  0.06215871  1
  Zn  Zn168  1  0.56604637  0.31530482  0.56044225  1
  Zn  Zn169  1  0.56713197  0.80733663  0.05622251  1
  Zn  Zn170  1  0.56710727  0.81446970  0.55619472  1
  O  O171  1  0.11866709  0.12618434  0.11888705  1
  O  O172  1  0.13264965  0.10982013  0.60895328  1
  O  O173  1  0.11771444  0.62954616  0.11543103  1
  O  O174  1  0.11007706  0.62414936  0.62535822  1
  O  O175  1  0.61249224  0.13297334  0.11729826  1
  O  O176  1  0.61642319  0.12106307  0.61812045  1
  O  O177  1  0.61073297  0.62730697  0.12621485  1
  O  O178  1  0.62071589  0.61606720  0.61997092  1
  O  O179  1  0.38311531  0.37454292  0.38471934  1
  O  O180  1  0.38669935  0.37512102  0.88082107  1
  O  O181  1  0.38689530  0.88236685  0.37363684  1
  O  O182  1  0.38131166  0.87746454  0.88422063  1
  O  O183  1  0.88260854  0.38106329  0.37690468  1
  O  O184  1  0.86559481  0.39037819  0.87023805  1
  O  O185  1  0.86565821  0.88557570  0.38720134  1
  O  O186  1  0.88727820  0.88289781  0.87459432  1
  O  O187  1  0.26014560  0.00043547  0.37180121  1
  O  O188  1  0.25487594  0.00970632  0.86938349  1
  O  O189  1  0.24952900  0.50826545  0.36682662  1
  O  O190  1  0.25378045  0.51368799  0.87529927  1
  O  O191  1  0.75599291  0.00991448  0.37090244  1
  O  O192  1  0.75956416  -0.00258609  0.86300999  1
  O  O193  1  0.75659273  0.50791878  0.38093448  1
  O  O194  1  0.75649131  0.51324437  0.88461661  1
  O  O195  1  0.25461897  0.49819470  0.13769099  1
  O  O196  1  0.24069399  0.49048062  0.62598874  1
  O  O197  1  0.25987165  0.99223660  0.13628089  1
  O  O198  1  0.24019970  0.99817484  0.63155716  1
  O  O199  1  0.75461662  0.48440861  0.11540220  1
  O  O200  1  0.74196566  0.50528940  0.62117112  1
  O  O201  1  0.75573720  1.00031334  0.13930241  1
  O  O202  1  0.74727494  0.99718637  0.62682960  1
  O  O203  1  0.00566929  0.36906436  0.25772962  1
  O  O204  1  0.00872294  0.38393864  0.76049065  1
  O  O205  1  0.00543976  0.85822063  0.24980013  1
  O  O206  1  -0.00406491  0.86240413  0.75693022  1
  O  O207  1  0.49474078  0.37421627  0.26355067  1
  O  O208  1  0.50297671  0.36965520  0.75406047  1
  O  O209  1  0.50508205  0.87338234  0.25437750  1
  O  O210  1  0.49315024  0.86723151  0.75132284  1
  O  O211  1  0.50036680  0.12560020  0.23696164  1
  O  O212  1  0.49383909  0.13299075  0.74511437  1
  O  O213  1  0.49291131  0.63144547  0.24382750  1
  O  O214  1  0.48690441  0.62407551  0.74197538  1
  O  O215  1  1.00807995  0.13074605  0.23868758  1
  O  O216  1  0.99723440  0.12301392  0.75291335  1
  O  O217  1  0.99857301  0.63048020  0.24060898  1
  O  O218  1  0.99084579  0.63495819  0.74339088  1
  O  O219  1  0.37162766  0.25936250  0.00493985  1
  O  O220  1  0.36049625  0.26391499  0.49827289  1
  O  O221  1  0.37382678  0.76192124  0.00458831  1
  O  O222  1  0.36049950  0.75152574  0.49852833  1
  O  O223  1  0.86623871  0.24840186  0.00769900  1
  O  O224  1  0.85803108  0.25190553  0.49243043  1
  O  O225  1  0.86123307  0.74966534  -0.00702919  1
  O  O226  1  0.87174748  0.75819119  0.50141484  1
  O  O227  1  0.12890675  0.24117759  0.49178455  1
  O  O228  1  0.14655501  0.23946448  1.00262985  1
  O  O229  1  0.13302707  0.74671967  0.49167048  1
  O  O230  1  0.12683812  0.73821168  0.99271731  1
  O  O231  1  0.63226217  0.24696974  0.49055459  1
  O  O232  1  0.63205004  0.24063491  0.99406247  1
  O  O233  1  0.62975065  0.74186887  0.49211464  1
  O  O234  1  0.63509276  0.75254574  0.98239357  1
  O  O235  1  0.49229808  0.23973331  0.11832062  1
  O  O236  1  0.50398760  0.24796522  0.63552319  1
  O  O237  1  0.49487853  0.74486361  0.12718207  1
  O  O238  1  0.50595783  0.74244903  0.62967602  1
  O  O239  1  0.99523961  0.24029554  0.13043715  1
  O  O240  1  1.02237578  0.22771893  0.63230880  1
  O  O241  1  1.00352248  0.73802584  0.14035421  1
  O  O242  1  0.99499909  0.74672125  0.62966110  1
  O  O243  1  0.00389271  0.25482627  0.36963708  1
  O  O244  1  0.00628202  0.26184214  0.92868573  1
  O  O245  1  0.01054400  0.73894402  0.36200612  1
  O  O246  1  0.00395493  0.75347254  0.86842000  1
  O  O247  1  0.50630329  0.26428829  0.38201000  1
  O  O248  1  0.50204096  0.25835342  0.86251868  1
  O  O249  1  0.50289374  0.75751899  0.36985074  1
  O  O250  1  0.50672335  0.76142662  0.87822535  1
  O  O251  1  0.24466882  0.13441965  0.49669922  1
  O  O252  1  0.25173801  0.12964546  0.99474183  1
  O  O253  1  0.24873579  0.63265041  0.49202342  1
  O  O254  1  0.24484988  0.62495387  0.99529571  1
  O  O255  1  0.74270276  0.13180831  0.48943450  1
  O  O256  1  0.74153551  0.13619547  0.99956790  1
  O  O257  1  0.73997476  0.63168702  0.48963075  1
  O  O258  1  0.75016580  0.63828233  0.99041954  1
  O  O259  1  0.26026423  0.36828021  0.00075706  1
  O  O260  1  0.25062642  0.36980198  0.51047926  1
  O  O261  1  0.25901767  0.87400403  0.00652879  1
  O  O262  1  0.25482819  0.85897614  0.49855298  1
  O  O263  1  0.74615215  0.36120843  0.00863580  1
  O  O264  1  0.74782319  0.36148429  0.49652655  1
  O  O265  1  0.74844290  0.86225319  0.00067520  1
  O  O266  1  0.75467103  0.87102642  0.50481902  1
  O  O267  1  0.13254279  0.48830942  0.25415239  1
  O  O268  1  0.12763551  0.49139245  0.75291560  1
  O  O269  1  0.13988811  0.99736095  0.25967012  1
  O  O270  1  0.13268223  1.00164774  0.73552242  1
  O  O271  1  0.62160637  0.49297789  0.24167360  1
  O  O272  1  0.62445133  0.49396295  0.73450664  1
  O  O273  1  0.63479990  0.99039964  0.25806562  1
  O  O274  1  0.63201775  0.99481084  0.74076935  1
  O  O275  1  0.36658376  0.00350071  0.26165235  1
  O  O276  1  0.36752250  0.01387575  0.75738937  1
  O  O277  1  0.36633321  0.50762401  0.25458441  1
  O  O278  1  0.37096009  0.50773786  0.75341958  1
  O  O279  1  0.86261543  0.00043443  0.26491388  1
  O  O280  1  0.86751848  -0.00483515  0.75571352  1
  O  O281  1  0.87937033  0.50285880  0.26118652  1
  O  O282  1  0.87919172  0.51307954  0.75933024  1
  O  O283  1  0.11913361  0.36436690  0.36718890  1
  O  O284  1  0.13220997  0.37475491  0.86629061  1
  O  O285  1  0.12969657  0.86133275  0.37354935  1
  O  O286  1  0.11571132  0.86016226  0.88170173  1
  O  O287  1  0.61013545  0.37062544  0.37688723  1
  O  O288  1  0.61630789  0.37664216  0.86511756  1
  O  O289  1  0.61371934  0.87186909  0.36904052  1
  O  O290  1  0.61596890  0.87130912  0.87050693  1
  O  O291  1  0.38791403  0.13549188  0.12585576  1
  O  O292  1  0.38218003  0.11888253  0.63453059  1
  O  O293  1  0.38271497  0.63248440  0.12953633  1
  O  O294  1  0.38255040  0.62051712  0.63064112  1
  O  O295  1  0.88495566  0.13679897  0.12223680  1
  O  O296  1  0.88610483  0.12733282  0.62601043  1
  O  O297  1  0.88587542  0.62608245  0.12697687  1
  O  O298  1  0.88164627  0.63029083  0.62899045  1
  O  O299  1  0.26339040  0.25074310  0.11721311  1
  O  O300  1  0.23284423  0.25656772  0.61380600  1
  O  O301  1  0.25822186  0.75875171  0.12532070  1
  O  O302  1  0.24477796  0.74376649  0.61067291  1
  O  O303  1  0.75837949  0.25298266  0.11983391  1
  O  O304  1  0.74461986  0.24381528  0.60626596  1
  O  O305  1  0.74788732  0.75363568  0.10885684  1
  O  O306  1  0.75495269  0.75538237  0.61758406  1
  O  O307  1  0.24049852  0.25288674  0.38497330  1
  O  O308  1  0.25639508  0.23748915  0.88275554  1
  O  O309  1  0.24346827  0.74246690  0.37845155  1
  O  O310  1  0.24124516  0.74024278  0.87838647  1
  O  O311  1  0.74218299  0.24405362  0.37947372  1
  O  O312  1  0.75161820  0.24781212  0.88171346  1
  O  O313  1  0.74181780  0.74465657  0.37892421  1
  O  O314  1  0.74610193  0.74399994  0.88106622  1
  O  O315  1  0.01348092  0.11586322  0.01651134  1
  O  O316  1  0.00898195  0.11075176  0.49336982  1
  O  O317  1  0.00547465  0.62300773  0.01231075  1
  O  O318  1  -0.00184081  0.62008223  0.50672745  1
  O  O319  1  0.50843659  0.12286863  0.00580543  1
  O  O320  1  0.50279893  0.12387459  0.50450941  1
  O  O321  1  0.49169287  0.61471852  0.00731393  1
  O  O322  1  0.51043959  0.63124939  0.50781342  1
  O  O323  1  0.48374177  0.37058221  0.49847520  1
  O  O324  1  0.49759265  0.37880374  0.99151301  1
  O  O325  1  0.49739528  0.88096566  0.49050549  1
  O  O326  1  0.49549015  0.87805435  0.99346741  1
  O  O327  1  1.00819684  0.38379534  0.48301062  1
  O  O328  1  1.00166717  0.39536727  1.01830742  1
  O  O329  1  0.99158886  0.88635844  0.49924812  1
  O  O330  1  1.00091623  0.87527313  0.99737640  1
  O  O331  1  0.49584016  0.48437564  0.37792370  1
  O  O332  1  0.50005499  0.49357664  0.88085826  1
  O  O333  1  0.49321386  0.99529216  0.37830315  1
  O  O334  1  0.49414357  0.98627903  0.87172753  1
  O  O335  1  0.99420151  0.49501164  0.37786278  1
  O  O336  1  0.98868318  0.51040448  0.88786394  1
  O  O337  1  0.98680715  1.00327131  0.37987292  1
  O  O338  1  0.99679479  0.98703875  0.87003021  1
  O  O339  1  -0.01171233  -0.00183715  0.12126686  1
  O  O340  1  0.01552133  -0.00403376  0.61612775  1
  O  O341  1  -0.00251657  0.51570582  0.12200472  1
  O  O342  1  -0.00115369  0.51099330  0.61565881  1
  O  O343  1  0.49495343  0.01803692  0.12272559  1
  O  O344  1  0.50726363  0.00909409  0.61606396  1
  O  O345  1  0.49798271  0.50937871  0.11600921  1
  O  O346  1  0.50716888  0.50993813  0.62505014  1
  O  O347  1  0.24131892  0.38270126  0.24889711  1
  O  O348  1  0.25241403  0.37514931  0.73758199  1
  O  O349  1  0.25027378  0.88311536  0.24164939  1
  O  O350  1  0.25709217  0.89143913  0.75836790  1
  O  O351  1  0.75230064  0.36933481  0.23489244  1
  O  O352  1  0.73743802  0.36943373  0.74867534  1
  O  O353  1  0.74185373  0.88221122  0.24505525  1
  O  O354  1  0.75264752  0.88379128  0.73794169  1
  O  O355  1  0.25411835  0.11907000  0.25304717  1
  O  O356  1  0.25689501  0.11911880  0.75893779  1
  O  O357  1  0.25306157  0.61953350  0.25502959  1
  O  O358  1  0.25955130  0.62487630  0.75688018  1
  O  O359  1  0.74056067  0.11953117  0.26183612  1
  O  O360  1  0.74432020  0.11214639  0.74984608  1
  O  O361  1  0.74698172  0.63311768  0.26188452  1
  O  O362  1  0.76110532  0.63188158  0.75671225  1
  O  O363  1  0.37548452  0.11722595  0.37460070  1
  O  O364  1  0.37065624  0.12115434  0.86950380  1
  O  O365  1  0.36433915  0.62444902  0.36972087  1
  O  O366  1  0.36737202  0.62691419  0.86707078  1
  O  O367  1  0.86391025  0.11839198  0.38072301  1
  O  O368  1  0.87375137  0.10543474  0.88209160  1
  O  O369  1  0.86228423  0.61645670  0.37357443  1
  O  O370  1  0.86611359  0.62008962  0.86694496  1
  O  O371  1  0.12614713  0.36258553  0.13631772  1
  O  O372  1  0.12438445  0.37820691  0.64093732  1
  O  O373  1  0.13874572  0.87070633  0.12497772  1
  O  O374  1  0.12624488  0.88556588  0.62012410  1
  O  O375  1  0.64227262  0.37040153  0.12648912  1
  O  O376  1  0.62221848  0.39073505  0.62834624  1
  O  O377  1  0.62323512  0.87374610  0.13442000  1
  O  O378  1  0.63297311  0.88208209  0.62361053  1
  O  O379  1  0.11638964  0.25443693  0.25784644  1
  O  O380  1  0.12637915  0.26985119  0.76299056  1
  O  O381  1  0.11672623  0.75150201  0.25780685  1
  O  O382  1  0.11440567  0.74384545  0.76018875  1
  O  O383  1  0.62726533  0.25646931  0.26449815  1
  O  O384  1  0.61710405  0.25924028  0.74942586  1
  O  O385  1  0.61803332  0.75963451  0.25505055  1
  O  O386  1  0.63137917  0.75584430  0.76523460  1
  O  O387  1  0.37017003  0.25211622  0.23899462  1
  O  O388  1  0.38155064  0.24017740  0.75172672  1
  O  O389  1  0.38051761  0.74579946  0.24552984  1
  O  O390  1  0.37459926  0.74523967  0.74787528  1
  O  O391  1  0.88966931  0.25116015  0.24496297  1
  O  O392  1  0.88887168  0.24565140  0.74598752  1
  O  O393  1  0.88941825  0.74784659  0.25966984  1
  O  O394  1  0.88066463  0.74448896  0.74290500  1
  O  O395  1  0.36592185  0.48192623  0.49717359  1
  O  O396  1  0.38273432  0.48653121  0.99854216  1
  O  O397  1  0.37865068  0.99551365  0.49323203  1
  O  O398  1  0.37822038  0.98955117  0.99446178  1
  O  O399  1  0.88536950  0.49825362  0.48861940  1
  O  O400  1  0.88501895  0.50593214  0.99009953  1
  O  O401  1  0.88198314  0.99568183  0.49617221  1
  O  O402  1  0.87311241  0.99594221  0.99611537  1
  O  O403  1  0.13776521  0.00982093  -0.00000481  1
  O  O404  1  0.12075867  0.00241707  0.50411275  1
  O  O405  1  0.11687453  0.51281919  -0.00560681  1
  O  O406  1  0.11132384  0.50511734  0.49792626  1
  O  O407  1  0.62799863  0.01382131  -0.00429229  1
  O  O408  1  0.61886107  0.00794685  0.50230143  1
  O  O409  1  0.61414388  0.49504870  0.00594851  1
  O  O410  1  0.62707508  0.50863050  0.51201605  1
  O  O411  1  0.37778025  0.36851201  0.11691391  1
  O  O412  1  0.36494830  0.37640380  0.61554436  1
  O  O413  1  0.37081395  0.87170388  0.11871105  1
  O  O414  1  0.39280810  0.86446211  0.63124627  1
  O  O415  1  0.86578288  0.36225165  0.12689543  1
  O  O416  1  0.91327222  0.36538010  0.61225596  1
  O  O417  1  0.88243785  0.88261364  0.11652024  1
  O  O418  1  0.87059705  0.87254748  0.61250743  1
  O  O419  1  0.12692495  0.13574180  0.38262653  1
  O  O420  1  0.13368152  0.12785340  0.88408937  1
  O  O421  1  0.13624384  0.63248064  0.37403199  1
  O  O422  1  0.13124697  0.63331285  0.88144539  1
  O  O423  1  0.62757847  0.13378127  0.38084026  1
  O  O424  1  0.62794245  0.12730314  0.88171345  1
  O  O425  1  0.62598978  0.62634589  0.38217064  1
  O  O426  1  0.63444582  0.63088777  0.86689892  1
