# generated using pymatgen
data_V85Zn86O256
_symmetry_space_group_name_H-M   'P 1'
_cell_length_a   16.96095915
_cell_length_b   16.95695690
_cell_length_c   16.95413957
_cell_angle_alpha   90.02250998
_cell_angle_beta   90.04110393
_cell_angle_gamma   89.96680341
_symmetry_Int_Tables_number   1
_chemical_formula_structural   V85Zn86O256
_chemical_formula_sum   'V85 Zn86 O256'
_cell_volume   4876.11410891
_cell_formula_units_Z   1
loop_
 _symmetry_equiv_pos_site_id
 _symmetry_equiv_pos_as_xyz
  1  'x, y, z'
loop_
 _atom_site_type_symbol
 _atom_site_label
 _atom_site_symmetry_multiplicity
 _atom_site_fract_x
 _atom_site_fract_y
 _atom_site_fract_z
 _atom_site_occupancy
  V  V0  1  0.37797411  0.62076726  0.75262399  1
  V  V1  1  -0.00239555  0.49680853  0.49781627  1
  V  V2  1  0.75284849  0.12796660  0.37487667  1
  V  V3  1  0.37522125  0.74740770  0.62285228  1
  V  V4  1  0.87410855  0.37730233  -0.00219448  1
  V  V5  1  0.24344397  0.36552104  0.13062390  1
  V  V6  1  0.63229368  0.63342799  0.00385451  1
  V  V7  1  0.24657803  0.62320508  0.37050879  1
  V  V8  1  0.00043593  0.12278775  0.12080336  1
  V  V9  1  0.61552388  0.12679835  0.00774852  1
  V  V10  1  0.87609833  0.25189985  0.12544896  1
  V  V11  1  0.00548029  0.62764921  0.62849456  1
  V  V12  1  0.87203674  0.00118097  0.86758414  1
  V  V13  1  0.88042679  0.75320894  0.62297425  1
  V  V14  1  0.75017999  0.25161471  0.00430695  1
  V  V15  1  0.10940496  -0.00379264  0.62626198  1
  V  V16  1  0.50521236  0.62953047  0.62754012  1
  V  V17  1  0.37666987  0.49830867  0.87613329  1
  V  V18  1  0.01482438  0.25291091  0.24497920  1
  V  V19  1  0.50075612  0.36653774  0.37368067  1
  V  V20  1  0.86519626  0.87086468  0.00136846  1
  V  V21  1  0.37873881  0.13737677  0.24387883  1
  V  V22  1  0.62689123  0.36827420  0.24814751  1
  V  V23  1  0.74834145  0.74637643  0.48437805  1
  V  V24  1  0.24830685  0.00000226  0.74737886  1
  V  V25  1  0.25156150  0.48831560  0.74715161  1
  V  V26  1  0.74884464  0.88147162  0.61910059  1
  V  V27  1  0.62669501  0.87545232  0.25550384  1
  V  V28  1  0.49629782  0.24971939  0.75062535  1
  V  V29  1  0.37505718  0.49691048  0.37328263  1
  V  V30  1  0.25047269  0.77047788  0.00757160  1
  V  V31  1  0.49912243  0.62584729  0.12381019  1
  V  V32  1  0.00241989  0.37160463  0.36997979  1
  V  V33  1  0.49997770  0.87004778  0.37807840  1
  V  V34  1  0.13219645  0.25367604  0.86837312  1
  V  V35  1  -0.00427574  0.75287868  0.24071296  1
  V  V36  1  0.00483191  0.49693844  -0.00570861  1
  V  V37  1  0.00559771  0.87773158  0.37728641  1
  V  V38  1  0.36666712  0.24963690  0.62649785  1
  V  V39  1  0.12883694  0.88213085  0.22490350  1
  V  V40  1  0.13100148  0.48801105  0.62199947  1
  V  V41  1  0.13320704  0.24603560  0.37322408  1
  V  V42  1  -0.00803239  0.14354670  0.63680562  1
  V  V43  1  0.24656295  0.74842130  0.49712297  1
  V  V44  1  -0.02915573  0.33907411  0.85183159  1
  V  V45  1  -0.00605019  0.62486749  0.12284514  1
  V  V46  1  0.87620628  0.63229827  0.74651314  1
  V  V47  1  0.87939295  0.50898040  0.87413391  1
  V  V48  1  0.62273819  0.37938318  0.74925507  1
  V  V49  1  0.50044601  0.37703989  0.87684127  1
  V  V50  1  0.62749098  0.62798771  0.48636975  1
  V  V51  1  0.62146782  0.25205410  0.87755239  1
  V  V52  1  0.36565877  0.00965240  0.37554194  1
  V  V53  1  0.12119286  0.11730712  0.49556863  1
  V  V54  1  0.12631963  0.62456561  0.49792079  1
  V  V55  1  0.88035378  0.00061075  0.37183510  1
  V  V56  1  0.62663199  0.50224173  0.62356823  1
  V  V57  1  0.24601075  0.49621942  0.24768631  1
  V  V58  1  0.62903882  0.12244429  0.50366070  1
  V  V59  1  0.75071347  0.00613627  0.24492036  1
  V  V60  1  0.25708007  0.11885256  0.87088882  1
  V  V61  1  0.74907660  0.12537479  0.86923354  1
  V  V62  1  0.87902217  0.87794651  0.49381095  1
  V  V63  1  0.12651476  0.75345575  0.36927699  1
  V  V64  1  0.75742511  0.37094228  0.62343331  1
  V  V65  1  0.63137028  0.75828192  0.87285488  1
  V  V66  1  0.75294629  0.51463696  0.25673840  1
  V  V67  1  0.37785257  0.37480025  0.00907276  1
  V  V68  1  0.50456730  -0.00088411  0.50357148  1
  V  V69  1  0.49977697  0.12520577  0.62484624  1
  V  V70  1  0.23991625  0.87421333  0.62586340  1
  V  V71  1  0.37283155  0.62486198  0.24877463  1
  V  V72  1  0.63078050  0.87555880  0.74393103  1
  V  V73  1  0.12824816  0.11867821  -0.00062794  1
  V  V74  1  0.37232833  0.87390042  0.49721945  1
  V  V75  1  0.25039164  0.62223956  0.88230980  1
  V  V76  1  0.36685603  0.37410838  0.50240237  1
  V  V77  1  0.12091518  0.49464861  0.13640286  1
  V  V78  1  0.50321170  0.74837157  0.25487861  1
  V  V79  1  0.61060081  0.00644556  0.12488728  1
  V  V80  1  0.75340666  0.63552480  0.87891087  1
  V  V81  1  0.45955435  0.79755135  0.79483864  1
  V  V82  1  -0.00430649  0.00140261  -0.00336853  1
  V  V83  1  0.25513456  0.24554853  0.00481016  1
  V  V84  1  0.37024941  0.76653298  0.12751577  1
  Zn  Zn85  1  0.24821865  0.24479288  0.50127090  1
  Zn  Zn86  1  0.24706431  0.00173399  0.24558618  1
  Zn  Zn87  1  0.74958190  0.50466558  0.75032077  1
  Zn  Zn88  1  0.74777093  0.01015699  0.73842589  1
  Zn  Zn89  1  0.01033310  0.87329812  0.86182749  1
  Zn  Zn90  1  0.62868786  0.50470149  0.12664018  1
  Zn  Zn91  1  0.50099808  0.49862609  0.49831280  1
  Zn  Zn92  1  0.42937103  0.20375706  0.07975684  1
  Zn  Zn93  1  0.50246408  0.50659762  -0.00092565  1
  Zn  Zn94  1  0.86229248  0.74245824  0.12221741  1
  Zn  Zn95  1  0.43980612  0.92214316  0.93856328  1
  Zn  Zn96  1  0.87740146  0.12877833  0.25024501  1
  Zn  Zn97  1  0.62618677  0.24823382  0.37651052  1
  Zn  Zn98  1  0.86806746  0.50973615  0.37553723  1
  Zn  Zn99  1  0.12208341  0.75210039  0.85969564  1
  Zn  Zn100  1  0.12663097  0.62472128  -0.00179822  1
  Zn  Zn101  1  0.75297672  0.38144512  0.12931631  1
  Zn  Zn102  1  0.41325663  0.07491389  0.79016805  1
  Zn  Zn103  1  0.87765058  0.36817513  0.49875388  1
  Zn  Zn104  1  0.12415089  0.36864693  0.74479703  1
  Zn  Zn105  1  0.74697198  0.87431345  0.12228564  1
  Zn  Zn106  1  0.75882919  0.24289074  0.50813778  1
  Zn  Zn107  1  0.20834746  0.15067780  0.17006505  1
  Zn  Zn108  1  0.18348322  0.17868739  0.68586850  1
  Zn  Zn109  1  0.18013063  0.68711440  0.18133418  1
  Zn  Zn110  1  0.19433353  0.67659809  0.68525458  1
  Zn  Zn111  1  0.55796052  0.18873641  0.19839566  1
  Zn  Zn112  1  0.68105763  0.19050970  0.68637777  1
  Zn  Zn113  1  0.68752074  0.69161988  0.19123875  1
  Zn  Zn114  1  0.69303804  0.69458069  0.68530477  1
  Zn  Zn115  1  0.31293626  0.30866303  0.31025094  1
  Zn  Zn116  1  0.31674973  0.30884629  0.81639001  1
  Zn  Zn117  1  0.30934634  0.81793113  0.30697938  1
  Zn  Zn118  1  0.28510146  0.81373893  0.81546697  1
  Zn  Zn119  1  0.81669518  0.31468231  0.31282432  1
  Zn  Zn120  1  0.80224706  0.31466637  0.81220889  1
  Zn  Zn121  1  0.81273018  0.81264367  0.30548615  1
  Zn  Zn122  1  0.82095628  0.81868581  0.80884921  1
  Zn  Zn123  1  0.18441557  0.43261032  0.43318966  1
  Zn  Zn124  1  0.19033423  0.43322635  0.93853352  1
  Zn  Zn125  1  0.18400261  0.93863938  0.44047407  1
  Zn  Zn126  1  0.18190668  0.93808934  0.93161435  1
  Zn  Zn127  1  0.68776744  0.43925930  0.43674528  1
  Zn  Zn128  1  0.68931985  0.44605041  0.93820475  1
  Zn  Zn129  1  0.69005183  0.94012373  0.43591229  1
  Zn  Zn130  1  0.68355321  0.94250571  0.93805944  1
  Zn  Zn131  1  0.31058364  0.03188993  0.06982061  1
  Zn  Zn132  1  0.30915372  0.06339960  0.56246402  1
  Zn  Zn133  1  0.31541721  0.55903055  0.06660025  1
  Zn  Zn134  1  0.31300431  0.55960132  0.56141538  1
  Zn  Zn135  1  0.80875689  0.06433592  0.06014052  1
  Zn  Zn136  1  0.82272327  0.06304181  0.55991085  1
  Zn  Zn137  1  0.81138222  0.56158265  0.06451889  1
  Zn  Zn138  1  0.81136841  0.56195596  0.55913291  1
  Zn  Zn139  1  0.44127809  0.43380081  0.18726491  1
  Zn  Zn140  1  0.43936102  0.43667003  0.68262977  1
  Zn  Zn141  1  0.43764774  0.94111585  0.19443378  1
  Zn  Zn142  1  0.43395378  0.93577918  0.67704859  1
  Zn  Zn143  1  0.93561433  0.43651542  0.19084816  1
  Zn  Zn144  1  0.93914636  0.44356335  0.68853981  1
  Zn  Zn145  1  0.93970659  0.93735457  0.18424173  1
  Zn  Zn146  1  0.93034215  0.94174132  0.68768121  1
  Zn  Zn147  1  0.06178321  0.06321744  0.30735669  1
  Zn  Zn148  1  0.06449775  0.06245238  0.81128812  1
  Zn  Zn149  1  0.02848997  0.58066038  0.32603060  1
  Zn  Zn150  1  0.06788097  0.56536956  0.80855881  1
  Zn  Zn151  1  0.56147986  0.05731227  0.32103593  1
  Zn  Zn152  1  0.57420424  0.05623855  0.81638671  1
  Zn  Zn153  1  0.56213693  0.55460307  0.31015963  1
  Zn  Zn154  1  0.56413860  0.56773361  0.81419002  1
  Zn  Zn155  1  0.43795078  0.18877141  0.44047309  1
  Zn  Zn156  1  0.43583942  0.08530512  0.94904644  1
  Zn  Zn157  1  0.43765189  0.68380928  0.43856602  1
  Zn  Zn158  1  0.45976228  0.73177763  0.96473143  1
  Zn  Zn159  1  0.94068424  0.18817553  0.44309798  1
  Zn  Zn160  1  0.93341182  0.18718147  0.92626914  1
  Zn  Zn161  1  0.93875138  0.69128475  0.43723964  1
  Zn  Zn162  1  0.94191371  0.69063848  0.93871240  1
  Zn  Zn163  1  0.06319298  0.31109199  0.05180317  1
  Zn  Zn164  1  0.06048467  0.30721534  0.55827613  1
  Zn  Zn165  1  0.05276338  0.80376095  0.03489080  1
  Zn  Zn166  1  0.06139474  0.81312094  0.69490052  1
  Zn  Zn167  1  0.56806075  0.31999563  0.06320457  1
  Zn  Zn168  1  0.56305562  0.31125662  0.55906932  1
  Zn  Zn169  1  0.56853160  0.81668165  0.06725998  1
  Zn  Zn170  1  0.56529251  0.80856952  0.56315561  1
  O  O171  1  0.10939805  0.14156230  0.10679041  1
  O  O172  1  0.11508049  0.11360844  0.61836561  1
  O  O173  1  0.11808342  0.60960363  0.11748840  1
  O  O174  1  0.11975993  0.61449104  0.61719248  1
  O  O175  1  0.62203346  0.11440413  0.12438197  1
  O  O176  1  0.61227678  0.12756103  0.61717929  1
  O  O177  1  0.61774360  0.62928004  0.11853188  1
  O  O178  1  0.61970349  0.62127875  0.62360613  1
  O  O179  1  0.38106535  0.37823781  0.37850980  1
  O  O180  1  0.37977541  0.37876703  0.88714423  1
  O  O181  1  0.38072303  0.88201020  0.37935074  1
  O  O182  1  0.39075057  0.85227914  0.85268548  1
  O  O183  1  0.89095519  0.38089470  0.37483187  1
  O  O184  1  0.87115332  0.39515252  0.87741467  1
  O  O185  1  0.88099822  0.88097226  0.37543627  1
  O  O186  1  0.87526819  0.88460506  0.88656776  1
  O  O187  1  0.26428741  -0.00583302  0.37750752  1
  O  O188  1  0.24719976  0.00732475  0.86184104  1
  O  O189  1  0.25368164  0.50121746  0.36629964  1
  O  O190  1  0.25633757  0.50322010  0.86821963  1
  O  O191  1  0.76025234  0.00825687  0.36951540  1
  O  O192  1  0.75255863  0.01077626  0.87478868  1
  O  O193  1  0.75168682  0.49907036  0.36349651  1
  O  O194  1  0.76286762  0.51600550  0.87432839  1
  O  O195  1  0.24063267  0.49066132  0.12870430  1
  O  O196  1  0.24191846  0.50493157  0.63380268  1
  O  O197  1  0.22804620  1.03775610  0.13750892  1
  O  O198  1  0.23830127  0.99101838  0.62538761  1
  O  O199  1  0.74801933  0.50012695  0.13689275  1
  O  O200  1  0.73948243  0.49489987  0.62694637  1
  O  O201  1  0.74154819  0.99986703  0.13321425  1
  O  O202  1  0.75867303  0.98605357  0.62102486  1
  O  O203  1  0.00137733  0.36563202  0.25613791  1
  O  O204  1  0.00401882  0.38311946  0.76358269  1
  O  O205  1  0.01047180  0.87130758  0.25255912  1
  O  O206  1  -0.01938271  0.86555704  0.75111257  1
  O  O207  1  0.51631912  0.38583396  0.25973466  1
  O  O208  1  0.50551121  0.37066856  0.75395898  1
  O  O209  1  0.50481461  0.86916685  0.26012521  1
  O  O210  1  0.50927855  0.86983265  0.73648301  1
  O  O211  1  0.48866978  0.12021046  0.25988046  1
  O  O212  1  0.50418266  0.13213162  0.74181703  1
  O  O213  1  0.49620420  0.63267175  0.24693784  1
  O  O214  1  0.49209477  0.61802742  0.73689791  1
  O  O215  1  0.99707720  0.13219299  0.23666662  1
  O  O216  1  1.00578667  0.12321885  0.73529460  1
  O  O217  1  1.01683937  0.64211865  0.23180965  1
  O  O218  1  0.99368460  0.61848192  0.73529176  1
  O  O219  1  0.36356688  0.25818245  0.00159061  1
  O  O220  1  0.37070809  0.25533056  0.50774762  1
  O  O221  1  0.35760856  0.74371212  0.01529674  1
  O  O222  1  0.36589137  0.75328292  0.50171493  1
  O  O223  1  0.86909067  0.25696619  0.00130002  1
  O  O224  1  0.87030522  0.25523566  0.49661641  1
  O  O225  1  0.87564870  0.76807609  0.00124701  1
  O  O226  1  0.87093153  0.75783442  0.50272297  1
  O  O227  1  0.12778314  0.23970231  0.49149926  1
  O  O228  1  0.13977654  0.24463117  0.99041688  1
  O  O229  1  0.13575700  0.73914499  0.48951324  1
  O  O230  1  0.14915688  0.74171533  1.01404928  1
  O  O231  1  0.63156846  0.23638212  0.49769740  1
  O  O232  1  0.63402623  0.24878309  0.99737657  1
  O  O233  1  0.63628260  0.74023848  0.50289114  1
  O  O234  1  0.62772086  0.74077912  0.98927832  1
  O  O235  1  0.50421909  0.26313359  0.13370495  1
  O  O236  1  0.49553136  0.24371005  0.63128797  1
  O  O237  1  0.49240178  0.74243446  0.13590867  1
  O  O238  1  0.49032154  0.74041771  0.62087920  1
  O  O239  1  0.99469131  0.24829198  0.12653414  1
  O  O240  1  1.00333458  0.24390743  0.63293811  1
  O  O241  1  0.99939819  0.74089154  0.12316955  1
  O  O242  1  0.98789311  0.74052899  0.62005523  1
  O  O243  1  0.00667377  0.25365682  0.36389902  1
  O  O244  1  0.02725713  0.24725611  0.88982917  1
  O  O245  1  0.00894895  0.75935874  0.36122952  1
  O  O246  1  0.02077315  0.76565368  0.91775688  1
  O  O247  1  0.50218414  0.26282275  0.37979390  1
  O  O248  1  0.50723954  0.26060818  0.86450374  1
  O  O249  1  0.49195997  0.76184680  0.37068455  1
  O  O250  1  0.51353951  0.73463127  0.85882982  1
  O  O251  1  0.22890218  0.12633243  0.50791248  1
  O  O252  1  0.24279390  0.12996987  0.99125934  1
  O  O253  1  0.24654561  0.62757101  0.49059321  1
  O  O254  1  0.25241546  0.61315201  0.98690989  1
  O  O255  1  0.74444168  0.12079827  0.49504259  1
  O  O256  1  0.73802423  0.13539948  0.99627694  1
  O  O257  1  0.74052703  0.63350858  0.50216593  1
  O  O258  1  0.74570086  0.62496539  0.99123747  1
  O  O259  1  0.25749505  0.36693718  0.00914547  1
  O  O260  1  0.26341987  0.37112507  0.49471384  1
  O  O261  1  0.24989635  0.86904700  -0.00070787  1
  O  O262  1  0.25080300  0.86813156  0.50838557  1
  O  O263  1  0.75628337  0.37124080  -0.00050259  1
  O  O264  1  0.74917956  0.37673787  0.51508727  1
  O  O265  1  0.76201755  0.88341147  0.00039695  1
  O  O266  1  0.75574330  0.86786200  0.50120582  1
  O  O267  1  0.12682904  0.49970425  0.23837835  1
  O  O268  1  0.13501849  0.49734706  0.74063057  1
  O  O269  1  0.12297008  0.98464626  0.25197090  1
  O  O270  1  0.13260266  1.00322018  0.73345284  1
  O  O271  1  0.63676704  0.49184761  0.25007817  1
  O  O272  1  0.62680204  0.49702863  0.74292955  1
  O  O273  1  0.62964438  0.99693736  0.24318469  1
  O  O274  1  0.63195007  0.98202102  0.75325487  1
  O  O275  1  0.37399978  0.00240961  0.26624716  1
  O  O276  1  0.35578838  -0.00281857  0.73307683  1
  O  O277  1  0.36834415  0.50487983  0.25421805  1
  O  O278  1  0.37047193  0.50327721  0.75166448  1
  O  O279  1  0.86767100  0.00044903  0.25432134  1
  O  O280  1  0.86519307  -0.00054065  0.76358941  1
  O  O281  1  0.85693223  0.49415219  0.25062506  1
  O  O282  1  0.87443050  0.51467849  0.75739839  1
  O  O283  1  0.11368358  0.35921783  0.37957191  1
  O  O284  1  0.12879484  0.36016378  0.87198307  1
  O  O285  1  0.11895595  0.86922388  0.37466824  1
  O  O286  1  0.12762735  0.86931119  0.86435485  1
  O  O287  1  0.61827147  0.37406069  0.36924940  1
  O  O288  1  0.62180154  0.37436890  0.87024129  1
  O  O289  1  0.61480177  0.88345167  0.36436624  1
  O  O290  1  0.63161809  0.86412775  0.86821005  1
  O  O291  1  0.37820589  0.12101156  0.13953200  1
  O  O292  1  0.38943695  0.13382760  0.61667687  1
  O  O293  1  0.38198001  0.62910846  0.13305537  1
  O  O294  1  0.38036848  0.62687103  0.63332130  1
  O  O295  1  0.88103739  0.13930091  0.11957770  1
  O  O296  1  0.89295422  0.12354967  0.62235043  1
  O  O297  1  0.88939011  0.62482013  0.12077074  1
  O  O298  1  0.88141530  0.62992032  0.62905307  1
  O  O299  1  0.24481664  0.25331541  0.11721000  1
  O  O300  1  0.26419445  0.24312115  0.63008635  1
  O  O301  1  0.25920964  0.74738566  0.11866250  1
  O  O302  1  0.25447484  0.75318223  0.61646286  1
  O  O303  1  0.76061397  0.25656449  0.11070822  1
  O  O304  1  0.74479201  0.26723235  0.62844042  1
  O  O305  1  0.75207631  0.76148451  0.13622955  1
  O  O306  1  0.76443277  0.75786994  0.61409494  1
  O  O307  1  0.23571594  0.25322625  0.37441952  1
  O  O308  1  0.24529494  0.24397291  0.88190713  1
  O  O309  1  0.24535988  0.74537452  0.37590834  1
  O  O310  1  0.25039191  0.73999841  0.89371351  1
  O  O311  1  0.75286282  0.23450139  0.37238970  1
  O  O312  1  0.74048202  0.24543932  0.88465444  1
  O  O313  1  0.75717339  0.75209548  0.38500750  1
  O  O314  1  0.74643981  0.74283482  0.86931523  1
  O  O315  1  0.00333053  0.11917868  0.00080473  1
  O  O316  1  0.01551375  0.13010995  0.51281452  1
  O  O317  1  0.00347269  0.61285216  0.00626090  1
  O  O318  1  0.00818068  0.61794568  0.51167313  1
  O  O319  1  0.51311406  0.14519770  0.00586073  1
  O  O320  1  0.50836196  0.11788243  0.50364991  1
  O  O321  1  0.50791535  0.63241102  0.01041514  1
  O  O322  1  0.50588471  0.62315292  0.51189936  1
  O  O323  1  0.49223279  0.37695259  0.49123681  1
  O  O324  1  0.49353386  0.37964906  0.99473774  1
  O  O325  1  0.49646636  0.87947862  0.49648520  1
  O  O326  1  0.49741176  0.83974613  0.98632329  1
  O  O327  1  0.99941896  0.38173341  0.49459112  1
  O  O328  1  0.98995882  0.37682727  0.97810545  1
  O  O329  1  0.99000973  0.86903977  0.47938343  1
  O  O330  1  0.98751137  0.89532405  1.00459528  1
  O  O331  1  0.48929226  0.49124282  0.37683586  1
  O  O332  1  0.49400689  0.49566274  0.87518346  1
  O  O333  1  0.49053674  0.98850512  0.38672746  1
  O  O334  1  0.48249134  1.01403673  0.86756913  1
  O  O335  1  1.01794461  0.48587289  0.39020663  1
  O  O336  1  0.98990073  0.51085746  0.88023696  1
  O  O337  1  0.98821846  0.99288820  0.36583616  1
  O  O338  1  0.99000781  1.00211121  0.87968265  1
  O  O339  1  -0.00860843  0.01691339  0.11600925  1
  O  O340  1  0.00862503  -0.00087008  0.62486530  1
  O  O341  1  0.00438797  0.50111531  0.11776130  1
  O  O342  1  0.00854424  0.50456913  0.61545242  1
  O  O343  1  0.51211987  -0.00206766  0.12884398  1
  O  O344  1  0.49525786  0.00721036  0.61095893  1
  O  O345  1  0.50189785  0.51584346  0.12557348  1
  O  O346  1  0.51254845  0.50646458  0.62189245  1
  O  O347  1  0.25546458  0.37769213  0.23635698  1
  O  O348  1  0.25242063  0.38585194  0.75439866  1
  O  O349  1  0.23405946  0.87877492  0.24530458  1
  O  O350  1  0.24927347  0.87920437  0.73220202  1
  O  O351  1  0.73797761  0.37765183  0.25196868  1
  O  O352  1  0.74139483  0.37996624  0.74145143  1
  O  O353  1  0.73999110  0.88848776  0.25540870  1
  O  O354  1  0.74740638  0.87422477  0.73584077  1
  O  O355  1  0.27421717  0.12458498  0.26238496  1
  O  O356  1  0.24746861  0.11377442  0.75684494  1
  O  O357  1  0.25172618  0.61859011  0.25263233  1
  O  O358  1  0.26067410  0.61305836  0.75863667  1
  O  O359  1  0.75537880  0.11232719  0.25918928  1
  O  O360  1  0.73811300  0.12768994  0.76348502  1
  O  O361  1  0.74378755  0.61363493  0.25379866  1
  O  O362  1  0.75959929  0.62554498  0.75580633  1
  O  O363  1  0.38099484  0.11128561  0.37752560  1
  O  O364  1  0.36034427  0.13710752  0.87327296  1
  O  O365  1  0.36769199  0.61738509  0.36893010  1
  O  O366  1  0.37049350  0.61746790  0.86129867  1
  O  O367  1  0.87241439  0.11566379  0.37498391  1
  O  O368  1  0.85839496  0.11423082  0.88305324  1
  O  O369  1  0.92179116  0.60900621  0.36691946  1
  O  O370  1  0.87287790  0.62932238  0.86843123  1
  O  O371  1  0.13343845  0.38059879  0.11562264  1
  O  O372  1  0.12236842  0.38451321  0.62459019  1
  O  O373  1  0.11598201  0.87415912  0.12831185  1
  O  O374  1  0.12656525  0.88620500  0.62175361  1
  O  O375  1  0.62962234  0.38289003  0.13831246  1
  O  O376  1  0.62918746  0.38443343  0.62849184  1
  O  O377  1  0.62476946  0.88742405  0.13741768  1
  O  O378  1  0.63803464  0.86789834  0.62978978  1
  O  O379  1  0.11567890  0.23790536  0.25571175  1
  O  O380  1  0.13535409  0.25047566  0.76406048  1
  O  O381  1  0.11987232  0.76378635  0.24950346  1
  O  O382  1  0.12572217  0.73808640  0.74553934  1
  O  O383  1  0.62681188  0.26470243  0.25640155  1
  O  O384  1  0.61379694  0.25893604  0.75437903  1
  O  O385  1  0.61052946  0.76055234  0.24977763  1
  O  O386  1  0.62918178  0.76177661  0.75658961  1
  O  O387  1  0.38101045  0.23697735  0.25392190  1
  O  O388  1  0.38867679  0.25613091  0.74276040  1
  O  O389  1  0.38220809  0.74528663  0.24609445  1
  O  O390  1  0.37631606  0.74078814  0.74514360  1
  O  O391  1  0.88332281  0.25002757  0.23840179  1
  O  O392  1  0.90251960  0.26353541  0.81932519  1
  O  O393  1  0.89222219  0.76012414  0.24222826  1
  O  O394  1  0.87104884  0.73947889  0.73898219  1
  O  O395  1  0.37575699  0.49196520  0.49248138  1
  O  O396  1  0.37908445  0.49234805  0.99422248  1
  O  O397  1  0.37950182  0.99447165  0.49261699  1
  O  O398  1  0.38184189  1.00017748  0.99685127  1
  O  O399  1  0.88603128  0.49604995  0.49833718  1
  O  O400  1  0.88528308  0.49737535  0.99433686  1
  O  O401  1  0.87160293  0.98519544  0.48766508  1
  O  O402  1  0.87781278  0.99777253  0.99066514  1
  O  O403  1  0.11422583  0.01250026  -0.00856005  1
  O  O404  1  0.12437777  0.00844188  0.51064006  1
  O  O405  1  0.11226623  0.49349203  0.00164644  1
  O  O406  1  0.12393572  0.50471133  0.50612551  1
  O  O407  1  0.62591086  0.01089477  0.01477666  1
  O  O408  1  0.61632274  0.00957757  0.49477207  1
  O  O409  1  0.62266444  0.51763709  0.00105174  1
  O  O410  1  0.62497043  0.50985636  0.50783275  1
  O  O411  1  0.36733135  0.38197196  0.11408781  1
  O  O412  1  0.38292942  0.36405498  0.61344062  1
  O  O413  1  0.37636666  0.86603125  0.13389017  1
  O  O414  1  0.36486658  0.86603310  0.61428314  1
  O  O415  1  0.87683429  0.36604705  0.11645306  1
  O  O416  1  0.85887004  0.38461949  0.63005531  1
  O  O417  1  0.87190471  0.88063501  0.10968758  1
  O  O418  1  0.87217482  0.86893177  0.61119290  1
  O  O419  1  0.11582843  0.12827428  0.38737997  1
  O  O420  1  0.13539100  0.13268387  0.87992572  1
  O  O421  1  0.12757429  0.63231389  0.37733539  1
  O  O422  1  0.13720006  0.62641154  0.87752142  1
  O  O423  1  0.63508935  0.12385679  0.38303465  1
  O  O424  1  0.62970660  0.13127865  0.88736514  1
  O  O425  1  0.61140233  0.62308107  0.38864676  1
  O  O426  1  0.63615824  0.63428054  0.87900779  1
