# generated using pymatgen
data_V85Zn86O256
_symmetry_space_group_name_H-M   'P 1'
_cell_length_a   16.95062372
_cell_length_b   16.94383244
_cell_length_c   16.94538711
_cell_angle_alpha   89.92583963
_cell_angle_beta   89.99049300
_cell_angle_gamma   90.06926346
_symmetry_Int_Tables_number   1
_chemical_formula_structural   V85Zn86O256
_chemical_formula_sum   'V85 Zn86 O256'
_cell_volume   4866.85198806
_cell_formula_units_Z   1
loop_
 _symmetry_equiv_pos_site_id
 _symmetry_equiv_pos_as_xyz
  1  'x, y, z'
loop_
 _atom_site_type_symbol
 _atom_site_label
 _atom_site_symmetry_multiplicity
 _atom_site_fract_x
 _atom_site_fract_y
 _atom_site_fract_z
 _atom_site_occupancy
  V  V0  1  0.37571298  0.75796024  0.62123143  1
  V  V1  1  0.88233156  0.12656858  0.74790906  1
  V  V2  1  0.12777371  0.75038291  0.87547059  1
  V  V3  1  0.74824648  0.50278388  0.75153189  1
  V  V4  1  0.37527077  0.49710662  0.87744683  1
  V  V5  1  0.12697440  0.00973832  0.61710540  1
  V  V6  1  0.50718399  0.62170371  0.12676309  1
  V  V7  1  0.25434951  0.61658045  0.37597038  1
  V  V8  1  0.37228761  0.36200232  0.00358020  1
  V  V9  1  0.62300387  0.37459795  0.75014845  1
  V  V10  1  0.49729200  0.38159052  0.37361850  1
  V  V11  1  0.74228154  0.50180202  0.24056549  1
  V  V12  1  0.49902754  0.75764118  0.25382632  1
  V  V13  1  0.37831287  -0.00102965  0.87385740  1
  V  V14  1  -0.00098706  0.50076094  0.50039018  1
  V  V15  1  0.87596185  0.86482697  -0.00119938  1
  V  V16  1  0.87459202  0.62772816  0.75316372  1
  V  V17  1  0.74711695  0.11968810  0.87930425  1
  V  V18  1  0.62336802  0.75844866  0.37704131  1
  V  V19  1  -0.00589695  0.62432053  0.62742952  1
  V  V20  1  0.75221711  -0.01153469  0.74385157  1
  V  V21  1  0.74757379  0.37468324  0.62402167  1
  V  V22  1  0.74835717  0.36630745  0.11383958  1
  V  V23  1  0.88019556  0.24978180  0.62727642  1
  V  V24  1  0.00490090  0.00004075  0.01806003  1
  V  V25  1  0.37618847  0.74928950  0.12567947  1
  V  V26  1  0.50491481  0.24606040  0.74452372  1
  V  V27  1  0.87263699  0.37537812  0.49858615  1
  V  V28  1  0.37443604  0.37990129  0.49563622  1
  V  V29  1  0.25009917  0.75047937  0.49803521  1
  V  V30  1  0.37819858  0.61617411  0.25392298  1
  V  V31  1  0.88445506  0.13942830  0.23840890  1
  V  V32  1  0.12137075  0.87849909  0.24634827  1
  V  V33  1  0.87358647  0.00161044  0.37260280  1
  V  V34  1  0.63151335  0.75334020  0.87774434  1
  V  V35  1  0.25119881  0.00028308  0.74742240  1
  V  V36  1  0.12739405  0.24206812  0.89197283  1
  V  V37  1  0.12529209  0.61249518  0.00569829  1
  V  V38  1  0.23961617  0.49776340  0.24198275  1
  V  V39  1  -0.00943795  0.49060772  0.00059703  1
  V  V40  1  0.49760088  0.62635545  0.62445220  1
  V  V41  1  0.37952497  -0.01920729  0.37454364  1
  V  V42  1  0.62359888  0.62725104  0.50072102  1
  V  V43  1  0.74971074  0.62682726  0.37512329  1
  V  V44  1  0.50276103  0.49694180  0.00475019  1
  V  V45  1  0.74856363  0.87091093  0.12086203  1
  V  V46  1  0.12454979  0.62617842  0.50075812  1
  V  V47  1  0.49406794  0.00087078  0.50496588  1
  V  V48  1  0.25115349  0.62214254  0.87749878  1
  V  V49  1  0.63070740  0.00656752  0.61481018  1
  V  V50  1  0.24556723  0.24335285  0.49658835  1
  V  V51  1  0.25072846  0.74795675  0.00133655  1
  V  V52  1  0.87220863  0.50030528  0.37358969  1
  V  V53  1  0.12051774  0.74784861  0.37001949  1
  V  V54  1  0.62534028  0.24495220  0.88545478  1
  V  V55  1  0.37388312  0.62504196  0.75009322  1
  V  V56  1  0.11756521  0.35942404  0.75290607  1
  V  V57  1  0.13261147  0.11693261  0.01707099  1
  V  V58  1  0.12389171  0.49740159  0.62823130  1
  V  V59  1  0.87912468  0.75218418  0.13713100  1
  V  V60  1  0.38229918  0.12340460  0.74592751  1
  V  V61  1  0.24783225  0.49638985  0.75291862  1
  V  V62  1  0.88287249  -0.00193834  0.87383517  1
  V  V63  1  0.37436946  0.12569682  0.25156175  1
  V  V64  1  0.49476598  0.25074422  0.24563530  1
  V  V65  1  0.00462535  0.01239667  0.49461481  1
  V  V66  1  0.24958450  0.37301254  0.62553189  1
  V  V67  1  0.63082687  0.62541528  0.00139193  1
  V  V68  1  0.24719097  0.88341221  0.12547386  1
  V  V69  1  0.50561676  0.12599316  0.11926977  1
  V  V70  1  0.62429488  0.88247101  0.24955008  1
  V  V71  1  0.74319573  0.24685175  0.50024072  1
  V  V72  1  0.24673892  0.87562618  0.61651999  1
  V  V73  1  -0.00284317  0.87169780  0.37369576  1
  V  V74  1  0.37895566  0.24574950  0.62142566  1
  V  V75  1  0.11955494  0.24115325  0.37543945  1
  V  V76  1  0.00382803  0.62655875  0.13006688  1
  V  V77  1  0.37905981  0.87524411  -0.00021199  1
  V  V78  1  -0.00053312  0.75201066  0.74995712  1
  V  V79  1  0.07104865  0.32567648  0.19357062  1
  V  V80  1  0.62138126  0.24755477  0.37503209  1
  V  V81  1  0.75631196  0.75586092  0.51324098  1
  V  V82  1  0.00743464  0.37453905  0.37095662  1
  V  V83  1  0.74714361  0.12499531  0.37332995  1
  V  V84  1  0.25327721  0.36590508  0.12627950  1
  Zn  Zn85  1  0.76728727  0.24063085  0.00061669  1
  Zn  Zn86  1  0.24833974  0.00087512  0.25203371  1
  Zn  Zn87  1  0.12561266  0.87911894  0.75100720  1
  Zn  Zn88  1  0.75341313  0.62693800  0.88200287  1
  Zn  Zn89  1  0.87949835  0.63089483  0.25394745  1
  Zn  Zn90  1  0.62207722  0.37939798  0.24570988  1
  Zn  Zn91  1  0.63141177  0.00600225  0.10971358  1
  Zn  Zn92  1  0.00753153  0.13276503  0.62200242  1
  Zn  Zn93  1  0.50774157  0.00547558  -0.00518375  1
  Zn  Zn94  1  0.24865896  0.11937852  0.37589980  1
  Zn  Zn95  1  0.74937532  0.00377484  0.24676426  1
  Zn  Zn96  1  0.86757927  0.88113049  0.51317308  1
  Zn  Zn97  1  0.49412117  0.50440823  0.49486007  1
  Zn  Zn98  1  0.50260744  0.87346933  0.87201378  1
  Zn  Zn99  1  0.50050628  0.75163350  0.75217299  1
  Zn  Zn100  1  0.87372712  0.49426769  0.87744414  1
  Zn  Zn101  1  -0.01321539  0.35395260  0.87664139  1
  Zn  Zn102  1  0.62405537  0.87234997  0.74205043  1
  Zn  Zn103  1  0.49926586  0.37295330  0.87731228  1
  Zn  Zn104  1  0.00621564  0.87628994  0.87680366  1
  Zn  Zn105  1  0.62105259  0.50049557  0.62348621  1
  Zn  Zn106  1  0.25443967  0.12796525  0.88173069  1
  Zn  Zn107  1  0.19012662  0.18573965  0.19060234  1
  Zn  Zn108  1  0.19440176  0.18533887  0.68799730  1
  Zn  Zn109  1  0.18810006  0.68971929  0.18858135  1
  Zn  Zn110  1  0.18571355  0.68655976  0.68784520  1
  Zn  Zn111  1  0.68584361  0.19058640  0.19046163  1
  Zn  Zn112  1  0.69259872  0.18080086  0.69093601  1
  Zn  Zn113  1  0.68930102  0.69180792  0.18752643  1
  Zn  Zn114  1  0.68500752  0.68830507  0.69010459  1
  Zn  Zn115  1  0.31155425  0.31244600  0.31220995  1
  Zn  Zn116  1  0.31033563  0.30998664  0.81508663  1
  Zn  Zn117  1  0.30776993  0.80672656  0.30916103  1
  Zn  Zn118  1  0.31317624  0.81383191  0.80915913  1
  Zn  Zn119  1  0.81172929  0.31578535  0.30801046  1
  Zn  Zn120  1  0.81020511  0.30909863  0.81504901  1
  Zn  Zn121  1  0.80805283  0.81603166  0.31574410  1
  Zn  Zn122  1  0.81390381  0.80974848  0.81398987  1
  Zn  Zn123  1  0.18851841  0.43674630  0.43620061  1
  Zn  Zn124  1  0.18343267  0.42929230  0.94103773  1
  Zn  Zn125  1  0.18650437  0.93818762  0.43472929  1
  Zn  Zn126  1  0.19084927  0.93914009  0.93792967  1
  Zn  Zn127  1  0.68332863  0.43818238  0.43523012  1
  Zn  Zn128  1  0.68480751  0.43780236  0.93551235  1
  Zn  Zn129  1  0.68462287  0.93772520  0.44129110  1
  Zn  Zn130  1  0.69180017  0.93692146  0.93714310  1
  Zn  Zn131  1  0.31998348  0.06457206  0.06549299  1
  Zn  Zn132  1  0.31796739  0.06210308  0.55750012  1
  Zn  Zn133  1  0.31700371  0.55920588  0.06524209  1
  Zn  Zn134  1  0.31210324  0.56216599  0.56391739  1
  Zn  Zn135  1  0.81534902  0.05644034  0.06235935  1
  Zn  Zn136  1  0.81262995  0.06446182  0.55943823  1
  Zn  Zn137  1  0.81655715  0.56486999  0.06618534  1
  Zn  Zn138  1  0.80989907  0.56511491  0.56463562  1
  Zn  Zn139  1  0.43437597  0.43772622  0.18705690  1
  Zn  Zn140  1  0.43751501  0.43734064  0.68554916  1
  Zn  Zn141  1  0.43817105  0.94250113  0.18570388  1
  Zn  Zn142  1  0.44480187  0.93584951  0.68322904  1
  Zn  Zn143  1  0.92945373  0.44790315  0.18496091  1
  Zn  Zn144  1  0.93470171  0.43502379  0.69473368  1
  Zn  Zn145  1  0.93407554  0.93709909  0.19346152  1
  Zn  Zn146  1  0.93905485  0.93932795  0.68586364  1
  Zn  Zn147  1  0.05965022  0.06198547  0.30390416  1
  Zn  Zn148  1  0.06462420  0.06729106  0.81131021  1
  Zn  Zn149  1  0.06254808  0.56133476  0.31167360  1
  Zn  Zn150  1  0.06357493  0.55910776  0.81653945  1
  Zn  Zn151  1  0.55670114  0.06412874  0.31830860  1
  Zn  Zn152  1  0.56616696  0.05925989  0.80791604  1
  Zn  Zn153  1  0.56304688  0.56609216  0.31520348  1
  Zn  Zn154  1  0.56147916  0.56418899  0.81545646  1
  Zn  Zn155  1  0.43894087  0.18309722  0.43604306  1
  Zn  Zn156  1  0.43901681  0.18753474  0.93280675  1
  Zn  Zn157  1  0.43624001  0.69346881  0.43698840  1
  Zn  Zn158  1  0.44265038  0.68744913  0.93769528  1
  Zn  Zn159  1  0.93188412  0.18996318  0.43196803  1
  Zn  Zn160  1  0.94576867  0.17777297  0.93728824  1
  Zn  Zn161  1  0.93668892  0.68900619  0.43894522  1
  Zn  Zn162  1  0.94056548  0.68328297  0.93780182  1
  Zn  Zn163  1  -0.07140451  0.31382407  0.06391291  1
  Zn  Zn164  1  0.06311382  0.31373182  0.55768384  1
  Zn  Zn165  1  0.06175712  0.80959027  0.06226217  1
  Zn  Zn166  1  0.03107196  0.83429603  0.57995206  1
  Zn  Zn167  1  0.56623812  0.31470285  0.06737498  1
  Zn  Zn168  1  0.56146052  0.31207755  0.56088376  1
  Zn  Zn169  1  0.56420526  0.81145529  0.06168739  1
  Zn  Zn170  1  0.56226718  0.82306027  0.56099094  1
  O  O171  1  0.12956382  0.12266399  0.11561760  1
  O  O172  1  0.12697762  0.11469038  0.62754077  1
  O  O173  1  0.11832799  0.63426814  0.11556421  1
  O  O174  1  0.11861145  0.61555962  0.62152399  1
  O  O175  1  0.61056941  0.12311158  0.13289663  1
  O  O176  1  0.62440479  0.10586959  0.63795412  1
  O  O177  1  0.61432162  0.63367594  0.11918245  1
  O  O178  1  0.61422002  0.62680801  0.61799853  1
  O  O179  1  0.38375512  0.36908725  0.38473083  1
  O  O180  1  0.37466861  0.38150881  0.88219837  1
  O  O181  1  0.37146168  0.88209254  0.36922471  1
  O  O182  1  0.37462876  0.88074104  0.88255735  1
  O  O183  1  0.88323611  0.38311447  0.37694255  1
  O  O184  1  0.87971775  0.38249810  0.85767574  1
  O  O185  1  0.88142853  0.88289637  0.37695246  1
  O  O186  1  0.87874261  0.87948176  0.88316387  1
  O  O187  1  0.26403847  0.00040736  0.37675956  1
  O  O188  1  0.26239066  -0.00146417  0.86387604  1
  O  O189  1  0.24736951  0.51044366  0.36634853  1
  O  O190  1  0.25494422  0.50188735  0.87344642  1
  O  O191  1  0.75485666  0.00885033  0.37588854  1
  O  O192  1  0.76381947  0.00136720  0.86594550  1
  O  O193  1  0.75585419  0.50582019  0.37060647  1
  O  O194  1  0.74786420  0.50308124  0.86140712  1
  O  O195  1  0.25203822  0.49756650  0.13786478  1
  O  O196  1  0.24394181  0.49272271  0.63117502  1
  O  O197  1  0.25663777  0.98542480  0.12699160  1
  O  O198  1  0.24804369  0.99419514  0.62559940  1
  O  O199  1  0.75336704  0.49834932  0.13854798  1
  O  O200  1  0.74648549  0.49559865  0.63521087  1
  O  O201  1  0.74832117  0.98691892  0.12835417  1
  O  O202  1  0.74301298  1.00342272  0.62919475  1
  O  O203  1  0.00474888  0.38541711  0.25296131  1
  O  O204  1  0.01499742  0.38044055  0.75437576  1
  O  O205  1  0.00675288  0.87813131  0.26264367  1
  O  O206  1  0.00554367  0.86393901  0.75579884  1
  O  O207  1  0.49844886  0.36960377  0.25535093  1
  O  O208  1  0.51001770  0.36914313  0.74931589  1
  O  O209  1  0.50627874  0.86344568  0.24098642  1
  O  O210  1  0.50245407  0.86946477  0.75340074  1
  O  O211  1  0.49494262  0.13305443  0.24510742  1
  O  O212  1  0.48982830  0.13126950  0.75186196  1
  O  O213  1  0.49573461  0.63130908  0.24532963  1
  O  O214  1  0.49272617  0.62710499  0.74084537  1
  O  O215  1  0.98385417  0.12391605  0.24873098  1
  O  O216  1  0.98656768  0.11965768  0.74339545  1
  O  O217  1  0.99896626  0.61743588  0.23535926  1
  O  O218  1  0.99402482  0.62624684  0.74619327  1
  O  O219  1  0.37589701  0.26307823  -0.00824515  1
  O  O220  1  0.37215780  0.25689553  0.50610709  1
  O  O221  1  0.36999796  0.75495283  0.00366494  1
  O  O222  1  0.36372001  0.74443924  0.50986642  1
  O  O223  1  0.87982567  0.25007107  -0.01119056  1
  O  O224  1  0.86239790  0.25754235  0.50311633  1
  O  O225  1  0.88437036  0.76154680  0.00617729  1
  O  O226  1  0.85785560  0.74837692  0.49644597  1
  O  O227  1  0.13392813  0.25413851  0.48955790  1
  O  O228  1  0.12696324  0.22890145  0.99327920  1
  O  O229  1  0.13285542  0.74080096  0.48881299  1
  O  O230  1  0.13013846  0.74232073  0.98958821  1
  O  O231  1  0.63600083  0.25389289  0.49413635  1
  O  O232  1  0.62422897  0.25285139  0.98638748  1
  O  O233  1  0.62989010  0.74470308  0.49481983  1
  O  O234  1  0.62091231  0.74021401  0.98872407  1
  O  O235  1  0.50465027  0.24068151  0.13455270  1
  O  O236  1  0.49382711  0.25350104  0.63564669  1
  O  O237  1  0.49500950  0.74233205  0.13252780  1
  O  O238  1  0.49161238  0.74287721  0.62125350  1
  O  O239  1  1.01405166  0.27342312  0.13231959  1
  O  O240  1  0.98465745  0.25073850  0.61420622  1
  O  O241  1  0.99115010  0.74108078  0.12266096  1
  O  O242  1  1.01838764  0.73489904  0.64381305  1
  O  O243  1  0.00645892  0.26155147  0.38032737  1
  O  O244  1  0.02171370  0.24204356  0.87339841  1
  O  O245  1  0.00846833  0.75766424  0.38058838  1
  O  O246  1  0.01062105  0.74719196  0.86685025  1
  O  O247  1  0.50612260  0.25817009  0.37098040  1
  O  O248  1  0.50707946  0.25057566  0.86124896  1
  O  O249  1  0.50919447  0.74628836  0.36487104  1
  O  O250  1  0.51317294  0.74974075  0.87328776  1
  O  O251  1  0.25726443  0.13985200  0.49621872  1
  O  O252  1  0.23727733  0.11057591  1.00008910  1
  O  O253  1  0.24520176  0.62612527  0.49235259  1
  O  O254  1  0.24461138  0.62706235  0.99835014  1
  O  O255  1  0.75606917  0.13569722  0.48501615  1
  O  O256  1  0.75814679  0.11926053  0.98329102  1
  O  O257  1  0.74155868  0.63336026  0.49639480  1
  O  O258  1  0.73434766  0.61524935  1.00313549  1
  O  O259  1  0.25626108  0.38214900  0.01757217  1
  O  O260  1  0.25628105  0.36680503  0.50434178  1
  O  O261  1  0.25966567  0.86983432  0.00594306  1
  O  O262  1  0.24439608  0.86870419  0.51047521  1
  O  O263  1  0.74673944  0.37763809  0.01191960  1
  O  O264  1  0.75347282  0.37069829  0.50427450  1
  O  O265  1  0.76476133  0.87837450  0.00820198  1
  O  O266  1  0.75122895  0.86085924  0.49802949  1
  O  O267  1  0.14118163  0.50290515  0.25117839  1
  O  O268  1  0.13189355  0.49271305  0.74802770  1
  O  O269  1  0.12965209  0.98368152  0.25617834  1
  O  O270  1  0.13676433  1.00137800  0.74317414  1
  O  O271  1  0.63923614  0.50117578  0.25745493  1
  O  O272  1  0.62906802  0.49322150  0.74873588  1
  O  O273  1  0.62224148  0.98763282  0.25365437  1
  O  O274  1  0.63814210  0.99478951  0.74589600  1
  O  O275  1  0.37384286  0.00330780  0.26123246  1
  O  O276  1  0.37277020  0.00571393  0.75148324  1
  O  O277  1  0.36895877  0.51315879  0.24885205  1
  O  O278  1  0.36874739  0.50340509  0.75621189  1
  O  O279  1  0.87078593  0.00443357  0.26255118  1
  O  O280  1  0.87238465  0.00309615  0.75395235  1
  O  O281  1  0.86345433  0.50507125  0.26197189  1
  O  O282  1  0.86607521  0.51260196  0.74784569  1
  O  O283  1  0.11204474  0.37188673  0.37769609  1
  O  O284  1  0.12350318  0.35808767  0.87132987  1
  O  O285  1  0.12085142  0.86548362  0.36740374  1
  O  O286  1  0.12875983  0.86470591  0.87316670  1
  O  O287  1  0.61629589  0.36516690  0.37400467  1
  O  O288  1  0.62322009  0.36535814  0.86533596  1
  O  O289  1  0.63137581  0.86454274  0.36693641  1
  O  O290  1  0.62653738  0.86133458  0.87432719  1
  O  O291  1  0.38762298  0.11857659  0.14105137  1
  O  O292  1  0.37260087  0.13773123  0.62986019  1
  O  O293  1  0.38509524  0.63056275  0.13241423  1
  O  O294  1  0.37925543  0.63314831  0.62870610  1
  O  O295  1  0.86597041  0.12219597  0.14030377  1
  O  O296  1  0.87484418  0.13353941  0.62985797  1
  O  O297  1  0.88237501  0.63645465  0.12750459  1
  O  O298  1  0.88876584  0.62219664  0.63047779  1
  O  O299  1  0.25157117  0.26730575  0.13528437  1
  O  O300  1  0.25759228  0.25536479  0.61711263  1
  O  O301  1  0.25803632  0.75535079  0.11906264  1
  O  O302  1  0.25268929  0.75678522  0.62024017  1
  O  O303  1  0.74500433  0.26082400  0.11811894  1
  O  O304  1  0.75482561  0.25286015  0.61673965  1
  O  O305  1  0.76034000  0.76181893  0.12729658  1
  O  O306  1  0.74637510  0.74630194  0.61154582  1
  O  O307  1  0.23897261  0.25235627  0.38087255  1
  O  O308  1  0.23426331  0.24456543  0.86957782  1
  O  O309  1  0.24371589  0.73737682  0.37860796  1
  O  O310  1  0.24622680  0.74347174  0.88006756  1
  O  O311  1  0.74175043  0.24772674  0.38012279  1
  O  O312  1  0.74094069  0.23822054  0.87534318  1
  O  O313  1  0.74104591  0.74322934  0.38011665  1
  O  O314  1  0.73722799  0.74518935  0.87362096  1
  O  O315  1  0.01411219  0.10624903  -0.00047518  1
  O  O316  1  -0.00571344  0.11586563  0.49744775  1
  O  O317  1  0.00910414  0.62028245  0.00895659  1
  O  O318  1  0.00373469  0.62102401  0.50903634  1
  O  O319  1  0.49135962  0.12792929  0.01639712  1
  O  O320  1  0.50260648  0.10317877  0.48503555  1
  O  O321  1  0.50618512  0.61807076  0.00952313  1
  O  O322  1  0.50561560  0.62582770  0.50492353  1
  O  O323  1  0.49221023  0.37700768  0.49262697  1
  O  O324  1  0.49268949  0.38138069  1.00273542  1
  O  O325  1  0.51148496  0.89844649  0.49184024  1
  O  O326  1  0.48650258  0.87283767  0.99933984  1
  O  O327  1  0.99248383  0.38330009  0.49159570  1
  O  O328  1  1.00093361  0.38885671  0.99843811  1
  O  O329  1  1.00800559  0.89083909  0.48030049  1
  O  O330  1  0.99792430  0.88515940  0.99752834  1
  O  O331  1  0.50419786  0.48670747  0.37524230  1
  O  O332  1  0.49090078  0.49725071  0.88210762  1
  O  O333  1  0.48434600  0.99629630  0.37636497  1
  O  O334  1  0.48850815  0.99832046  0.87273145  1
  O  O335  1  0.99221869  0.49622960  0.37954782  1
  O  O336  1  0.99972759  0.50487379  0.89333540  1
  O  O337  1  0.99230885  0.99746687  0.37733231  1
  O  O338  1  0.99121046  0.99797488  0.87375775  1
  O  O339  1  -0.00076266  -0.00595717  0.11587532  1
  O  O340  1  0.01138109  0.00585568  0.61290288  1
  O  O341  1  -0.00481352  0.51015535  0.11096101  1
  O  O342  1  0.00400259  0.50520991  0.62119818  1
  O  O343  1  0.50459815  0.01356902  0.12357693  1
  O  O344  1  0.50556354  0.00354988  0.61225512  1
  O  O345  1  0.49647088  0.51010345  0.11888484  1
  O  O346  1  0.49830048  0.51425303  0.62108614  1
  O  O347  1  0.26138333  0.39031044  0.24198733  1
  O  O348  1  0.24274533  0.37838268  0.74433341  1
  O  O349  1  0.24174484  0.87282877  0.24079501  1
  O  O350  1  0.25126152  0.88574201  0.73750946  1
  O  O351  1  0.74681807  0.38884244  0.24600091  1
  O  O352  1  0.73784440  0.38037094  0.74390283  1
  O  O353  1  0.74013955  0.87714737  0.24284630  1
  O  O354  1  0.75555053  0.88563629  0.74943765  1
  O  O355  1  0.25933131  0.12075887  0.25239427  1
  O  O356  1  0.26427301  0.11305838  0.74763289  1
  O  O357  1  0.25717137  0.61681103  0.25454904  1
  O  O358  1  0.25448137  0.61729275  0.75614136  1
  O  O359  1  0.75377704  0.12535432  0.26109316  1
  O  O360  1  0.76270788  0.11295776  0.75866157  1
  O  O361  1  0.75080241  0.61675497  0.25524176  1
  O  O362  1  0.75770027  0.61863335  0.74817017  1
  O  O363  1  0.37385100  0.11930569  0.36275243  1
  O  O364  1  0.37323636  0.11715427  0.86635547  1
  O  O365  1  0.36605505  0.63025525  0.36676430  1
  O  O366  1  0.37002422  0.61819024  0.87182587  1
  O  O367  1  0.86641377  0.11897705  0.36662182  1
  O  O368  1  0.87266538  0.11455360  0.86595506  1
  O  O369  1  0.87020999  0.61744546  0.37478647  1
  O  O370  1  0.87176730  0.62096590  0.86748981  1
  O  O371  1  0.13927824  0.37707392  0.13689284  1
  O  O372  1  0.12855010  0.37802877  0.63289844  1
  O  O373  1  0.13407705  0.86422503  0.13409513  1
  O  O374  1  0.13087213  0.88772786  0.62806913  1
  O  O375  1  0.64089888  0.37815879  0.12931042  1
  O  O376  1  0.62909635  0.37799304  0.63085087  1
  O  O377  1  0.63309574  0.87275171  0.13198343  1
  O  O378  1  0.62137569  0.89555051  0.62771936  1
  O  O379  1  0.12285415  0.25759735  0.25539765  1
  O  O380  1  0.12893670  0.25736015  0.74881839  1
  O  O381  1  0.12995452  0.75689409  0.26365936  1
  O  O382  1  0.12271717  0.74816418  0.76341896  1
  O  O383  1  0.61352036  0.25531611  0.25860898  1
  O  O384  1  0.61968756  0.25560408  0.75128888  1
  O  O385  1  0.61838073  0.75812187  0.25746912  1
  O  O386  1  0.62374306  0.75049955  0.76259149  1
  O  O387  1  0.38705970  0.24270653  0.25666284  1
  O  O388  1  0.38219080  0.24367061  0.74361096  1
  O  O389  1  0.38264282  0.74105066  0.24637684  1
  O  O390  1  0.37319211  0.74166672  0.73989190  1
  O  O391  1  0.87329773  0.23901834  0.25295042  1
  O  O392  1  0.86615862  0.23951567  0.73727833  1
  O  O393  1  0.87293821  0.75179112  0.24121947  1
  O  O394  1  0.88496127  0.73759913  0.75467303  1
  O  O395  1  0.37356959  0.48448758  0.50553970  1
  O  O396  1  0.38519269  0.49504094  0.99513073  1
  O  O397  1  0.38329261  0.99758906  0.48918479  1
  O  O398  1  0.37846640  0.99229391  0.99037108  1
  O  O399  1  0.87621747  0.49658916  0.49117741  1
  O  O400  1  0.88646457  0.50448969  0.99739332  1
  O  O401  1  0.88127359  0.99943800  0.48868449  1
  O  O402  1  0.88951643  0.99287136  0.99344575  1
  O  O403  1  0.11518800  0.00443039  -0.00230272  1
  O  O404  1  0.11884919  0.00221130  0.50438954  1
  O  O405  1  0.11858138  0.50952537  -0.00252963  1
  O  O406  1  0.11923018  0.50489171  0.50582936  1
  O  O407  1  0.61993161  -0.00443479  -0.00314930  1
  O  O408  1  0.62400428  0.00617573  0.50986481  1
  O  O409  1  0.60923435  0.50703615  -0.00785639  1
  O  O410  1  0.62392845  0.51606865  0.50029020  1
  O  O411  1  0.36373734  0.37889229  0.11719746  1
  O  O412  1  0.37071564  0.36383045  0.62050377  1
  O  O413  1  0.36963915  0.86957861  0.11875394  1
  O  O414  1  0.36680765  0.86340754  0.62725834  1
  O  O415  1  0.85645354  0.37812873  0.12959417  1
  O  O416  1  0.86739000  0.36912836  0.62191292  1
  O  O417  1  0.87094764  0.86939659  0.12062042  1
  O  O418  1  0.92084454  0.86138088  0.61013510  1
  O  O419  1  0.12528675  0.13819494  0.36581221  1
  O  O420  1  0.13234883  0.13031952  0.87885902  1
  O  O421  1  0.13008055  0.62969879  0.37894665  1
  O  O422  1  0.13341080  0.62991974  0.88322696  1
  O  O423  1  0.63114867  0.13885682  0.36907704  1
  O  O424  1  0.63552044  0.13238396  0.86496158  1
  O  O425  1  0.62837148  0.63626201  0.38289358  1
  O  O426  1  0.62621271  0.63340483  0.88370241  1
