# generated using pymatgen
data_V85Zn86O256
_symmetry_space_group_name_H-M   'P 1'
_cell_length_a   16.93653821
_cell_length_b   16.92607689
_cell_length_c   16.93065163
_cell_angle_alpha   90.00517952
_cell_angle_beta   90.05306629
_cell_angle_gamma   90.02582643
_symmetry_Int_Tables_number   1
_chemical_formula_structural   V85Zn86O256
_chemical_formula_sum   'V85 Zn86 O256'
_cell_volume   4853.49288294
_cell_formula_units_Z   1
loop_
 _symmetry_equiv_pos_site_id
 _symmetry_equiv_pos_as_xyz
  1  'x, y, z'
loop_
 _atom_site_type_symbol
 _atom_site_label
 _atom_site_symmetry_multiplicity
 _atom_site_fract_x
 _atom_site_fract_y
 _atom_site_fract_z
 _atom_site_occupancy
  V  V0  1  0.87619137  0.38765711  0.49478297  1
  V  V1  1  0.37546015  0.37062383  0.49818128  1
  V  V2  1  0.00654556  0.25028085  0.75460529  1
  V  V3  1  0.37220318  0.12377398  0.25286422  1
  V  V4  1  0.87334681  0.49433513  0.88041623  1
  V  V5  1  0.37617922  0.37866807  -0.00570728  1
  V  V6  1  0.12760906  0.87264039  0.75322439  1
  V  V7  1  0.49936585  0.12699293  0.63486952  1
  V  V8  1  -0.00398781  0.49800525  0.00300873  1
  V  V9  1  0.37559789  0.87424396  0.49934343  1
  V  V10  1  0.36322374  0.24910010  0.12381064  1
  V  V11  1  0.12521429  0.49826148  0.12695264  1
  V  V12  1  0.87003400  0.12537327  0.75403166  1
  V  V13  1  0.50529542  -0.00134193  0.00003498  1
  V  V14  1  0.00256071  0.75129512  0.75355736  1
  V  V15  1  0.87763025  0.87908323  0.00231150  1
  V  V16  1  -0.00042671  0.25383943  0.26302508  1
  V  V17  1  0.12801236  0.38112530  0.75501750  1
  V  V18  1  0.50023063  0.12564569  0.12545960  1
  V  V19  1  0.12276324  0.61615942  0.50060993  1
  V  V20  1  0.74678039  0.74843973  0.00454314  1
  V  V21  1  0.75092268  0.25112958  0.49848183  1
  V  V22  1  0.12729732  0.00127583  0.61752147  1
  V  V23  1  0.88308562  0.62560705  0.25866352  1
  V  V24  1  0.25484022  0.01612363  0.74837195  1
  V  V25  1  0.00061554  0.63560677  0.12738192  1
  V  V26  1  0.62935056  0.85724807  0.25756467  1
  V  V27  1  -0.00030334  0.61654995  0.62373996  1
  V  V28  1  0.62511010  0.87828271  0.74553318  1
  V  V29  1  0.24655319  0.24232605  0.48654086  1
  V  V30  1  0.38586031  0.63323548  0.24322016  1
  V  V31  1  0.61781416  0.51632102  0.11707721  1
  V  V32  1  0.74712300  0.11997807  0.37159584  1
  V  V33  1  0.00293699  0.39315596  0.37926398  1
  V  V34  1  0.37594356  0.24503476  0.63722933  1
  V  V35  1  0.00456657  0.12699460  0.12659757  1
  V  V36  1  0.87412454  0.25991471  0.12592477  1
  V  V37  1  0.62215099  0.37739536  0.24717198  1
  V  V38  1  0.86710170  0.00213095  0.87798777  1
  V  V39  1  0.00065402  0.00004796  0.49666263  1
  V  V40  1  0.00253354  0.87661383  0.87833618  1
  V  V41  1  0.00495493  0.12779766  0.61884254  1
  V  V42  1  0.74954591  0.88086167  0.13258641  1
  V  V43  1  0.86844703  0.12004481  0.24879492  1
  V  V44  1  0.24922556  0.74803968  0.50092514  1
  V  V45  1  0.62817900  0.00234106  0.14222204  1
  V  V46  1  0.49897115  0.87771576  0.87256789  1
  V  V47  1  0.87570096  0.87451115  0.49934695  1
  V  V48  1  0.74720862  0.88427202  0.62426826  1
  V  V49  1  0.62472014  0.12392448  0.50565677  1
  V  V50  1  0.74867664  0.62589855  0.88013288  1
  V  V51  1  0.24976873  0.37845731  0.62856587  1
  V  V52  1  0.50408496  0.00037004  0.50519725  1
  V  V53  1  0.61941099  0.37110980  0.75275607  1
  V  V54  1  0.12123577  0.74706557  0.37364160  1
  V  V55  1  0.37579564  0.00236699  0.37451408  1
  V  V56  1  0.49908489  0.49921382  0.49962409  1
  V  V57  1  0.24972245  0.87633030  0.62484044  1
  V  V58  1  0.25413663  -0.00439448  0.25424335  1
  V  V59  1  0.00283737  0.37052730  0.88239174  1
  V  V60  1  0.74824128  0.37978063  0.11796132  1
  V  V61  1  0.74824762  0.50030289  0.75289938  1
  V  V62  1  0.75178579  0.61653449  0.37688816  1
  V  V63  1  0.62340318  0.74611981  0.88042030  1
  V  V64  1  0.62168910  0.62776208  0.49502731  1
  V  V65  1  0.50516421  0.86466352  0.37264655  1
  V  V66  1  0.24595510  0.75688644  -0.01462820  1
  V  V67  1  0.61721328  0.24354224  0.87371434  1
  V  V68  1  0.87761209  0.25131344  0.62335104  1
  V  V69  1  0.87433069  0.75069241  0.62642381  1
  V  V70  1  0.36824308  0.88126156  -0.00415823  1
  V  V71  1  0.24590023  0.60838965  0.86981166  1
  V  V72  1  0.37403137  0.50101559  0.37038313  1
  V  V73  1  -0.00293976  0.87003079  0.36907550  1
  V  V74  1  0.74520225  0.75064446  0.49601472  1
  V  V75  1  0.62505537  0.49981431  0.62616708  1
  V  V76  1  0.87525975  0.62573122  0.75263897  1
  V  V77  1  0.49401546  0.74943398  0.74857641  1
  V  V78  1  0.75557975  0.24774129  -0.00800138  1
  V  V79  1  0.23837702  0.23460281  -0.01338683  1
  V  V80  1  0.12383952  0.63092959  -0.00517412  1
  V  V81  1  0.37695170  0.01937345  0.86726716  1
  V  V82  1  0.37151237  0.60650142  0.75225407  1
  V  V83  1  0.12538689  0.86551851  0.24821505  1
  V  V84  1  0.12275819  0.00303276  0.12815669  1
  Zn  Zn85  1  0.74459621  0.00617695  0.75111505  1
  Zn  Zn86  1  0.04793928  0.05499962  -0.03802427  1
  Zn  Zn87  1  0.63400475  0.12036700  -0.00172299  1
  Zn  Zn88  1  0.13172230  0.37685718  0.25900226  1
  Zn  Zn89  1  0.50145423  0.37259215  0.37296832  1
  Zn  Zn90  1  0.25017411  0.87144918  0.12228704  1
  Zn  Zn91  1  0.37980288  0.73954217  0.11351528  1
  Zn  Zn92  1  0.49461442  0.37850236  0.87316089  1
  Zn  Zn93  1  0.49672424  0.62476806  0.62560986  1
  Zn  Zn94  1  0.37235382  0.74737180  0.62767974  1
  Zn  Zn95  1  0.86865899  -0.00456882  0.36974692  1
  Zn  Zn96  1  0.12668590  0.49854046  0.62617104  1
  Zn  Zn97  1  0.12699709  0.13067578  0.46384692  1
  Zn  Zn98  1  0.24999261  0.62427605  0.37035270  1
  Zn  Zn99  1  0.49339733  0.52066709  -0.00542265  1
  Zn  Zn100  1  0.75254830  0.49953200  0.25081037  1
  Zn  Zn101  1  0.25351855  0.50103858  0.24465816  1
  Zn  Zn102  1  0.87807645  0.75407249  0.13128993  1
  Zn  Zn103  1  0.24865116  0.37406885  0.12443912  1
  Zn  Zn104  1  0.75128575  0.37473689  0.62569655  1
  Zn  Zn105  1  0.49966681  0.25002991  0.25118548  1
  Zn  Zn106  1  0.62208633  0.25197036  0.37349561  1
  Zn  Zn107  1  0.16536048  0.16791377  0.25202956  1
  Zn  Zn108  1  0.18599085  0.19527218  0.68209132  1
  Zn  Zn109  1  0.19884957  0.68521217  0.18197870  1
  Zn  Zn110  1  0.18757998  0.68669619  0.68960493  1
  Zn  Zn111  1  0.68635353  0.19231859  0.18573120  1
  Zn  Zn112  1  0.68704928  0.18969996  0.68562355  1
  Zn  Zn113  1  0.69550553  0.68789120  0.19143496  1
  Zn  Zn114  1  0.68561750  0.68978815  0.68669839  1
  Zn  Zn115  1  0.31381601  0.31561462  0.30804812  1
  Zn  Zn116  1  0.30757114  0.30796567  0.81685498  1
  Zn  Zn117  1  0.31396518  0.81115760  0.31336119  1
  Zn  Zn118  1  0.31124439  0.81523190  0.81443144  1
  Zn  Zn119  1  0.81043218  0.31461149  0.31250582  1
  Zn  Zn120  1  0.81344269  0.31504685  0.81130863  1
  Zn  Zn121  1  0.81095144  0.80481605  0.31320995  1
  Zn  Zn122  1  0.81155514  0.81451057  0.81402934  1
  Zn  Zn123  1  0.19115399  0.43534344  0.43866996  1
  Zn  Zn124  1  0.18600984  0.42988718  0.94544452  1
  Zn  Zn125  1  0.18669087  0.93753666  0.43536180  1
  Zn  Zn126  1  0.18308725  0.96380960  0.92672594  1
  Zn  Zn127  1  0.68744431  0.43716508  0.43718827  1
  Zn  Zn128  1  0.68037371  0.43554611  0.93926618  1
  Zn  Zn129  1  0.68535033  0.94014745  0.43844700  1
  Zn  Zn130  1  0.68723598  0.93340822  0.93966381  1
  Zn  Zn131  1  0.31094362  0.06028320  0.06568023  1
  Zn  Zn132  1  0.31398840  0.06619735  0.56023899  1
  Zn  Zn133  1  0.31172122  0.56380686  0.05989530  1
  Zn  Zn134  1  0.31197145  0.56149435  0.56304560  1
  Zn  Zn135  1  0.81510744  0.06453694  0.06469935  1
  Zn  Zn136  1  0.81584658  0.06348960  0.56109680  1
  Zn  Zn137  1  0.81417465  0.56449940  0.06735938  1
  Zn  Zn138  1  0.80983957  0.56398645  0.56531191  1
  Zn  Zn139  1  0.43858960  0.43881872  0.18227635  1
  Zn  Zn140  1  0.44058533  0.43208526  0.68502516  1
  Zn  Zn141  1  0.47847771  0.88177707  0.15149069  1
  Zn  Zn142  1  0.43586740  0.93906386  0.68589749  1
  Zn  Zn143  1  0.93653660  0.44234526  0.19096583  1
  Zn  Zn144  1  0.93636066  0.43545655  0.68982148  1
  Zn  Zn145  1  0.93878229  0.93851836  0.18881545  1
  Zn  Zn146  1  0.93685111  0.94032025  0.68759786  1
  Zn  Zn147  1  0.05366646  0.05351863  0.30766521  1
  Zn  Zn148  1  0.06261963  0.05920853  0.79852665  1
  Zn  Zn149  1  0.06334785  0.56322723  0.31098686  1
  Zn  Zn150  1  0.06227560  0.56028145  0.81380172  1
  Zn  Zn151  1  0.55845641  0.06279278  0.31781358  1
  Zn  Zn152  1  0.56662391  0.06402503  0.81427663  1
  Zn  Zn153  1  0.56246144  0.56087079  0.31074361  1
  Zn  Zn154  1  0.55749434  0.56229055  0.81749140  1
  Zn  Zn155  1  0.43903988  0.18914801  0.43818865  1
  Zn  Zn156  1  0.43731306  0.19099420  0.94385657  1
  Zn  Zn157  1  0.43548381  0.68489405  0.43496448  1
  Zn  Zn158  1  0.42898559  0.68940634  0.92954393  1
  Zn  Zn159  1  0.93417828  0.18770766  0.43625781  1
  Zn  Zn160  1  0.93093879  0.19226162  0.93869942  1
  Zn  Zn161  1  0.93819769  0.68615374  0.43952791  1
  Zn  Zn162  1  0.93569676  0.69168961  0.93922450  1
  Zn  Zn163  1  0.06360124  0.30920598  0.06485099  1
  Zn  Zn164  1  0.06531831  0.31351836  0.55810940  1
  Zn  Zn165  1  0.06516157  0.81509299  0.05933631  1
  Zn  Zn166  1  0.06206215  0.80856141  0.56229623  1
  Zn  Zn167  1  0.56252852  0.31140885  0.06171342  1
  Zn  Zn168  1  0.56147944  0.31072434  0.56448605  1
  Zn  Zn169  1  0.55348034  0.69996899  0.06883390  1
  Zn  Zn170  1  0.56190906  0.81153451  0.56375320  1
  O  O171  1  0.11354666  0.11654125  0.14777700  1
  O  O172  1  0.11249165  0.12086181  0.62710716  1
  O  O173  1  0.11915716  0.61832204  0.11720742  1
  O  O174  1  0.11763313  0.62382727  0.61961853  1
  O  O175  1  0.61771440  0.11933490  0.12334495  1
  O  O176  1  0.61776929  0.13235217  0.61316111  1
  O  O177  1  0.62613368  0.62067694  0.12759900  1
  O  O178  1  0.62406086  0.61672702  0.61638155  1
  O  O179  1  0.37772809  0.38173750  0.38273717  1
  O  O180  1  0.37534990  0.36767549  0.88911414  1
  O  O181  1  0.38404862  0.88281010  0.37857059  1
  O  O182  1  0.38272312  0.88461644  0.87813977  1
  O  O183  1  0.88046612  0.37392841  0.38825190  1
  O  O184  1  0.88405856  0.38819461  0.87072053  1
  O  O185  1  0.88125884  0.87203122  0.37882736  1
  O  O186  1  0.87949006  0.88039046  0.88312447  1
  O  O187  1  0.25975150  -0.00851665  0.36394425  1
  O  O188  1  0.27164832  -0.00159974  0.86140241  1
  O  O189  1  0.26441247  0.50024622  0.37653800  1
  O  O190  1  0.24462225  0.51022158  0.88025751  1
  O  O191  1  0.75173227  0.01550791  0.38181693  1
  O  O192  1  0.76193173  -0.00769258  0.87186416  1
  O  O193  1  0.75067862  0.51271600  0.37676932  1
  O  O194  1  0.75589875  0.50391056  0.87575824  1
  O  O195  1  0.23740087  0.49945002  0.12047196  1
  O  O196  1  0.25085311  0.48260109  0.62133450  1
  O  O197  1  0.24313033  0.99724842  0.13910713  1
  O  O198  1  0.24823170  0.99579304  0.62780145  1
  O  O199  1  0.74139568  0.49501980  0.12512614  1
  O  O200  1  0.73848222  0.49926590  0.63075651  1
  O  O201  1  0.74263797  0.98902919  0.11951787  1
  O  O202  1  0.75516993  0.98744406  0.62612009  1
  O  O203  1  -0.00695651  0.37155937  0.26649988  1
  O  O204  1  0.00438445  0.36770823  0.75810102  1
  O  O205  1  0.00653214  0.87483560  0.26171106  1
  O  O206  1  0.00662925  0.87220873  0.75478852  1
  O  O207  1  0.51229382  0.37568000  0.24719000  1
  O  O208  1  0.51541872  0.37457641  0.75067394  1
  O  O209  1  0.52119519  0.88199176  0.26021152  1
  O  O210  1  0.50546835  0.86902613  0.75150471  1
  O  O211  1  0.49000750  0.12045921  0.24109755  1
  O  O212  1  0.50953454  0.12008119  0.73365006  1
  O  O213  1  0.48516483  0.62522540  0.25602902  1
  O  O214  1  0.48638594  0.63099541  0.75157826  1
  O  O215  1  0.98700231  0.13866158  0.24510921  1
  O  O216  1  0.99311277  0.13118572  0.74191547  1
  O  O217  1  0.99124690  0.62414978  0.24386481  1
  O  O218  1  0.99602772  0.63211124  0.74648412  1
  O  O219  1  0.36625596  0.25445125  0.00743099  1
  O  O220  1  0.36668518  0.25574910  0.50486513  1
  O  O221  1  0.36354278  0.76539932  -0.00917447  1
  O  O222  1  0.36555096  0.75401497  0.50155083  1
  O  O223  1  0.86284106  0.25439649  0.00840853  1
  O  O224  1  0.86819342  0.25580183  0.50500204  1
  O  O225  1  0.86731273  0.76347438  0.00283159  1
  O  O226  1  0.86805032  0.75574074  0.50652112  1
  O  O227  1  0.14172538  0.24719051  0.50274035  1
  O  O228  1  0.13975487  0.25003016  1.00661946  1
  O  O229  1  0.13120708  0.74185885  0.49381024  1
  O  O230  1  0.12898657  0.73775392  1.00031164  1
  O  O231  1  0.63460775  0.24589177  0.49892189  1
  O  O232  1  0.63563731  0.24891268  0.98924380  1
  O  O233  1  0.63256410  0.73960155  0.50693812  1
  O  O234  1  0.63376814  0.75108850  0.99117244  1
  O  O235  1  0.49407802  0.23608847  0.12431920  1
  O  O236  1  0.48515069  0.24236165  0.61932670  1
  O  O237  1  0.48824602  0.77327136  0.12106003  1
  O  O238  1  0.49810569  0.74666525  0.63724342  1
  O  O239  1  0.98911135  0.24959297  0.13385515  1
  O  O240  1  0.99746945  0.24451496  0.62965102  1
  O  O241  1  1.00146153  0.73869079  0.12080990  1
  O  O242  1  0.99325864  0.74382828  0.63384451  1
  O  O243  1  -0.00695052  0.25794132  0.36526055  1
  O  O244  1  -0.00651544  0.25941257  0.86825845  1
  O  O245  1  0.01304210  0.75512351  0.37995122  1
  O  O246  1  -0.00683837  0.76370863  0.86554334  1
  O  O247  1  0.50306317  0.25372604  0.37098346  1
  O  O248  1  0.51516013  0.25174837  0.87940938  1
  O  O249  1  0.49825795  0.76585982  0.38385690  1
  O  O250  1  0.50591858  0.75565763  0.86420811  1
  O  O251  1  0.24794760  0.13793192  0.49870755  1
  O  O252  1  0.25373575  0.13585418  1.00414099  1
  O  O253  1  0.24292784  0.63305015  0.49917151  1
  O  O254  1  0.24427917  0.63056754  0.98652053  1
  O  O255  1  0.74426761  0.13163878  0.49721395  1
  O  O256  1  0.75113436  0.14321581  1.00706837  1
  O  O257  1  0.74380178  0.63123504  0.49708845  1
  O  O258  1  0.75906181  0.64040262  0.99633494  1
  O  O259  1  0.26005112  0.36347540  0.00401321  1
  O  O260  1  0.25956376  0.36660436  0.50618148  1
  O  O261  1  0.25155989  0.87388244  -0.00963631  1
  O  O262  1  0.25375509  0.86833137  0.50410836  1
  O  O263  1  0.74557418  0.36580065  0.01159138  1
  O  O264  1  0.76044489  0.36873035  0.49974581  1
  O  O265  1  0.75524913  0.86658513  0.00951048  1
  O  O266  1  0.75246468  0.86890091  0.50503066  1
  O  O267  1  0.12564432  0.49905805  0.24057416  1
  O  O268  1  0.11883877  0.48541755  0.74634542  1
  O  O269  1  0.13177822  0.98330773  0.24739890  1
  O  O270  1  0.13272583  0.98773605  0.73423154  1
  O  O271  1  0.62837034  0.49602326  0.23784260  1
  O  O272  1  0.62976165  0.49488204  0.74368761  1
  O  O273  1  0.62683262  1.00492056  0.24349384  1
  O  O274  1  0.62762466  0.98346000  0.75768200  1
  O  O275  1  0.36829540  0.00386017  0.25857789  1
  O  O276  1  0.37049814  0.00151597  0.75766437  1
  O  O277  1  0.37749226  0.50611808  0.25639008  1
  O  O278  1  0.37950159  0.50795318  0.74806020  1
  O  O279  1  0.87550004  0.01556645  0.24990164  1
  O  O280  1  0.87375636  0.00868092  0.75747546  1
  O  O281  1  0.87011831  0.51944318  0.24454544  1
  O  O282  1  0.86889840  0.50544013  0.75853044  1
  O  O283  1  0.10807255  0.38104835  0.37852976  1
  O  O284  1  0.11260408  0.37944064  0.86975913  1
  O  O285  1  0.11742789  0.86670744  0.36980224  1
  O  O286  1  0.11508690  0.88344646  0.86418498  1
  O  O287  1  0.62496272  0.37658095  0.36329491  1
  O  O288  1  0.62713780  0.36215279  0.86834200  1
  O  O289  1  0.62263027  0.87858687  0.36479541  1
  O  O290  1  0.61930453  0.86412451  0.86942473  1
  O  O291  1  0.38316306  0.12750481  0.13200646  1
  O  O292  1  0.38181703  0.13766278  0.62169458  1
  O  O293  1  0.37335812  0.62295145  0.13774264  1
  O  O294  1  0.37238003  0.62632769  0.63938934  1
  O  O295  1  0.87732864  0.13709665  0.13349672  1
  O  O296  1  0.88779974  0.12980858  0.62872660  1
  O  O297  1  0.88454650  0.63019720  0.13332584  1
  O  O298  1  0.88084193  0.63013639  0.63105924  1
  O  O299  1  0.26223839  0.24740471  0.12590421  1
  O  O300  1  0.26118247  0.25686719  0.61686575  1
  O  O301  1  0.25629406  0.75218982  0.10454726  1
  O  O302  1  0.24776321  0.75577960  0.61446755  1
  O  O303  1  0.75529832  0.25927154  0.11712563  1
  O  O304  1  0.75734588  0.25179065  0.61371583  1
  O  O305  1  0.75061557  0.76251770  0.11987990  1
  O  O306  1  0.75586109  0.75633369  0.61619661  1
  O  O307  1  0.25493332  0.25391671  0.38760814  1
  O  O308  1  0.24588155  0.24371979  0.88635082  1
  O  O309  1  0.23946061  0.75155463  0.38650283  1
  O  O310  1  0.24808514  0.74250952  0.88170906  1
  O  O311  1  0.74987819  0.24204641  0.38608755  1
  O  O312  1  0.74942243  0.25642156  0.88892062  1
  O  O313  1  0.75297669  0.73894131  0.39066954  1
  O  O314  1  0.74256277  0.74896392  0.88346508  1
  O  O315  1  -0.00873093  0.13228722  0.01911654  1
  O  O316  1  0.00422970  0.12224583  0.50315788  1
  O  O317  1  0.00617918  0.62175871  0.00441574  1
  O  O318  1  0.00921604  0.63194212  0.51203378  1
  O  O319  1  0.50086741  0.11448721  0.01005010  1
  O  O320  1  0.50764673  0.11878939  0.50524418  1
  O  O321  1  0.49309170  0.63398318  -0.00041652  1
  O  O322  1  0.50620519  0.61995808  0.50244353  1
  O  O323  1  0.48828017  0.37895234  0.50174810  1
  O  O324  1  0.48246745  0.36708148  1.00048807  1
  O  O325  1  0.49691400  0.88243549  0.49702239  1
  O  O326  1  0.48984396  0.89121475  0.98950640  1
  O  O327  1  0.98880623  0.37106287  0.48903795  1
  O  O328  1  1.00326094  0.38369748  0.99309849  1
  O  O329  1  0.99652657  0.87713287  0.49000798  1
  O  O330  1  0.99098990  0.87114050  0.99143866  1
  O  O331  1  0.49034609  0.49736675  0.38253264  1
  O  O332  1  0.51387869  0.48992086  0.88656751  1
  O  O333  1  0.49419024  0.99240321  0.38682083  1
  O  O334  1  0.49396963  0.99944841  0.87870164  1
  O  O335  1  0.99614386  0.49165452  0.37550365  1
  O  O336  1  0.99239871  0.49480673  0.88336051  1
  O  O337  1  0.99325453  0.98752285  0.37954775  1
  O  O338  1  0.98422961  0.98815939  0.87535610  1
  O  O339  1  0.00718740  0.01376744  0.13605962  1
  O  O340  1  0.00508117  0.00698760  0.61671171  1
  O  O341  1  0.00294289  0.51005053  0.11835315  1
  O  O342  1  -0.00059663  0.51350270  0.63090669  1
  O  O343  1  0.51164765  -0.00132686  0.11668409  1
  O  O344  1  0.49110556  0.00876319  0.61165815  1
  O  O345  1  0.51593731  0.49933159  0.11815851  1
  O  O346  1  0.51063404  0.50159220  0.62028390  1
  O  O347  1  0.24746153  0.38093988  0.24365365  1
  O  O348  1  0.23874880  0.36568885  0.74319139  1
  O  O349  1  0.24400917  0.87807329  0.24760272  1
  O  O350  1  0.24344543  0.88076806  0.74377181  1
  O  O351  1  0.74125250  0.37700541  0.24020202  1
  O  O352  1  0.74241317  0.38313854  0.74804874  1
  O  O353  1  0.74201489  0.87245472  0.24720337  1
  O  O354  1  0.74293253  0.87274428  0.73994068  1
  O  O355  1  0.26595840  0.11398918  0.24827681  1
  O  O356  1  0.24266426  0.11456364  0.74132830  1
  O  O357  1  0.26079420  0.61982724  0.25291903  1
  O  O358  1  0.25573290  0.62433991  0.75985273  1
  O  O359  1  0.75589042  0.13528750  0.25962407  1
  O  O360  1  0.76596302  0.12471708  0.74042712  1
  O  O361  1  0.75890854  0.62405503  0.26169630  1
  O  O362  1  0.75560667  0.62091435  0.75695610  1
  O  O363  1  0.38366563  0.11066195  0.36894223  1
  O  O364  1  0.38517554  0.11774556  0.87084155  1
  O  O365  1  0.37245188  0.61759683  0.36693474  1
  O  O366  1  0.35950096  0.62489481  0.86112526  1
  O  O367  1  0.86592925  0.12460906  0.36646472  1
  O  O368  1  0.88071831  0.11639640  0.86631818  1
  O  O369  1  0.87089259  0.62785773  0.36691297  1
  O  O370  1  0.87047857  0.61654385  0.87160726  1
  O  O371  1  0.12030826  0.39066570  0.12415293  1
  O  O372  1  0.13203966  0.37517939  0.63170865  1
  O  O373  1  0.12464978  0.87757707  0.13606330  1
  O  O374  1  0.13107737  0.88070031  0.62613703  1
  O  O375  1  0.63129727  0.38087018  0.12909530  1
  O  O376  1  0.62768344  0.38090714  0.63162091  1
  O  O377  1  0.63392452  0.88427568  0.14490217  1
  O  O378  1  0.63477683  0.87000883  0.63315757  1
  O  O379  1  0.10215778  0.26304027  0.24131632  1
  O  O380  1  0.11137039  0.25767099  0.74657593  1
  O  O381  1  0.13420402  0.75716764  0.25784203  1
  O  O382  1  0.11926044  0.76478237  0.74332188  1
  O  O383  1  0.62197157  0.26149508  0.25000988  1
  O  O384  1  0.63655687  0.25626052  0.76515902  1
  O  O385  1  0.62799094  0.75881101  0.25419514  1
  O  O386  1  0.61756858  0.75879101  0.75540783  1
  O  O387  1  0.37766474  0.24023580  0.24373524  1
  O  O388  1  0.37246320  0.25364197  0.73567788  1
  O  O389  1  0.37061471  0.73663618  0.24867559  1
  O  O390  1  0.38260199  0.74796487  0.75011055  1
  O  O391  1  0.88037785  0.24708971  0.24407971  1
  O  O392  1  0.88425226  0.24534223  0.74465565  1
  O  O393  1  0.87154783  0.73300026  0.24742912  1
  O  O394  1  0.87970528  0.74510384  0.74632684  1
  O  O395  1  0.38000249  0.49271021  0.49529522  1
  O  O396  1  0.37507505  0.48233471  1.00702198  1
  O  O397  1  0.37919998  0.99470633  0.49230888  1
  O  O398  1  0.37931207  1.00145265  0.98521204  1
  O  O399  1  0.87091317  0.48598467  0.50622594  1
  O  O400  1  0.88707982  0.50622040  0.99479889  1
  O  O401  1  0.88238668  0.99184197  0.49748067  1
  O  O402  1  0.86993738  0.98903350  0.99542416  1
  O  O403  1  0.12343925  -0.01098926  0.02591107  1
  O  O404  1  0.12043599  0.00735644  0.50014946  1
  O  O405  1  0.11348964  0.51062460  0.00388224  1
  O  O406  1  0.13020505  0.51276076  0.50264108  1
  O  O407  1  0.61880721  0.00088471  0.00461946  1
  O  O408  1  0.61588290  0.00965495  0.49981888  1
  O  O409  1  0.62896402  0.50348326  0.01573970  1
  O  O410  1  0.62060990  0.50438174  0.50810278  1
  O  O411  1  0.37518228  0.36349351  0.11832007  1
  O  O412  1  0.37123206  0.36512836  0.61868156  1
  O  O413  1  0.36922215  0.88917184  0.10191414  1
  O  O414  1  0.36682784  0.87242289  0.61730154  1
  O  O415  1  0.86649014  0.36773420  0.13236750  1
  O  O416  1  0.87643880  0.36898940  0.61442987  1
  O  O417  1  0.86932987  0.87582150  0.12145773  1
  O  O418  1  0.86886759  0.87022409  0.62018457  1
  O  O419  1  0.12380969  0.12728660  0.35138134  1
  O  O420  1  0.12875392  0.06367596  0.88603592  1
  O  O421  1  0.12563098  0.63135147  0.38206580  1
  O  O422  1  0.13492227  0.62271598  0.87949855  1
  O  O423  1  0.63021062  0.12769915  0.38608396  1
  O  O424  1  0.62845496  0.13821377  0.87726408  1
  O  O425  1  0.63196938  0.61882767  0.38820732  1
  O  O426  1  0.63344140  0.63971253  0.86492933  1
