# generated using pymatgen
data_V85Zn86O256
_symmetry_space_group_name_H-M   'P 1'
_cell_length_a   16.93763317
_cell_length_b   16.97785209
_cell_length_c   16.96969179
_cell_angle_alpha   89.96810893
_cell_angle_beta   90.00701410
_cell_angle_gamma   89.99407155
_symmetry_Int_Tables_number   1
_chemical_formula_structural   V85Zn86O256
_chemical_formula_sum   'V85 Zn86 O256'
_cell_volume   4879.88233393
_cell_formula_units_Z   1
loop_
 _symmetry_equiv_pos_site_id
 _symmetry_equiv_pos_as_xyz
  1  'x, y, z'
loop_
 _atom_site_type_symbol
 _atom_site_label
 _atom_site_symmetry_multiplicity
 _atom_site_fract_x
 _atom_site_fract_y
 _atom_site_fract_z
 _atom_site_occupancy
  V  V0  1  0.74464692  0.75066711  -0.00164696  1
  V  V1  1  0.12829946  0.12049412  -0.00233798  1
  V  V2  1  0.17790444  0.29345500  0.92746794  1
  V  V3  1  0.12892141  0.01107506  0.63177032  1
  V  V4  1  0.62149738  0.87826447  0.25202714  1
  V  V5  1  0.87318719  0.87844376  0.00094647  1
  V  V6  1  0.75687242  0.87517391  0.62419275  1
  V  V7  1  0.13007206  0.63422231  0.50194658  1
  V  V8  1  0.12905889  0.50024715  0.62382023  1
  V  V9  1  0.74491784  0.87802674  0.12646168  1
  V  V10  1  0.26812028  0.50386132  0.74915783  1
  V  V11  1  0.12285485  0.74708458  0.87324329  1
  V  V12  1  0.74066041  0.37941155  0.62632362  1
  V  V13  1  0.37853665  0.49154019  0.37396387  1
  V  V14  1  0.13509354  0.87855975  0.75055180  1
  V  V15  1  0.72894701  0.25438931  -0.00254861  1
  V  V16  1  0.38503099  0.22323156  0.14234437  1
  V  V17  1  0.49961762  0.87623016  0.87431534  1
  V  V18  1  0.00158139  0.75132681  0.25188228  1
  V  V19  1  0.75134521  0.24819168  0.49641961  1
  V  V20  1  0.24698266  0.49943826  0.25056163  1
  V  V21  1  0.62362368  0.75243592  0.37895879  1
  V  V22  1  0.12024788  0.12935176  0.48867009  1
  V  V23  1  0.87340663  0.25072240  0.12869452  1
  V  V24  1  0.24694925  0.24907741  0.48852625  1
  V  V25  1  0.87895457  0.37359547  0.50140080  1
  V  V26  1  0.49930325  0.61576555  0.62733884  1
  V  V27  1  -0.00238819  0.36765120  0.87453968  1
  V  V28  1  0.87750210  0.12728341  0.25214834  1
  V  V29  1  0.37425060  0.87746487  0.00178849  1
  V  V30  1  0.62515738  -0.00236128  0.62384230  1
  V  V31  1  0.37430955  0.75197991  0.12713395  1
  V  V32  1  0.37690584  0.00075572  0.36975974  1
  V  V33  1  0.37403091  0.24695373  0.62294885  1
  V  V34  1  0.62447270  0.74881873  0.87329374  1
  V  V35  1  0.50445742  0.00415839  0.01182324  1
  V  V36  1  0.62499960  0.87301621  0.74885829  1
  V  V37  1  0.00103913  0.87623500  0.87467107  1
  V  V38  1  0.24928842  0.74969415  0.00146441  1
  V  V39  1  0.49680082  0.41797053  0.90657146  1
  V  V40  1  0.87183282  0.37315482  0.00185840  1
  V  V41  1  0.75284407  -0.00039527  0.25230786  1
  V  V42  1  0.88056365  0.49929237  0.37528457  1
  V  V43  1  0.00093220  0.00062040  0.00626152  1
  V  V44  1  0.25113186  0.87274219  0.60825763  1
  V  V45  1  0.87873270  -0.00829205  0.38063746  1
  V  V46  1  0.87694312  0.62214385  0.74848335  1
  V  V47  1  0.50729912  0.24762495  0.75948564  1
  V  V48  1  0.26395046  0.62586202  0.86842020  1
  V  V49  1  0.37500436  0.62569450  0.25061846  1
  V  V50  1  0.62653200  0.12559310  0.50205327  1
  V  V51  1  0.87807722  0.75255376  0.61961606  1
  V  V52  1  -0.00024325  0.49767738  -0.00188116  1
  V  V53  1  0.24156453  0.01122421  0.24567641  1
  V  V54  1  0.49869974  0.75660155  0.25629529  1
  V  V55  1  0.51677356  0.62387336  0.12645534  1
  V  V56  1  0.61531680  0.37866446  0.26446940  1
  V  V57  1  0.58234869  0.22419406  0.34134581  1
  V  V58  1  0.12301130  0.36314439  0.25074588  1
  V  V59  1  0.87721014  0.12629033  0.75021984  1
  V  V60  1  0.74803820  0.62147342  0.87383986  1
  V  V61  1  0.87940943  0.24685282  0.62684792  1
  V  V62  1  0.24515154  0.12068208  0.86745283  1
  V  V63  1  0.73435895  0.37469969  0.12792510  1
  V  V64  1  -0.00911728  0.62365304  0.12488544  1
  V  V65  1  0.12495085  0.62387392  -0.00084738  1
  V  V66  1  0.23902421  0.87994856  0.12649914  1
  V  V67  1  0.74112483  0.13323204  0.87581277  1
  V  V68  1  0.75347570  0.75279172  0.49866658  1
  V  V69  1  0.75084859  0.00129001  0.75063086  1
  V  V70  1  0.00068894  -0.00507424  0.50568124  1
  V  V71  1  0.25329807  0.37427360  0.62222195  1
  V  V72  1  0.00219645  0.62292729  0.62511199  1
  V  V73  1  0.48737604  0.74690787  0.74540553  1
  V  V74  1  0.12752541  0.49840122  0.12728096  1
  V  V75  1  0.37114002  -0.00044620  0.86838933  1
  V  V76  1  0.00621152  0.24467701  0.74942747  1
  V  V77  1  0.25245586  0.63160335  0.38071798  1
  V  V78  1  0.51090079  0.49427846  0.49379926  1
  V  V79  1  0.49721286  0.12144104  0.62337300  1
  V  V80  1  0.87422337  0.00133667  0.87448988  1
  V  V81  1  0.00605258  0.12734522  0.12797426  1
  V  V82  1  0.13049780  0.37314094  0.74987537  1
  V  V83  1  0.00320359  0.35812905  0.37257015  1
  V  V84  1  0.75169823  0.49928651  0.24882344  1
  Zn  Zn85  1  0.75332854  0.12601356  0.37543394  1
  Zn  Zn86  1  0.87529341  0.62544578  0.25309480  1
  Zn  Zn87  1  0.00574902  0.49678338  0.49762889  1
  Zn  Zn88  1  0.33709894  0.35796958  0.04892861  1
  Zn  Zn89  1  0.36846717  0.74397958  0.61116291  1
  Zn  Zn90  1  0.00153642  0.75127942  0.74827181  1
  Zn  Zn91  1  0.12771407  0.75511997  0.37769147  1
  Zn  Zn92  1  0.87472937  0.49761841  0.87077469  1
  Zn  Zn93  1  0.39317240  0.86221389  0.48067310  1
  Zn  Zn94  1  0.74018294  0.50379803  0.74223980  1
  Zn  Zn95  1  0.12044215  0.87974417  0.25166933  1
  Zn  Zn96  1  0.49713365  -0.00426814  0.49357455  1
  Zn  Zn97  1  0.25141819  0.13621984  0.36003103  1
  Zn  Zn98  1  0.36983539  0.12053302  0.74669925  1
  Zn  Zn99  1  0.87397725  0.75020825  0.12591165  1
  Zn  Zn100  1  0.61494458  0.12691503  0.00169387  1
  Zn  Zn101  1  0.38007693  0.36852928  0.48960789  1
  Zn  Zn102  1  0.61665244  0.37690399  0.75604938  1
  Zn  Zn103  1  0.75226096  0.62431055  0.37654325  1
  Zn  Zn104  1  0.58316976  0.57187673  -0.02558656  1
  Zn  Zn105  1  0.62920348  0.62201486  0.50433828  1
  Zn  Zn106  1  0.00181247  0.87164867  0.38043408  1
  Zn  Zn107  1  0.20141410  0.19755213  0.16985230  1
  Zn  Zn108  1  0.18944156  0.18944124  0.68655106  1
  Zn  Zn109  1  0.18456044  0.68531308  0.18793997  1
  Zn  Zn110  1  0.19161716  0.68973380  0.68876424  1
  Zn  Zn111  1  0.58282466  0.18396252  0.17467090  1
  Zn  Zn112  1  0.68786341  0.19053611  0.68555638  1
  Zn  Zn113  1  0.69325247  0.69184207  0.19328331  1
  Zn  Zn114  1  0.68393990  0.68627521  0.68542284  1
  Zn  Zn115  1  0.33525060  0.32988892  0.26793969  1
  Zn  Zn116  1  0.33242937  0.32099319  0.81024509  1
  Zn  Zn117  1  0.30780102  0.81658691  0.31088595  1
  Zn  Zn118  1  0.31077824  0.81337921  0.81300133  1
  Zn  Zn119  1  0.81389558  0.31301397  0.31169394  1
  Zn  Zn120  1  0.81145292  0.31219015  0.81145606  1
  Zn  Zn121  1  0.81710464  0.81168281  0.31311643  1
  Zn  Zn122  1  0.81465505  0.80996476  0.80924868  1
  Zn  Zn123  1  0.18972321  0.43632242  0.43410831  1
  Zn  Zn124  1  0.23034315  0.46723841  0.96110201  1
  Zn  Zn125  1  0.18507092  0.94341438  0.43081511  1
  Zn  Zn126  1  0.18702223  0.93925768  0.93878210  1
  Zn  Zn127  1  0.69047539  0.43039944  0.43189021  1
  Zn  Zn128  1  0.68239744  0.43402620  0.92996606  1
  Zn  Zn129  1  0.68852446  0.93420538  0.43818441  1
  Zn  Zn130  1  0.68576644  0.94019205  0.93602826  1
  Zn  Zn131  1  0.31187259  0.06311317  0.05980845  1
  Zn  Zn132  1  0.30874692  0.05814212  0.55355302  1
  Zn  Zn133  1  0.32303424  0.56275228  0.06611537  1
  Zn  Zn134  1  0.31931152  0.56144190  0.55916934  1
  Zn  Zn135  1  0.75928805  0.10062077  0.10234853  1
  Zn  Zn136  1  0.81627624  0.06342046  0.56423821  1
  Zn  Zn137  1  0.77476714  0.54326377  0.04365524  1
  Zn  Zn138  1  0.81451503  0.56233090  0.55876729  1
  Zn  Zn139  1  0.44399333  0.44274477  0.17902575  1
  Zn  Zn140  1  0.44219920  0.43203041  0.67931196  1
  Zn  Zn141  1  0.42975146  0.94103829  0.19104354  1
  Zn  Zn142  1  0.43518895  0.93519022  0.68402169  1
  Zn  Zn143  1  0.93917062  0.43578365  0.18864482  1
  Zn  Zn144  1  0.93831735  0.43570481  0.68651237  1
  Zn  Zn145  1  0.93543598  0.93822992  0.18674739  1
  Zn  Zn146  1  0.94382635  0.93760999  0.68776303  1
  Zn  Zn147  1  0.06194637  0.06114147  0.31164137  1
  Zn  Zn148  1  0.06325689  0.06328711  0.81465845  1
  Zn  Zn149  1  0.06177534  0.56386596  0.31448487  1
  Zn  Zn150  1  0.06656706  0.55831962  0.81092832  1
  Zn  Zn151  1  0.56570580  0.05288071  0.31642609  1
  Zn  Zn152  1  0.55908482  0.06214022  0.81274588  1
  Zn  Zn153  1  0.56564740  0.56639717  0.31332861  1
  Zn  Zn154  1  0.56462314  0.56136432  0.79941986  1
  Zn  Zn155  1  0.43005684  0.17850049  0.43607858  1
  Zn  Zn156  1  0.42488208  0.18714121  0.94267596  1
  Zn  Zn157  1  0.43869675  0.68230565  0.44083486  1
  Zn  Zn158  1  0.43970171  0.69102668  0.94056166  1
  Zn  Zn159  1  0.93872846  0.18082338  0.44007502  1
  Zn  Zn160  1  0.93328368  0.18755103  0.93915918  1
  Zn  Zn161  1  0.94119533  0.68443528  0.43905136  1
  Zn  Zn162  1  0.93397457  0.68739995  0.93804357  1
  Zn  Zn163  1  0.05811215  0.31302171  0.07079744  1
  Zn  Zn164  1  0.06309145  0.31125377  0.56361133  1
  Zn  Zn165  1  0.06002829  0.80928954  0.06282662  1
  Zn  Zn166  1  0.06489953  0.81533149  0.56572364  1
  Zn  Zn167  1  0.51920085  0.30111161  0.04447830  1
  Zn  Zn168  1  0.56022721  0.30742228  0.55557173  1
  Zn  Zn169  1  0.56170410  0.81366836  0.06565420  1
  Zn  Zn170  1  0.56133858  0.80976626  0.56371040  1
  O  O171  1  0.11124828  0.13602110  0.11519219  1
  O  O172  1  0.12999382  0.11278877  0.62176300  1
  O  O173  1  0.11343886  0.61919832  0.11802292  1
  O  O174  1  0.12427039  0.61866798  0.62129779  1
  O  O175  1  0.64832887  0.12432171  0.11107392  1
  O  O176  1  0.61902666  0.11844645  0.62052583  1
  O  O177  1  0.61615391  0.63429813  0.13170665  1
  O  O178  1  0.60744005  0.63051070  0.62108875  1
  O  O179  1  0.37076809  0.38897664  0.36673055  1
  O  O180  1  0.40782948  0.38163868  0.87194610  1
  O  O181  1  0.36201671  0.89278335  0.37270072  1
  O  O182  1  0.37809951  0.88026414  0.88174504  1
  O  O183  1  0.88427350  0.37919033  0.38050818  1
  O  O184  1  0.88186550  0.37605263  0.88077101  1
  O  O185  1  0.88001226  0.88796646  0.37421355  1
  O  O186  1  0.88129048  0.87876783  0.87880073  1
  O  O187  1  0.25059837  0.00689486  0.35880116  1
  O  O188  1  0.25766989  0.00856403  0.87929578  1
  O  O189  1  0.25674409  0.50969333  0.36917623  1
  O  O190  1  0.24323664  0.51534429  0.85962836  1
  O  O191  1  0.75932791  -0.00153399  0.36889539  1
  O  O192  1  0.75651354  0.00636484  0.86915804  1
  O  O193  1  0.76448663  0.49633065  0.36824401  1
  O  O194  1  0.75471335  0.51028715  0.86630318  1
  O  O195  1  0.23352132  0.51218421  0.13696072  1
  O  O196  1  0.24723488  0.49529350  0.62963686  1
  O  O197  1  0.25468099  0.99243979  0.13486851  1
  O  O198  1  0.23577061  0.99043163  0.62124293  1
  O  O199  1  0.76252037  0.48734876  0.14276224  1
  O  O200  1  0.75761059  0.48261207  0.62217906  1
  O  O201  1  0.75855047  0.98972629  0.14383541  1
  O  O202  1  0.74791265  0.99435728  0.63139381  1
  O  O203  1  0.01338717  0.37529429  0.25712232  1
  O  O204  1  0.00706674  0.36968989  0.75845536  1
  O  O205  1  0.00080742  0.86544901  0.24672234  1
  O  O206  1  0.01132870  0.87285824  0.75836136  1
  O  O207  1  0.51784319  0.38979789  0.25446752  1
  O  O208  1  0.50048043  0.35200952  0.73535770  1
  O  O209  1  0.50991028  0.86955942  0.24365734  1
  O  O210  1  0.50568293  0.86800407  0.75274305  1
  O  O211  1  0.53349849  0.15233166  0.27570724  1
  O  O212  1  0.49771626  0.13192949  0.74046810  1
  O  O213  1  0.49668345  0.63571952  0.24340579  1
  O  O214  1  0.49965026  0.63246251  0.73684611  1
  O  O215  1  0.98963673  0.11753536  0.23892106  1
  O  O216  1  0.99439053  0.13731644  0.75790537  1
  O  O217  1  0.99855245  0.63024498  0.24106443  1
  O  O218  1  0.99465856  0.62611465  0.74410107  1
  O  O219  1  0.40533557  0.26667671  0.01744145  1
  O  O220  1  0.36623897  0.24810252  0.50834366  1
  O  O221  1  0.36873436  0.75974541  0.00581249  1
  O  O222  1  0.37506528  0.75257448  0.49741386  1
  O  O223  1  0.87090521  0.26235019  0.00400886  1
  O  O224  1  0.87272247  0.25108804  0.51016856  1
  O  O225  1  0.86709826  0.76465900  -0.00299831  1
  O  O226  1  0.87102961  0.74568263  0.51232168  1
  O  O227  1  0.13013963  0.23533499  0.50931191  1
  O  O228  1  0.11577916  0.24117334  0.99281311  1
  O  O229  1  0.12261019  0.73697608  0.50187241  1
  O  O230  1  0.12915429  0.74503208  0.99217279  1
  O  O231  1  0.63578259  0.23535393  0.50641570  1
  O  O232  1  0.62663145  0.25483934  1.00073254  1
  O  O233  1  0.63403612  0.74939466  0.49309862  1
  O  O234  1  0.63825797  0.75978356  0.99277093  1
  O  O235  1  0.49439460  0.24449123  0.13770148  1
  O  O236  1  0.49293615  0.23516644  0.62217572  1
  O  O237  1  0.49455094  0.74811411  0.13774000  1
  O  O238  1  0.49630196  0.74132834  0.63267400  1
  O  O239  1  0.98393397  0.23956563  0.11912296  1
  O  O240  1  0.99123611  0.25641410  0.63719766  1
  O  O241  1  0.99657518  0.74069741  0.12963909  1
  O  O242  1  0.99376062  0.74395474  0.62580915  1
  O  O243  1  -0.00458616  0.25912084  0.37744694  1
  O  O244  1  -0.00696289  0.26049935  0.86695584  1
  O  O245  1  0.00167516  0.75013980  0.36663876  1
  O  O246  1  0.01053898  0.75467509  0.87644121  1
  O  O247  1  0.50451005  0.25634008  0.39612258  1
  O  O248  1  0.49337288  0.23741230  0.85682026  1
  O  O249  1  0.50837454  0.74509373  0.36349683  1
  O  O250  1  0.50524291  0.75580504  0.86769769  1
  O  O251  1  0.23593324  0.13219488  0.49930278  1
  O  O252  1  0.23460402  0.11967688  0.99257330  1
  O  O253  1  0.24299155  0.61829137  0.49191222  1
  O  O254  1  0.24410410  0.63262440  0.99295573  1
  O  O255  1  0.74507867  0.13154200  0.50195387  1
  O  O256  1  0.75316005  0.14232724  0.98995557  1
  O  O257  1  0.74851742  0.63737051  0.50111901  1
  O  O258  1  0.76568681  0.64147207  0.98272447  1
  O  O259  1  0.22581673  0.35389611  -0.00866009  1
  O  O260  1  0.25039186  0.36665524  0.50522070  1
  O  O261  1  0.25500833  0.87037542  0.00531257  1
  O  O262  1  0.24255770  0.87620572  0.50919504  1
  O  O263  1  0.75410218  0.36926146  0.00533299  1
  O  O264  1  0.75766513  0.36717079  0.50816880  1
  O  O265  1  0.75510911  0.87377527  0.00596338  1
  O  O266  1  0.74889346  0.86214010  0.50943791  1
  O  O267  1  0.12899737  0.49893738  0.24428971  1
  O  O268  1  0.13252556  0.49294945  0.73802460  1
  O  O269  1  0.13595618  0.99801564  0.24870193  1
  O  O270  1  0.12003673  0.99533284  0.73860448  1
  O  O271  1  0.63931143  0.48952539  0.26453787  1
  O  O272  1  0.62756966  0.49000451  0.74489551  1
  O  O273  1  0.63679681  0.98607375  0.25865822  1
  O  O274  1  0.63079209  0.99402945  0.74417130  1
  O  O275  1  0.35875314  -0.00114455  0.25833646  1
  O  O276  1  0.38045781  0.00097089  0.76453580  1
  O  O277  1  0.36633255  0.50857055  0.25369980  1
  O  O278  1  0.36703117  0.49458892  0.74242621  1
  O  O279  1  0.87195011  0.00404188  0.26011077  1
  O  O280  1  0.87236380  0.00672759  0.75369017  1
  O  O281  1  0.87196971  0.49949440  0.25932377  1
  O  O282  1  0.87403136  0.51252647  0.74746565  1
  O  O283  1  0.11644704  0.37963802  0.36156428  1
  O  O284  1  0.12052716  0.36205241  0.87131324  1
  O  O285  1  0.12059947  0.87141055  0.37157311  1
  O  O286  1  0.12107032  0.86898317  0.87063262  1
  O  O287  1  0.62862556  0.35890950  0.36587372  1
  O  O288  1  0.59438550  0.38277055  0.87605352  1
  O  O289  1  0.63076187  0.86251379  0.36646731  1
  O  O290  1  0.62010563  0.87007835  0.86677104  1
  O  O291  1  0.38436943  0.12435669  0.12048088  1
  O  O292  1  0.37997857  0.12612337  0.62327093  1
  O  O293  1  0.37846549  0.63570450  0.13276051  1
  O  O294  1  0.39208531  0.62720766  0.61893998  1
  O  O295  1  0.87348303  0.13374471  0.13289316  1
  O  O296  1  0.87058630  0.13841863  0.63513802  1
  O  O297  1  0.88756061  0.62375956  0.12173189  1
  O  O298  1  0.88122355  0.63041110  0.62995063  1
  O  O299  1  0.28202178  0.24637840  0.11145042  1
  O  O300  1  0.25798422  0.25471448  0.61937370  1
  O  O301  1  0.25425229  0.75540259  0.12109762  1
  O  O302  1  0.24979649  0.76823480  0.62958741  1
  O  O303  1  0.76164392  0.26110401  0.11146187  1
  O  O304  1  0.75888543  0.25722340  0.61726112  1
  O  O305  1  0.75363148  0.75702437  0.11549779  1
  O  O306  1  0.75813988  0.75464164  0.62026435  1
  O  O307  1  0.25343126  0.25140414  0.38862870  1
  O  O308  1  0.25380744  0.24702430  0.87375265  1
  O  O309  1  0.24679724  0.73443735  0.36518127  1
  O  O310  1  0.23903654  0.74586859  0.87865466  1
  O  O311  1  0.76187168  0.24807195  0.39252225  1
  O  O312  1  0.75075742  0.24501518  0.88330725  1
  O  O313  1  0.74793854  0.75037648  0.38415880  1
  O  O314  1  0.74453345  0.74613119  0.87849066  1
  O  O315  1  0.00468850  0.11758393  0.00334333  1
  O  O316  1  0.01437219  0.11792516  0.50186213  1
  O  O317  1  0.00380531  0.61734958  0.00335883  1
  O  O318  1  0.01120226  0.61887733  0.50815952  1
  O  O319  1  0.49899564  0.10713947  -0.00760398  1
  O  O320  1  0.50897876  0.11710994  0.50637881  1
  O  O321  1  0.50404194  0.64078008  0.01972190  1
  O  O322  1  0.50593323  0.61177074  0.50683641  1
  O  O323  1  0.49869571  0.39055524  0.50651255  1
  O  O324  1  0.50411963  0.40685509  1.00613066  1
  O  O325  1  0.50172978  0.88501115  0.51010756  1
  O  O326  1  0.49277462  0.87832305  0.99411288  1
  O  O327  1  0.99685833  0.37509931  0.49254346  1
  O  O328  1  0.99357623  0.37794431  0.99382443  1
  O  O329  1  1.00589767  0.89036727  0.50168469  1
  O  O330  1  0.99381784  0.88139972  0.99702778  1
  O  O331  1  0.49329195  0.50782875  0.38598740  1
  O  O332  1  0.50592257  0.52140487  0.89294932  1
  O  O333  1  0.48254152  1.00072887  0.37111574  1
  O  O334  1  0.49263392  0.99078783  0.87922667  1
  O  O335  1  0.99125721  0.49252294  0.37547834  1
  O  O336  1  1.00169210  0.48613269  0.87999055  1
  O  O337  1  0.99471025  1.00002816  0.38533825  1
  O  O338  1  0.99379285  0.99640290  0.88414956  1
  O  O339  1  -0.00941814  0.01055917  0.11247877  1
  O  O340  1  0.01634248  -0.00295266  0.61956728  1
  O  O341  1  0.00715437  0.50523437  0.11856288  1
  O  O342  1  0.01160389  0.50416690  0.62499326  1
  O  O343  1  0.49447859  -0.00800679  0.11015551  1
  O  O344  1  0.50524254  0.01084017  0.62895307  1
  O  O345  1  0.50183969  0.52492781  0.13002320  1
  O  O346  1  0.49774978  0.50839317  0.61183664  1
  O  O347  1  0.23477288  0.39247321  0.25740649  1
  O  O348  1  0.24938768  0.38075816  0.74524642  1
  O  O349  1  0.24354377  0.88289581  0.23931608  1
  O  O350  1  0.23731827  0.87709495  0.75101044  1
  O  O351  1  0.74773112  0.38056910  0.24459564  1
  O  O352  1  0.74842036  0.37159107  0.73515168  1
  O  O353  1  0.74628848  0.87670818  0.24351592  1
  O  O354  1  0.74547033  0.88045193  0.74545909  1
  O  O355  1  0.23754923  0.11433795  0.24290974  1
  O  O356  1  0.24920385  0.12795027  0.76328426  1
  O  O357  1  0.25222016  0.61675922  0.25705011  1
  O  O358  1  0.24996109  0.61778427  0.75627741  1
  O  O359  1  0.76440481  0.11169390  0.25397216  1
  O  O360  1  0.75517490  0.12273649  0.75684352  1
  O  O361  1  0.75504618  0.61508538  0.25265156  1
  O  O362  1  0.75748434  0.62756723  0.75707903  1
  O  O363  1  0.36408076  0.10854344  0.37843040  1
  O  O364  1  0.36279880  0.11640735  0.87644413  1
  O  O365  1  0.36893349  0.61601235  0.36870300  1
  O  O366  1  0.36259296  0.63415194  0.87910986  1
  O  O367  1  0.87660240  0.11527497  0.36759251  1
  O  O368  1  0.86534159  0.12100805  0.86906138  1
  O  O369  1  0.87468613  0.61305040  0.37631107  1
  O  O370  1  0.87085886  0.62449418  0.86372629  1
  O  O371  1  0.11746039  0.38572449  0.13793847  1
  O  O372  1  0.13330593  0.38250898  0.62859415  1
  O  O373  1  0.13669434  0.87181165  0.12081578  1
  O  O374  1  0.13389182  0.88250996  0.63272725  1
  O  O375  1  0.63522997  0.37401644  0.13865636  1
  O  O376  1  0.64065284  0.36631203  0.61946879  1
  O  O377  1  0.63824385  0.87029045  0.13406911  1
  O  O378  1  0.63554889  0.87867449  0.63264475  1
  O  O379  1  0.13529522  0.26580832  0.23994429  1
  O  O380  1  0.11607617  0.25854917  0.74281126  1
  O  O381  1  0.11124598  0.74927097  0.24948686  1
  O  O382  1  0.12353582  0.75785850  0.75841355  1
  O  O383  1  0.63004731  0.26670998  0.25291554  1
  O  O384  1  0.61182430  0.25003436  0.74790934  1
  O  O385  1  0.62033514  0.76007749  0.25718660  1
  O  O386  1  0.61796569  0.75635208  0.75492342  1
  O  O387  1  0.37022029  0.22554118  0.24378832  1
  O  O388  1  0.38185496  0.24427466  0.73541340  1
  O  O389  1  0.38245521  0.74798148  0.24797627  1
  O  O390  1  0.38575521  0.75668680  0.74693583  1
  O  O391  1  0.86870869  0.24003954  0.24085920  1
  O  O392  1  0.88290487  0.24641202  0.74471840  1
  O  O393  1  0.88592286  0.74600149  0.24699449  1
  O  O394  1  0.87770527  0.73851311  0.73946001  1
  O  O395  1  0.38474716  0.49464557  0.48852835  1
  O  O396  1  0.33274724  0.46873918  1.01180649  1
  O  O397  1  0.37239533  0.99361704  0.48400043  1
  O  O398  1  0.38184797  0.99236155  0.99072526  1
  O  O399  1  0.87927209  0.49101717  0.49301946  1
  O  O400  1  0.87596097  0.48588006  0.99729646  1
  O  O401  1  0.88784981  1.00901290  0.49426930  1
  O  O402  1  0.88124135  0.98682293  0.99148792  1
  O  O403  1  0.11237969  0.00730419  -0.00280578  1
  O  O404  1  0.12086011  0.01259772  0.50739890  1
  O  O405  1  0.12425370  0.50493655  0.00908151  1
  O  O406  1  0.12822841  0.50416714  0.51272701  1
  O  O407  1  0.60738002  -0.00488850  -0.00285987  1
  O  O408  1  0.63043873  0.01044381  0.50607738  1
  O  O409  1  0.66736375  0.51113614  0.00933079  1
  O  O410  1  0.61488829  0.49963964  0.48851847  1
  O  O411  1  0.37280586  0.36193032  0.15930196  1
  O  O412  1  0.36891661  0.36312299  0.61826511  1
  O  O413  1  0.36458114  0.86949622  0.11996247  1
  O  O414  1  0.35577921  0.87972064  0.62408361  1
  O  O415  1  0.87331159  0.36840567  0.11883472  1
  O  O416  1  0.87028834  0.36449392  0.62108501  1
  O  O417  1  0.86487370  0.87384589  0.11584919  1
  O  O418  1  0.86915449  0.86462589  0.63426639  1
  O  O419  1  0.12638803  0.12544972  0.38628098  1
  O  O420  1  0.13158559  0.12531196  0.88300186  1
  O  O421  1  0.13294287  0.62320348  0.38680901  1
  O  O422  1  0.12777797  0.63328086  0.87886084  1
  O  O423  1  0.63251214  0.13059317  0.38636546  1
  O  O424  1  0.63870477  0.11702622  0.87856222  1
  O  O425  1  0.63144865  0.64017859  0.37584821  1
  O  O426  1  0.63372069  0.63251206  0.87486681  1
