# generated using pymatgen
data_V85Zn86O256
_symmetry_space_group_name_H-M   'P 1'
_cell_length_a   16.92999862
_cell_length_b   16.92736537
_cell_length_c   16.92731213
_cell_angle_alpha   90.01409981
_cell_angle_beta   90.00630319
_cell_angle_gamma   89.98502781
_symmetry_Int_Tables_number   1
_chemical_formula_structural   V85Zn86O256
_chemical_formula_sum   'V85 Zn86 O256'
_cell_volume   4851.03338203
_cell_formula_units_Z   1
loop_
 _symmetry_equiv_pos_site_id
 _symmetry_equiv_pos_as_xyz
  1  'x, y, z'
loop_
 _atom_site_type_symbol
 _atom_site_label
 _atom_site_symmetry_multiplicity
 _atom_site_fract_x
 _atom_site_fract_y
 _atom_site_fract_z
 _atom_site_occupancy
  V  V0  1  0.50815572  0.25539685  0.74882686  1
  V  V1  1  0.62382190  0.00065559  0.62319903  1
  V  V2  1  0.87341687  0.25968157  0.12379201  1
  V  V3  1  0.75339061  0.49656867  0.76518890  1
  V  V4  1  0.38386224  0.00059329  0.87867726  1
  V  V5  1  0.62652303  0.74932299  0.37432003  1
  V  V6  1  0.48818009  0.24294798  0.25345963  1
  V  V7  1  0.23917987  0.74381023  0.49807678  1
  V  V8  1  0.00130284  0.62602417  0.12502080  1
  V  V9  1  0.85908982  0.75214452  0.12572667  1
  V  V10  1  0.00411147  0.87217062  0.37497009  1
  V  V11  1  0.49511499  0.49331830  0.00627529  1
  V  V12  1  0.00156386  0.12678688  0.62447433  1
  V  V13  1  0.25698497  0.37506243  0.12640378  1
  V  V14  1  0.74551406  0.25265446  0.00628919  1
  V  V15  1  0.87612874  0.12488942  0.75289996  1
  V  V16  1  0.75161014  0.24577418  0.49707512  1
  V  V17  1  0.75119521  0.87346247  0.62642772  1
  V  V18  1  0.24983269  0.12549247  0.87802423  1
  V  V19  1  0.37655188  0.12561531  0.74384653  1
  V  V20  1  0.74268138  0.75078781  -0.02163493  1
  V  V21  1  0.55812767  0.70037089  0.81210358  1
  V  V22  1  0.38372534  0.88003728  0.00327597  1
  V  V23  1  0.87650569  0.12469475  0.25440715  1
  V  V24  1  0.62496874  0.62283953  0.50136104  1
  V  V25  1  0.37601542  0.24939009  0.12115943  1
  V  V26  1  0.24652220  0.00359315  0.24566269  1
  V  V27  1  0.37556180  0.74767068  0.13326328  1
  V  V28  1  -0.00554575  0.50180755  -0.00179013  1
  V  V29  1  0.75023045  0.00046575  0.75259516  1
  V  V30  1  0.61674903  0.87582918  0.75491168  1
  V  V31  1  0.63344157  0.87595926  0.24701546  1
  V  V32  1  0.24929407  0.75145539  0.00189472  1
  V  V33  1  0.88240810  0.37638193  0.49771249  1
  V  V34  1  0.87509352  0.24943049  0.62439910  1
  V  V35  1  0.49874061  0.87487677  0.37171375  1
  V  V36  1  0.00216751  0.26817618  0.24755941  1
  V  V37  1  0.38420732  0.74947326  0.62341088  1
  V  V38  1  0.49514012  0.37686881  0.37707173  1
  V  V39  1  0.12601187  0.75057800  0.87427286  1
  V  V40  1  0.00166038  -0.00005220  0.49814464  1
  V  V41  1  0.74432953  0.12447421  0.88256075  1
  V  V42  1  0.25234794  0.00049552  0.74837763  1
  V  V43  1  0.87799967  0.49445122  0.37062369  1
  V  V44  1  0.62881862  0.25131546  0.36962794  1
  V  V45  1  0.49860105  0.00170263  0.49773343  1
  V  V46  1  -0.00649134  0.37896379  0.87567859  1
  V  V47  1  0.12798713  0.00288540  0.62339132  1
  V  V48  1  0.86898020  0.61625187  0.24620302  1
  V  V49  1  0.62799318  0.00341022  0.11491872  1
  V  V50  1  0.00184351  0.11087389  0.12297506  1
  V  V51  1  0.12316191  0.87525026  0.24956128  1
  V  V52  1  0.00218760  0.61718890  0.61701571  1
  V  V53  1  0.37370711  0.00581365  0.36957821  1
  V  V54  1  0.12500212  0.87553039  0.74977318  1
  V  V55  1  0.12002411  0.26980750  0.36790468  1
  V  V56  1  0.13144214  0.37985739  0.74424722  1
  V  V57  1  0.25131223  0.87255386  0.62229579  1
  V  V58  1  0.87551819  0.88088028  0.00358243  1
  V  V59  1  0.24990279  0.12989306  0.36949133  1
  V  V60  1  0.25821174  0.50212064  0.24822446  1
  V  V61  1  0.62933341  0.12373803  0.49425221  1
  V  V62  1  0.24969495  0.61951580  0.87559269  1
  V  V63  1  0.62352647  0.25264923  0.88013132  1
  V  V64  1  0.50022042  0.62068185  0.13130190  1
  V  V65  1  0.74753288  0.00651009  0.25593878  1
  V  V66  1  0.12349840  0.25220443  0.87988736  1
  V  V67  1  0.74770488  0.61672522  0.37115723  1
  V  V68  1  0.48749962  0.36836552  0.88213025  1
  V  V69  1  0.37305731  0.63027895  0.75240101  1
  V  V70  1  0.23322031  0.62998406  0.36993092  1
  V  V71  1  0.00010812  0.74754998  0.25266689  1
  V  V72  1  -0.00089741  0.74881822  0.74959241  1
  V  V73  1  0.12515217  0.62536590  0.00274055  1
  V  V74  1  0.74887022  0.37544297  0.62996008  1
  V  V75  1  0.12254040  0.48994059  0.12951246  1
  V  V76  1  0.49653084  0.11772171  0.11578200  1
  V  V77  1  0.38214493  0.51634458  0.37628727  1
  V  V78  1  0.24399128  0.87921722  0.12333196  1
  V  V79  1  0.62811107  0.49575557  0.62653852  1
  V  V80  1  0.87572816  0.87342785  0.49979576  1
  V  V81  1  0.87410380  0.61843380  0.76295103  1
  V  V82  1  0.37300856  0.27021874  0.62219582  1
  V  V83  1  0.12642669  0.13032083  0.49431812  1
  V  V84  1  0.12166363  0.11225139  0.00222303  1
  Zn  Zn85  1  0.25014073  0.26234619  0.50961303  1
  Zn  Zn86  1  0.49948364  0.12887502  0.62217954  1
  Zn  Zn87  1  0.50499653  0.62625672  0.62830981  1
  Zn  Zn88  1  0.13745063  0.50379951  0.61200390  1
  Zn  Zn89  1  0.00935485  0.49714146  0.48843223  1
  Zn  Zn90  1  0.86567432  0.38569048  0.00034182  1
  Zn  Zn91  1  0.87517467  0.74577979  0.62557210  1
  Zn  Zn92  1  0.00123792  0.25259447  0.75089345  1
  Zn  Zn93  1  0.25994039  0.49455183  0.73859862  1
  Zn  Zn94  1  0.64030081  0.49752591  0.12558081  1
  Zn  Zn95  1  0.87163105  0.00286632  0.37580090  1
  Zn  Zn96  1  0.00335119  0.88342820  0.88271397  1
  Zn  Zn97  1  0.49668536  0.49344289  0.50723351  1
  Zn  Zn98  1  0.62517394  0.62839693  -0.00496609  1
  Zn  Zn99  1  0.88133909  0.00553722  0.88598513  1
  Zn  Zn100  1  0.25185501  0.25511202  0.00136712  1
  Zn  Zn101  1  0.75179740  0.74819650  0.49934408  1
  Zn  Zn102  1  0.50783038  0.87630374  0.88269142  1
  Zn  Zn103  1  0.63451236  0.38118359  0.24280901  1
  Zn  Zn104  1  0.37333378  0.87342150  0.49698997  1
  Zn  Zn105  1  0.49733099  0.74604343  0.25320570  1
  Zn  Zn106  1  0.37114832  0.49342291  0.87859383  1
  Zn  Zn107  1  0.18346983  0.18970105  0.18702121  1
  Zn  Zn108  1  0.19007474  0.19357812  0.68904196  1
  Zn  Zn109  1  0.18674646  0.68925742  0.19070226  1
  Zn  Zn110  1  0.18846520  0.68405518  0.68477459  1
  Zn  Zn111  1  0.68678192  0.18651275  0.18864486  1
  Zn  Zn112  1  0.68719606  0.18622032  0.68691590  1
  Zn  Zn113  1  0.68166142  0.68148876  0.18853200  1
  Zn  Zn114  1  0.69677829  0.68302531  0.68646837  1
  Zn  Zn115  1  0.29663839  0.33165419  0.33533121  1
  Zn  Zn116  1  0.31112278  0.30717718  0.80974431  1
  Zn  Zn117  1  0.31007699  0.81283565  0.31438971  1
  Zn  Zn118  1  0.31537935  0.81184782  0.81373866  1
  Zn  Zn119  1  0.81701964  0.30614481  0.31622378  1
  Zn  Zn120  1  0.81149176  0.31092070  0.81490790  1
  Zn  Zn121  1  0.81228308  0.81003894  0.31352515  1
  Zn  Zn122  1  0.81788858  0.81595767  0.81236059  1
  Zn  Zn123  1  0.19412310  0.43833007  0.44249985  1
  Zn  Zn124  1  0.18509049  0.43616869  0.94148682  1
  Zn  Zn125  1  0.18729881  0.93553931  0.43583817  1
  Zn  Zn126  1  0.19188973  0.93790853  0.93517463  1
  Zn  Zn127  1  0.68973282  0.43364646  0.43713815  1
  Zn  Zn128  1  0.67652419  0.43219969  0.94854309  1
  Zn  Zn129  1  0.68906567  0.93713216  0.43489435  1
  Zn  Zn130  1  0.69491139  0.93302183  0.93851370  1
  Zn  Zn131  1  0.31318532  0.06608582  0.06397990  1
  Zn  Zn132  1  0.31151833  0.06664099  0.55659231  1
  Zn  Zn133  1  0.31646840  0.56201770  0.06324067  1
  Zn  Zn134  1  0.31386367  0.56405827  0.55941079  1
  Zn  Zn135  1  0.80976327  0.06651568  0.06965699  1
  Zn  Zn136  1  0.81311117  0.06043178  0.56292661  1
  Zn  Zn137  1  0.81309997  0.57419620  0.05063889  1
  Zn  Zn138  1  0.81639936  0.56128189  0.56337177  1
  Zn  Zn139  1  0.44068589  0.43197516  0.19474878  1
  Zn  Zn140  1  0.44231062  0.44135494  0.69495093  1
  Zn  Zn141  1  0.43647333  0.93833773  0.18955224  1
  Zn  Zn142  1  0.43811201  0.93700700  0.68588966  1
  Zn  Zn143  1  0.79403919  0.43632206  0.18583918  1
  Zn  Zn144  1  0.93854541  0.43820774  0.68918837  1
  Zn  Zn145  1  0.93223260  0.93573185  0.18586652  1
  Zn  Zn146  1  0.93914011  0.93947526  0.69006045  1
  Zn  Zn147  1  0.06081673  0.06119608  0.30929527  1
  Zn  Zn148  1  0.06151781  0.06275818  0.81510407  1
  Zn  Zn149  1  0.06167558  0.55552771  0.30733103  1
  Zn  Zn150  1  0.06244501  0.56108910  0.81059978  1
  Zn  Zn151  1  0.56293466  0.06572387  0.31090300  1
  Zn  Zn152  1  0.56301127  0.06519036  0.81254704  1
  Zn  Zn153  1  0.56790874  0.55683103  0.30503660  1
  Zn  Zn154  1  0.56924019  0.53274734  0.81648300  1
  Zn  Zn155  1  0.43655913  0.18776059  0.43893962  1
  Zn  Zn156  1  0.43681225  0.18476975  0.93976386  1
  Zn  Zn157  1  0.43949139  0.68788303  0.44166326  1
  Zn  Zn158  1  0.43182497  0.68346062  0.95023981  1
  Zn  Zn159  1  0.94090201  0.19078294  0.43321230  1
  Zn  Zn160  1  0.93722063  0.18926149  0.94064498  1
  Zn  Zn161  1  0.93589809  0.68666638  0.43495799  1
  Zn  Zn162  1  0.93740463  0.69443770  0.93887583  1
  Zn  Zn163  1  0.05940918  0.31250240  0.06303374  1
  Zn  Zn164  1  0.06354508  0.31237660  0.56158265  1
  Zn  Zn165  1  0.05884775  0.81328558  0.06640797  1
  Zn  Zn166  1  0.06210066  0.80949995  0.56598022  1
  Zn  Zn167  1  0.56403260  0.31011320  0.06469321  1
  Zn  Zn168  1  0.56261241  0.31336575  0.56072036  1
  Zn  Zn169  1  0.56565226  0.81251111  0.06646447  1
  Zn  Zn170  1  0.56473283  0.81367072  0.55933323  1
  O  O171  1  0.11108359  0.12869608  0.11676138  1
  O  O172  1  0.12463372  0.12612415  0.61303351  1
  O  O173  1  0.12101129  0.62341116  0.11926834  1
  O  O174  1  0.10628192  0.62263787  0.63338753  1
  O  O175  1  0.61227544  0.11201789  0.13137236  1
  O  O176  1  0.62325289  0.11914588  0.61418517  1
  O  O177  1  0.61041349  0.62385790  0.12007732  1
  O  O178  1  0.62719407  0.61891388  0.61769225  1
  O  O179  1  0.39102684  0.39400853  0.36109447  1
  O  O180  1  0.38292438  0.36975146  0.87443736  1
  O  O181  1  0.38273007  0.88236555  0.37556054  1
  O  O182  1  0.37600836  0.88323735  0.88366232  1
  O  O183  1  0.86879353  0.38343901  0.38431707  1
  O  O184  1  0.88985496  0.36883659  0.87741287  1
  O  O185  1  0.88467802  0.87624410  0.38223746  1
  O  O186  1  0.87709286  0.87728395  0.88960280  1
  O  O187  1  0.25431575  0.00837430  0.36985554  1
  O  O188  1  0.25998835  0.00617452  0.86669302  1
  O  O189  1  0.26156414  0.51643697  0.36845759  1
  O  O190  1  0.24966519  0.51122355  0.87686561  1
  O  O191  1  0.75245864  -0.00110087  0.36225517  1
  O  O192  1  0.75513483  0.00872241  0.87018672  1
  O  O193  1  0.75909525  0.51090409  0.38153508  1
  O  O194  1  0.73784036  0.48760421  0.86344819  1
  O  O195  1  0.24774425  0.49683378  0.13098619  1
  O  O196  1  0.24969166  0.50618279  0.62685401  1
  O  O197  1  0.25580633  0.99135017  0.13420356  1
  O  O198  1  0.24662360  0.99531231  0.62673458  1
  O  O199  1  0.75402507  0.49801649  0.10394525  1
  O  O200  1  0.74818493  0.49094431  0.62960817  1
  O  O201  1  0.73435647  1.00653618  0.13650564  1
  O  O202  1  0.74448251  0.99032378  0.62945861  1
  O  O203  1  -0.00461240  0.36295313  0.24473322  1
  O  O204  1  0.00909177  0.37465790  0.75865527  1
  O  O205  1  0.00311256  0.87023239  0.25523250  1
  O  O206  1  0.00719591  0.86473804  0.74686155  1
  O  O207  1  0.50713034  0.35922066  0.25940525  1
  O  O208  1  0.49759630  0.36434410  0.76296007  1
  O  O209  1  0.50818169  0.87715360  0.26163751  1
  O  O210  1  0.51334002  0.87660395  0.75028294  1
  O  O211  1  0.50061365  0.13860691  0.24659044  1
  O  O212  1  0.49149468  0.13329976  0.74750551  1
  O  O213  1  0.50186194  0.62753894  0.23583085  1
  O  O214  1  0.49900522  0.63257575  0.75608191  1
  O  O215  1  0.99548759  0.12535167  0.23751299  1
  O  O216  1  0.99281680  0.12788514  0.74230133  1
  O  O217  1  0.99128667  0.63127668  0.24599479  1
  O  O218  1  0.99119929  0.62825315  0.74466714  1
  O  O219  1  0.37260094  0.24403326  0.01598588  1
  O  O220  1  0.37952840  0.24467899  0.52133137  1
  O  O221  1  0.36662681  0.76049898  0.01040021  1
  O  O222  1  0.36769135  0.75182929  0.50795840  1
  O  O223  1  0.86687461  0.25095433  0.00907040  1
  O  O224  1  0.86843835  0.25295903  0.50231083  1
  O  O225  1  0.86361387  0.75411506  0.00670547  1
  O  O226  1  0.87481697  0.76233522  0.50218006  1
  O  O227  1  0.12614054  0.24574198  0.48851121  1
  O  O228  1  0.12510646  0.24542068  0.98995608  1
  O  O229  1  0.14004195  0.75027124  0.50505534  1
  O  O230  1  0.12932891  0.74571119  0.99570980  1
  O  O231  1  0.63162991  0.24301553  0.49354449  1
  O  O232  1  0.63204956  0.24542053  0.99337035  1
  O  O233  1  0.62823347  0.74210991  0.49299192  1
  O  O234  1  0.63901859  0.75466742  1.00036444  1
  O  O235  1  0.49509515  0.23911887  0.13488449  1
  O  O236  1  0.49336325  0.25154790  0.63309861  1
  O  O237  1  0.49274643  0.74112800  0.12576964  1
  O  O238  1  0.48844312  0.75059840  0.61929699  1
  O  O239  1  0.99309386  0.24516537  0.13336642  1
  O  O240  1  0.99336676  0.24325799  0.62665088  1
  O  O241  1  0.99134848  0.74472185  0.13579591  1
  O  O242  1  0.99920473  0.74085665  0.63603211  1
  O  O243  1  0.00765547  0.24727989  0.35890295  1
  O  O244  1  0.00795946  0.25681330  0.87430136  1
  O  O245  1  -0.00667043  0.75585107  0.36141358  1
  O  O246  1  0.00751142  0.75245157  0.86321900  1
  O  O247  1  0.50270675  0.25508653  0.36872302  1
  O  O248  1  0.50390202  0.24987599  0.87066857  1
  O  O249  1  0.50550369  0.75894537  0.37432621  1
  O  O250  1  0.49696629  0.75299084  0.87507441  1
  O  O251  1  0.24275879  0.13472672  0.48878086  1
  O  O252  1  0.24079229  0.12859186  0.99587373  1
  O  O253  1  0.25534608  0.63675773  0.48506682  1
  O  O254  1  0.24568261  0.63094817  0.99461414  1
  O  O255  1  0.74298235  0.13316619  0.50580743  1
  O  O256  1  0.75711830  0.13213725  0.98762038  1
  O  O257  1  0.74175393  0.62575278  0.49448476  1
  O  O258  1  0.74504690  0.64471830  0.99322062  1
  O  O259  1  0.24553055  0.37443014  0.01878743  1
  O  O260  1  0.26273810  0.35276787  0.44603427  1
  O  O261  1  0.25545189  0.87158603  0.00813572  1
  O  O262  1  0.25100926  0.86362317  0.50275121  1
  O  O263  1  0.75205812  0.35762521  -0.00865744  1
  O  O264  1  0.75973380  0.36621550  0.50950111  1
  O  O265  1  0.76199149  0.86136730  -0.00034576  1
  O  O266  1  0.75873253  0.87586173  0.50699875  1
  O  O267  1  0.13951737  0.51010262  0.23770019  1
  O  O268  1  0.12658909  0.48623107  0.74871399  1
  O  O269  1  0.13124465  0.98520856  0.25412912  1
  O  O270  1  0.13344613  0.99784545  0.74254882  1
  O  O271  1  0.63736891  0.49856843  0.24348112  1
  O  O272  1  0.63909108  0.50325795  0.73494288  1
  O  O273  1  0.63107232  0.99547201  0.24857564  1
  O  O274  1  0.63038232  0.99439472  0.74334982  1
  O  O275  1  0.36332978  -0.00579042  0.26243665  1
  O  O276  1  0.37125324  0.00650386  0.75471457  1
  O  O277  1  0.36574390  0.50408233  0.25632639  1
  O  O278  1  0.37766440  0.51550820  0.75781736  1
  O  O279  1  0.86558049  0.00622617  0.24824708  1
  O  O280  1  0.86794479  0.01299585  0.74592923  1
  O  O281  1  0.86859488  0.51061472  0.25373711  1
  O  O282  1  0.87028151  0.50979367  0.75141978  1
  O  O283  1  0.11960908  0.36790541  0.36859216  1
  O  O284  1  0.11791717  0.36838462  0.87034929  1
  O  O285  1  0.11168795  0.87550636  0.36924867  1
  O  O286  1  0.12646741  0.86800193  0.86828191  1
  O  O287  1  0.61934970  0.36527225  0.37386515  1
  O  O288  1  0.61161269  0.35841916  0.87838826  1
  O  O289  1  0.61866419  0.87033056  0.36891712  1
  O  O290  1  0.62403653  0.88226285  0.86364178  1
  O  O291  1  0.38768316  0.12910416  0.12840898  1
  O  O292  1  0.37614849  0.12285430  0.63638337  1
  O  O293  1  0.38548900  0.63669121  0.12019443  1
  O  O294  1  0.38232738  0.63223801  0.63385415  1
  O  O295  1  0.88678285  0.13107647  0.13164015  1
  O  O296  1  0.87931993  0.13010401  0.63073237  1
  O  O297  1  0.88069689  0.63278944  0.13094852  1
  O  O298  1  0.88589303  0.62600365  0.63392264  1
  O  O299  1  0.25898164  0.25688279  0.13051239  1
  O  O300  1  0.26684164  0.25306309  0.62652456  1
  O  O301  1  0.25614613  0.75764276  0.12188446  1
  O  O302  1  0.25781425  0.74988476  0.61398515  1
  O  O303  1  0.75905853  0.23589061  0.11458603  1
  O  O304  1  0.75395075  0.25562354  0.61780737  1
  O  O305  1  0.75805001  0.74586599  0.12643096  1
  O  O306  1  0.75281837  0.76249023  0.62318953  1
  O  O307  1  0.23432588  0.23225650  0.34833015  1
  O  O308  1  0.24328949  0.24270134  0.87854527  1
  O  O309  1  0.25264576  0.74006164  0.38354935  1
  O  O310  1  0.24492648  0.74240079  0.88112689  1
  O  O311  1  0.74283882  0.25023347  0.38937670  1
  O  O312  1  0.74098629  0.24341111  0.87908132  1
  O  O313  1  0.74430436  0.73916481  0.37755434  1
  O  O314  1  0.74774298  0.75407975  0.87958877  1
  O  O315  1  0.00542758  0.12881931  0.01372111  1
  O  O316  1  0.00719784  0.12166616  0.50376761  1
  O  O317  1  0.00612366  0.62296479  0.00329232  1
  O  O318  1  -0.00623746  0.62594513  0.51420690  1
  O  O319  1  0.49935071  0.12439881  0.01660523  1
  O  O320  1  0.50849200  0.11855203  0.50100100  1
  O  O321  1  0.50287418  0.61874498  0.01145456  1
  O  O322  1  0.51550908  0.62120641  0.50121739  1
  O  O323  1  0.50585301  0.37660575  0.48348426  1
  O  O324  1  0.49880921  0.37950042  0.99411355  1
  O  O325  1  0.50126174  0.88334465  0.48699237  1
  O  O326  1  0.48719064  0.87276684  1.00237099  1
  O  O327  1  0.98565668  0.37272451  0.50317814  1
  O  O328  1  1.00023040  0.38541823  0.99374087  1
  O  O329  1  0.99581072  0.87674661  0.49450045  1
  O  O330  1  0.98172193  0.86489864  1.00002660  1
  O  O331  1  0.49362046  0.49715369  0.37249881  1
  O  O332  1  0.49582730  0.48434067  0.88368682  1
  O  O333  1  0.49163940  0.99695296  0.37652658  1
  O  O334  1  0.48752751  0.99998194  0.87145402  1
  O  O335  1  0.98272437  0.50628611  0.37223484  1
  O  O336  1  1.01106043  0.49073607  0.88573202  1
  O  O337  1  0.99748899  0.99088569  0.38151282  1
  O  O338  1  0.99296797  0.99572744  0.86853490  1
  O  O339  1  -0.00203129  0.01194658  0.12666909  1
  O  O340  1  0.00814696  0.00658677  0.61884900  1
  O  O341  1  0.01149350  0.51112773  0.11587068  1
  O  O342  1  0.00051132  0.51082402  0.62259869  1
  O  O343  1  0.50624313  0.01185101  0.13318957  1
  O  O344  1  0.50631162  0.00018518  0.61543686  1
  O  O345  1  0.49119314  0.51059384  0.12263058  1
  O  O346  1  0.51226224  0.50239268  0.62614772  1
  O  O347  1  0.25080829  0.38941629  0.24029568  1
  O  O348  1  0.23563493  0.37775191  0.75931927  1
  O  O349  1  0.24118935  0.88034198  0.24542263  1
  O  O350  1  0.24571574  0.87952784  0.74311182  1
  O  O351  1  0.74794313  0.35683898  0.24721310  1
  O  O352  1  0.75995433  0.38056556  0.73791762  1
  O  O353  1  0.73877790  0.88155719  0.25424947  1
  O  O354  1  0.74563196  0.88030835  0.74292377  1
  O  O355  1  0.23922786  0.10951531  0.25208206  1
  O  O356  1  0.25788178  0.12180038  0.75574913  1
  O  O357  1  0.25028408  0.62590576  0.26347779  1
  O  O358  1  0.25741582  0.62486613  0.75957676  1
  O  O359  1  0.76180589  0.11864370  0.24753119  1
  O  O360  1  0.75647528  0.12090257  0.75687887  1
  O  O361  1  0.75799304  0.63130053  0.25927331  1
  O  O362  1  0.76591132  0.61481595  0.74812712  1
  O  O363  1  0.36324195  0.11898465  0.37751709  1
  O  O364  1  0.37101430  0.12014807  0.86619140  1
  O  O365  1  0.37891731  0.61845369  0.36956399  1
  O  O366  1  0.36458488  0.62979150  0.87044931  1
  O  O367  1  0.88362639  0.12230692  0.35974096  1
  O  O368  1  0.86786021  0.12703908  0.86717009  1
  O  O369  1  0.86671408  0.62013228  0.36661458  1
  O  O370  1  0.88217651  0.62729462  0.86155123  1
  O  O371  1  0.12911205  0.38654950  0.12364658  1
  O  O372  1  0.12184087  0.37011300  0.64234718  1
  O  O373  1  0.13622085  0.87241572  0.13045234  1
  O  O374  1  0.13158117  0.88099039  0.62998549  1
  O  O375  1  0.61406743  0.38393608  0.12834293  1
  O  O376  1  0.63721577  0.38141425  0.61918624  1
  O  O377  1  0.61412110  0.89144905  0.13697482  1
  O  O378  1  0.63305101  0.87970120  0.62983686  1
  O  O379  1  0.10925939  0.24869809  0.25288838  1
  O  O380  1  0.12485606  0.25827112  0.76200010  1
  O  O381  1  0.11407579  0.76284343  0.24565234  1
  O  O382  1  0.11990289  0.75400735  0.75380407  1
  O  O383  1  0.61769018  0.24323260  0.26350422  1
  O  O384  1  0.61315727  0.24422730  0.75559811  1
  O  O385  1  0.62206395  0.75928134  0.25539729  1
  O  O386  1  0.62319099  0.75363431  0.74975832  1
  O  O387  1  0.38758196  0.25192244  0.24602180  1
  O  O388  1  0.38242961  0.24361986  0.73940914  1
  O  O389  1  0.37737489  0.76073663  0.23682557  1
  O  O390  1  0.37038791  0.73962723  0.74101809  1
  O  O391  1  0.88601538  0.24155288  0.24451060  1
  O  O392  1  0.87457743  0.23844973  0.74446134  1
  O  O393  1  0.87940726  0.74368741  0.24286721  1
  O  O394  1  0.88266884  0.74098231  0.74891877  1
  O  O395  1  0.38048537  0.50781480  0.48145642  1
  O  O396  1  0.38867633  0.50524568  0.99490982  1
  O  O397  1  0.37858740  0.99858898  0.48792192  1
  O  O398  1  0.36747791  0.99252996  0.99058065  1
  O  O399  1  0.87807248  0.49153666  0.49109976  1
  O  O400  1  0.89099266  0.50348294  0.99864393  1
  O  O401  1  0.88203975  0.98982842  0.49957350  1
  O  O402  1  0.86545718  0.98443224  1.00714139  1
  O  O403  1  0.12773996  0.01278822  -0.00667017  1
  O  O404  1  0.12223067  0.00844647  0.50420286  1
  O  O405  1  0.12084142  0.50886857  0.00931891  1
  O  O406  1  0.12040912  0.49296708  0.50018714  1
  O  O407  1  0.63172641  -0.00529715  0.01631548  1
  O  O408  1  0.62148900  0.00673787  0.50135834  1
  O  O409  1  0.60809059  0.50687185  0.00024566  1
  O  O410  1  0.62754730  0.50548077  0.50993851  1
  O  O411  1  0.36936613  0.36341150  0.13122936  1
  O  O412  1  0.37979769  0.36886590  0.62780481  1
  O  O413  1  0.36661464  0.87263311  0.11958509  1
  O  O414  1  0.36819979  0.86773994  0.62346630  1
  O  O415  1  0.87513236  0.36143087  0.12161770  1
  O  O416  1  0.87028693  0.36842723  0.61952799  1
  O  O417  1  0.87638325  0.86427247  0.11587672  1
  O  O418  1  0.86869852  0.87492066  0.61860822  1
  O  O419  1  0.12815832  0.12417784  0.38439665  1
  O  O420  1  0.12899750  0.13334886  0.88049460  1
  O  O421  1  0.13505470  0.62388954  0.37154220  1
  O  O422  1  0.13181799  0.63116544  0.87908421  1
  O  O423  1  0.62137830  0.13325916  0.38719019  1
  O  O424  1  0.63439738  0.13420202  0.87015897  1
  O  O425  1  0.63108199  0.62773392  0.38038516  1
  O  O426  1  0.61077791  0.63340641  0.86779932  1
