# generated using pymatgen
data_V85Zn86O256
_symmetry_space_group_name_H-M   'P 1'
_cell_length_a   16.93770037
_cell_length_b   16.93756697
_cell_length_c   16.94015043
_cell_angle_alpha   89.99818416
_cell_angle_beta   90.06682232
_cell_angle_gamma   90.09644654
_symmetry_Int_Tables_number   1
_chemical_formula_structural   V85Zn86O256
_chemical_formula_sum   'V85 Zn86 O256'
_cell_volume   4859.83834053
_cell_formula_units_Z   1
loop_
 _symmetry_equiv_pos_site_id
 _symmetry_equiv_pos_as_xyz
  1  'x, y, z'
loop_
 _atom_site_type_symbol
 _atom_site_label
 _atom_site_symmetry_multiplicity
 _atom_site_fract_x
 _atom_site_fract_y
 _atom_site_fract_z
 _atom_site_occupancy
  V  V0  1  0.12134688  -0.00253644  0.12017987  1
  V  V1  1  0.49097259  0.38163389  0.87273785  1
  V  V2  1  0.74761130  0.75191257  0.50834694  1
  V  V3  1  0.12583988  0.13296086  0.49238965  1
  V  V4  1  0.63416141  0.75670664  0.87493207  1
  V  V5  1  0.87289484  0.87657639  -0.00201474  1
  V  V6  1  0.88248697  0.62558643  0.25085109  1
  V  V7  1  0.37553976  0.75150183  0.12528642  1
  V  V8  1  0.49389380  0.50503836  -0.00604752  1
  V  V9  1  0.88906938  0.87468917  0.50907858  1
  V  V10  1  0.25074165  0.12704992  0.88742086  1
  V  V11  1  0.00409118  0.35505435  0.37664129  1
  V  V12  1  0.62659562  0.13522951  0.50329693  1
  V  V13  1  0.87680344  0.49938875  0.37507602  1
  V  V14  1  0.49148713  0.25418392  0.74578683  1
  V  V15  1  0.50453000  0.75549114  0.24951262  1
  V  V16  1  0.25025230  0.74819924  0.00095679  1
  V  V17  1  0.50409582  0.87751980  0.86577614  1
  V  V18  1  0.37405109  0.74877319  0.62659216  1
  V  V19  1  0.11002490  0.12418178  0.00125605  1
  V  V20  1  0.74028227  0.86300494  0.11539438  1
  V  V21  1  -0.05655285  0.93378733  0.33069299  1
  V  V22  1  0.49161157  0.13006526  0.62504526  1
  V  V23  1  0.38048956  0.62579101  0.75183983  1
  V  V24  1  0.24749954  0.37133138  0.11730633  1
  V  V25  1  0.12835195  0.49860589  0.62505509  1
  V  V26  1  0.62006315  0.74106576  0.38356759  1
  V  V27  1  0.62682229  -0.00838415  0.62833141  1
  V  V28  1  0.26422758  0.12479075  0.37328283  1
  V  V29  1  0.24690385  0.87506717  0.62662595  1
  V  V30  1  0.75242196  0.12540958  0.87086566  1
  V  V31  1  -0.00381335  0.62066255  0.63437064  1
  V  V32  1  0.00129857  0.88202242  0.88098834  1
  V  V33  1  0.25923619  0.36485473  0.62549070  1
  V  V34  1  0.62493856  0.38000998  0.75016138  1
  V  V35  1  0.65896132  0.89769726  0.28529174  1
  V  V36  1  0.62704065  0.12553259  -0.00739309  1
  V  V37  1  0.11045184  0.75152098  0.37314287  1
  V  V38  1  0.75244295  0.62470257  0.87589685  1
  V  V39  1  0.62472382  0.25657851  0.37378033  1
  V  V40  1  0.37670815  0.87697826  -0.00086213  1
  V  V41  1  0.74828361  0.62367198  0.38132738  1
  V  V42  1  0.50268898  0.62770074  0.12349963  1
  V  V43  1  0.87136759  0.37042092  0.50102840  1
  V  V44  1  -0.00577240  0.12610233  0.14617137  1
  V  V45  1  0.88138175  0.38467120  0.00027733  1
  V  V46  1  0.62419459  0.50853736  0.61422313  1
  V  V47  1  0.12757308  0.25175177  0.88320450  1
  V  V48  1  0.11346667  0.49532785  0.12460891  1
  V  V49  1  0.12227283  0.87391440  0.75171953  1
  V  V50  1  0.87116988  0.74394985  0.63438176  1
  V  V51  1  0.75374007  0.25568031  -0.00121799  1
  V  V52  1  0.24955902  0.62204042  0.37580899  1
  V  V53  1  -0.00101436  0.62534011  0.12099868  1
  V  V54  1  0.24973389  0.00282766  0.75333866  1
  V  V55  1  0.50289103  0.25736098  0.24525137  1
  V  V56  1  0.12073612  0.87156672  0.25380685  1
  V  V57  1  0.88505389  0.50740241  0.86804581  1
  V  V58  1  0.49117370  0.87533939  0.37561536  1
  V  V59  1  0.37683714  0.37685897  0.49439645  1
  V  V60  1  0.12141848  -0.00005063  0.61751905  1
  V  V61  1  0.12367502  0.74747914  0.87652013  1
  V  V62  1  0.24898864  0.87582563  0.12646492  1
  V  V63  1  0.12559939  0.37257453  0.75035161  1
  V  V64  1  0.00103089  0.12372639  0.62381698  1
  V  V65  1  0.87321163  0.74720128  0.12169950  1
  V  V66  1  0.74700166  0.36835918  0.62210223  1
  V  V67  1  0.24573342  0.75039774  0.49765414  1
  V  V68  1  0.12678213  0.36246531  0.25982150  1
  V  V69  1  0.49880986  0.12722730  0.12528207  1
  V  V70  1  0.74384792  0.49828997  0.24890402  1
  V  V71  1  0.50470585  0.00091642  0.00095633  1
  V  V72  1  0.25300223  0.49761875  0.25225092  1
  V  V73  1  0.87435859  0.12572779  0.74649818  1
  V  V74  1  0.00294953  0.49815420  0.49816672  1
  V  V75  1  0.37107932  0.88040464  0.49934098  1
  V  V76  1  0.49799175  0.00349535  0.49348608  1
  V  V77  1  0.37085637  0.24983943  0.11561163  1
  V  V78  1  0.74698295  -0.00848902  0.74433477  1
  V  V79  1  0.62250320  0.49365188  0.12490964  1
  V  V80  1  0.37335110  0.62472864  0.25132290  1
  V  V81  1  0.25897104  0.49799411  0.75269853  1
  V  V82  1  0.65056628  0.02040312  0.14392148  1
  V  V83  1  0.49632183  0.38526923  0.36732080  1
  V  V84  1  0.25694897  0.62068274  0.87807144  1
  Zn  Zn85  1  0.49433509  0.51040695  0.49142004  1
  Zn  Zn86  1  0.78931207  0.20194869  0.44262737  1
  Zn  Zn87  1  0.12438785  0.62491335  0.50047030  1
  Zn  Zn88  1  0.12185989  0.61721658  -0.00143573  1
  Zn  Zn89  1  0.37041483  0.37783753  -0.00482067  1
  Zn  Zn90  1  0.63346447  0.63120753  0.00319626  1
  Zn  Zn91  1  0.25577994  0.25012009  0.49706143  1
  Zn  Zn92  1  0.87389237  0.24038886  0.13643271  1
  Zn  Zn93  1  0.50592529  0.75616583  0.74800206  1
  Zn  Zn94  1  0.00292232  0.37760283  0.87831672  1
  Zn  Zn95  1  0.75415252  0.50432262  0.74740765  1
  Zn  Zn96  1  0.62459470  0.25616168  0.87224012  1
  Zn  Zn97  1  -0.00654853  0.74395867  0.75594764  1
  Zn  Zn98  1  0.36904774  0.13160322  0.74833218  1
  Zn  Zn99  1  -0.00153127  0.25147292  0.75154741  1
  Zn  Zn100  1  0.87257336  0.24854955  0.62332787  1
  Zn  Zn101  1  0.50755078  0.63139830  0.61576300  1
  Zn  Zn102  1  0.25965519  -0.00499182  0.25721892  1
  Zn  Zn103  1  0.37733954  0.00400078  0.87469449  1
  Zn  Zn104  1  0.38152166  0.11866841  0.25261217  1
  Zn  Zn105  1  0.74741387  0.37469521  0.12723397  1
  Zn  Zn106  1  0.87991272  0.00288790  0.87774439  1
  Zn  Zn107  1  0.18961503  0.18445011  0.18753676  1
  Zn  Zn108  1  0.18685914  0.18710736  0.68999918  1
  Zn  Zn109  1  0.18285186  0.68748330  0.18973256  1
  Zn  Zn110  1  0.18677556  0.68458738  0.68953672  1
  Zn  Zn111  1  0.68337098  0.19677799  0.18339614  1
  Zn  Zn112  1  0.68075252  0.18800928  0.68605291  1
  Zn  Zn113  1  0.68793064  0.68803194  0.19339603  1
  Zn  Zn114  1  0.68967966  0.68796253  0.69713507  1
  Zn  Zn115  1  0.31539108  0.30462647  0.31072000  1
  Zn  Zn116  1  0.31111703  0.31038436  0.81578257  1
  Zn  Zn117  1  0.30871704  0.80969938  0.31253820  1
  Zn  Zn118  1  0.31341149  0.81357953  0.81467239  1
  Zn  Zn119  1  0.81322436  0.31775254  0.30600633  1
  Zn  Zn120  1  0.81287803  0.31557837  0.81202860  1
  Zn  Zn121  1  0.81519615  0.80388858  0.31411009  1
  Zn  Zn122  1  0.81225057  0.81223571  0.81301319  1
  Zn  Zn123  1  0.19047568  0.43593241  0.43761064  1
  Zn  Zn124  1  0.18694512  0.44066086  0.93900426  1
  Zn  Zn125  1  0.18394365  0.94039841  0.43475796  1
  Zn  Zn126  1  0.18663311  0.93871697  0.94032416  1
  Zn  Zn127  1  0.68583628  0.43391172  0.43589913  1
  Zn  Zn128  1  0.68604677  0.44431534  0.93594993  1
  Zn  Zn129  1  0.68492234  0.93063284  0.45862005  1
  Zn  Zn130  1  0.69132680  0.93863641  0.93814275  1
  Zn  Zn131  1  0.31196901  0.05928287  0.06464562  1
  Zn  Zn132  1  0.31003191  0.06254777  0.56206996  1
  Zn  Zn133  1  0.31151829  0.55960748  0.06650605  1
  Zn  Zn134  1  0.31439102  0.55995254  0.56169422  1
  Zn  Zn135  1  0.81832807  0.06164594  0.06112512  1
  Zn  Zn136  1  0.82502360  0.07149632  0.53796264  1
  Zn  Zn137  1  0.81223931  0.56026255  0.05860240  1
  Zn  Zn138  1  0.81191293  0.55968206  0.56403058  1
  Zn  Zn139  1  0.43407716  0.43907724  0.18378531  1
  Zn  Zn140  1  0.43886637  0.44042849  0.68181951  1
  Zn  Zn141  1  0.44304429  0.94211547  0.18712445  1
  Zn  Zn142  1  0.43514392  0.94317107  0.68419167  1
  Zn  Zn143  1  0.92758084  0.41109276  0.20095756  1
  Zn  Zn144  1  0.93849391  0.43560992  0.68800881  1
  Zn  Zn145  1  0.93532469  0.94001077  0.17016383  1
  Zn  Zn146  1  0.93629968  0.93600943  0.68864060  1
  Zn  Zn147  1  0.07489820  0.05946490  0.31097043  1
  Zn  Zn148  1  0.06375659  0.06361704  0.81042223  1
  Zn  Zn149  1  0.06523776  0.55820050  0.31075774  1
  Zn  Zn150  1  0.06757517  0.55956015  0.81313397  1
  Zn  Zn151  1  0.66375101  0.06585390  0.31869040  1
  Zn  Zn152  1  0.56202191  0.06472000  0.80870274  1
  Zn  Zn153  1  0.56185743  0.56514191  0.30955001  1
  Zn  Zn154  1  0.56724234  0.56542950  0.81212551  1
  Zn  Zn155  1  0.43943393  0.19538051  0.43785522  1
  Zn  Zn156  1  0.43790966  0.19165605  0.93376527  1
  Zn  Zn157  1  0.43108387  0.68601545  0.43880857  1
  Zn  Zn158  1  0.44173953  0.69182797  0.93574432  1
  Zn  Zn159  1  0.95150529  0.16086979  0.42149862  1
  Zn  Zn160  1  0.93736020  0.19368618  0.93666525  1
  Zn  Zn161  1  0.93452889  0.68457394  0.44632322  1
  Zn  Zn162  1  0.93758558  0.68708044  0.94252827  1
  Zn  Zn163  1  0.06076406  0.30767786  0.06538445  1
  Zn  Zn164  1  0.06319042  0.30912591  0.56507718  1
  Zn  Zn165  1  0.05820349  0.80719644  0.06274700  1
  Zn  Zn166  1  0.05975999  0.80658928  0.56527570  1
  Zn  Zn167  1  0.56240868  0.31467093  0.05537137  1
  Zn  Zn168  1  0.55699683  0.31731804  0.56122337  1
  Zn  Zn169  1  0.56516686  0.81353925  0.05699750  1
  Zn  Zn170  1  0.55984090  0.81022422  0.56168616  1
  O  O171  1  0.11848134  0.11721460  0.12082385  1
  O  O172  1  0.12197601  0.11824579  0.62067611  1
  O  O173  1  0.11681576  0.61252317  0.12865898  1
  O  O174  1  0.11999758  0.61573923  0.62417176  1
  O  O175  1  0.61616018  0.12798759  0.10546267  1
  O  O176  1  0.60875147  0.12049346  0.62175500  1
  O  O177  1  0.61627472  0.62410766  0.12394899  1
  O  O178  1  0.62677551  0.61117820  0.63273016  1
  O  O179  1  0.38134619  0.37258053  0.38238700  1
  O  O180  1  0.38595218  0.37549291  0.87531613  1
  O  O181  1  0.38248354  0.86729453  0.38454294  1
  O  O182  1  0.38376882  0.87792459  0.88313393  1
  O  O183  1  0.88545507  0.38207629  0.38350959  1
  O  O184  1  0.87751469  0.38457683  0.88207069  1
  O  O185  1  0.88094017  0.86676122  0.38600819  1
  O  O186  1  0.88400270  0.87275231  0.88191886  1
  O  O187  1  0.24396267  0.01769385  0.37492229  1
  O  O188  1  0.24907744  0.00709316  0.86896071  1
  O  O189  1  0.24362595  0.50939488  0.36550768  1
  O  O190  1  0.24823726  0.50936424  0.86732388  1
  O  O191  1  0.71054072  -0.03278984  0.35348138  1
  O  O192  1  0.74960094  0.01325276  0.86696517  1
  O  O193  1  0.75186643  0.50681248  0.37010975  1
  O  O194  1  0.76004586  0.50731317  0.87131397  1
  O  O195  1  0.24084611  0.49115619  0.13303112  1
  O  O196  1  0.24561953  0.49292179  0.63382051  1
  O  O197  1  0.24028028  0.99047866  0.12422773  1
  O  O198  1  0.24285341  0.99451295  0.63333880  1
  O  O199  1  0.73874249  0.50659009  0.13160250  1
  O  O200  1  0.73977487  0.49304148  0.62714015  1
  O  O201  1  0.74476848  0.98620552  0.11411455  1
  O  O202  1  0.73230291  1.00755867  0.62959039  1
  O  O203  1  0.02099617  0.38657290  0.26643323  1
  O  O204  1  0.01262815  0.37354336  0.75211962  1
  O  O205  1  0.00371265  0.88324793  0.25788817  1
  O  O206  1  0.00669316  0.86914560  0.75913666  1
  O  O207  1  0.49240076  0.36926306  0.25451969  1
  O  O208  1  0.50378579  0.37338280  0.75352864  1
  O  O209  1  0.49272836  0.86334441  0.25951877  1
  O  O210  1  0.49395005  0.88126617  0.76320629  1
  O  O211  1  0.50407019  0.13331036  0.22886923  1
  O  O212  1  0.49691839  0.13568211  0.74388389  1
  O  O213  1  0.49515995  0.63813837  0.24534964  1
  O  O214  1  0.48656931  0.62533960  0.74891371  1
  O  O215  1  1.00470358  0.12549818  0.24494001  1
  O  O216  1  0.99163495  0.12625506  0.74416111  1
  O  O217  1  0.98788876  0.61463912  0.24224711  1
  O  O218  1  1.00644712  0.62244842  0.73866256  1
  O  O219  1  0.38095357  0.25649507  0.01144245  1
  O  O220  1  0.37506281  0.26833335  0.50007074  1
  O  O221  1  0.37086649  0.75628281  0.00576370  1
  O  O222  1  0.36659287  0.76087204  0.50853227  1
  O  O223  1  0.86603794  0.26153896  0.00125481  1
  O  O224  1  0.87402899  0.26511115  0.50270500  1
  O  O225  1  0.87840458  0.75691205  0.01370102  1
  O  O226  1  0.86781765  0.75237105  0.51149327  1
  O  O227  1  0.13300344  0.23554022  0.50747408  1
  O  O228  1  0.12399542  0.24039318  0.99412190  1
  O  O229  1  0.13017183  0.74772265  0.49324526  1
  O  O230  1  0.13078205  0.74523714  0.99086417  1
  O  O231  1  0.61281698  0.24610057  0.48988247  1
  O  O232  1  0.63678737  0.24546146  0.99557721  1
  O  O233  1  0.63242683  0.75005034  0.49534446  1
  O  O234  1  0.61757203  0.74663820  0.98107477  1
  O  O235  1  0.49623027  0.24782666  0.12579232  1
  O  O236  1  0.50289367  0.24340790  0.63326360  1
  O  O237  1  0.49856923  0.74891710  0.13218668  1
  O  O238  1  0.48987492  0.75007458  0.63041627  1
  O  O239  1  0.99984338  0.22799655  0.12090256  1
  O  O240  1  0.99971756  0.23687622  0.62985857  1
  O  O241  1  0.99102733  0.73739400  0.12776564  1
  O  O242  1  0.99311138  0.73610814  0.62909792  1
  O  O243  1  -0.00223513  0.25546450  0.37959862  1
  O  O244  1  0.01372102  0.25288793  0.87153139  1
  O  O245  1  0.01189559  0.73792381  0.37963514  1
  O  O246  1  0.00897443  0.75250650  0.87508636  1
  O  O247  1  0.50321095  0.25969723  0.36276033  1
  O  O248  1  0.50371330  0.26183622  0.86684917  1
  O  O249  1  0.50314225  0.75292654  0.36956217  1
  O  O250  1  0.50714777  0.76180130  0.87045524  1
  O  O251  1  0.24429824  0.12670014  0.49327223  1
  O  O252  1  0.23977273  0.11744098  0.99012608  1
  O  O253  1  0.24854121  0.62909736  0.49176498  1
  O  O254  1  0.24982494  0.62763547  0.99345090  1
  O  O255  1  0.72807966  0.13569046  0.52131076  1
  O  O256  1  0.74675375  0.13163875  0.99204630  1
  O  O257  1  0.75800480  0.63055607  0.48667434  1
  O  O258  1  0.74994334  0.62132965  0.98447926  1
  O  O259  1  0.25027337  0.37873575  0.01329818  1
  O  O260  1  0.25840353  0.37326877  0.50718109  1
  O  O261  1  0.25584734  0.86913768  0.00572954  1
  O  O262  1  0.25442493  0.87292646  0.50498240  1
  O  O263  1  0.75612088  0.36819734  -0.00507793  1
  O  O264  1  0.75996327  0.38264063  0.50810887  1
  O  O265  1  0.75838837  0.86981907  0.00334240  1
  O  O266  1  0.76036422  0.85601061  0.50015441  1
  O  O267  1  0.13620580  0.49258502  0.24140456  1
  O  O268  1  0.13732179  0.48885605  0.74817286  1
  O  O269  1  0.13100467  0.98758274  0.23938309  1
  O  O270  1  0.13436389  0.99517895  0.74316897  1
  O  O271  1  0.63153809  0.51080149  0.23736676  1
  O  O272  1  0.62433056  0.49036690  0.74105570  1
  O  O273  1  0.60442390  0.97634547  0.23838042  1
  O  O274  1  0.62994787  1.00525973  0.73697318  1
  O  O275  1  0.37170398  0.00688897  0.23979354  1
  O  O276  1  0.36022784  0.00150973  0.75193549  1
  O  O277  1  0.36100190  0.50772227  0.24300713  1
  O  O278  1  0.36574306  0.50868455  0.74398399  1
  O  O279  1  0.88353809  -0.01833651  0.26697405  1
  O  O280  1  0.86662767  0.01147793  0.74947745  1
  O  O281  1  0.86675483  0.50461135  0.25753342  1
  O  O282  1  0.87447496  0.49413258  0.76460637  1
  O  O283  1  0.12252457  0.37213706  0.36777374  1
  O  O284  1  0.12662079  0.36912547  0.87063663  1
  O  O285  1  0.12798887  0.86587817  0.36641242  1
  O  O286  1  0.11977191  0.86704138  0.87419692  1
  O  O287  1  0.61064660  0.36683625  0.37984805  1
  O  O288  1  0.61584769  0.37869690  0.86540582  1
  O  O289  1  0.60831364  0.85982011  0.38234990  1
  O  O290  1  0.61956085  0.86667978  0.87970696  1
  O  O291  1  0.38340297  0.13301703  0.11773511  1
  O  O292  1  0.38636429  0.11937930  0.62760453  1
  O  O293  1  0.38203330  0.63245618  0.13069064  1
  O  O294  1  0.36972328  0.63754501  0.63253860  1
  O  O295  1  0.88807711  0.12187543  0.12917108  1
  O  O296  1  0.88399555  0.12529188  0.62761728  1
  O  O297  1  0.87980032  0.62713206  0.12966273  1
  O  O298  1  0.88444841  0.62906573  0.62172528  1
  O  O299  1  0.25876726  0.25782952  0.13037335  1
  O  O300  1  0.24946837  0.26230569  0.62741224  1
  O  O301  1  0.25282796  0.75452648  0.11956085  1
  O  O302  1  0.25290219  0.75609850  0.62011881  1
  O  O303  1  0.75439280  0.25502463  0.11565549  1
  O  O304  1  0.74776315  0.26469516  0.62885637  1
  O  O305  1  0.75617033  0.75280905  0.12434507  1
  O  O306  1  0.75716584  0.73844281  0.61915485  1
  O  O307  1  0.25307554  0.23260395  0.37727246  1
  O  O308  1  0.23840699  0.24129460  0.87288685  1
  O  O309  1  0.24025262  0.74299094  0.38063455  1
  O  O310  1  0.24411371  0.74361387  0.88145538  1
  O  O311  1  0.73519363  0.26324879  0.36690303  1
  O  O312  1  0.74876039  0.24096736  0.87931204  1
  O  O313  1  0.74003720  0.74239911  0.38238929  1
  O  O314  1  0.74101366  0.74504111  0.87348897  1
  O  O315  1  0.00850537  0.12289111  -0.00224722  1
  O  O316  1  0.01914545  0.12492196  0.50905653  1
  O  O317  1  0.00207162  0.62260473  0.01573049  1
  O  O318  1  0.00274848  0.61284860  0.51063005  1
  O  O319  1  0.50809837  0.12081988  -0.00025498  1
  O  O320  1  0.50227289  0.11962552  0.50549801  1
  O  O321  1  0.49891908  0.62103788  0.00704157  1
  O  O322  1  0.49298173  0.62279452  0.50325257  1
  O  O323  1  0.48960574  0.38217289  0.49049159  1
  O  O324  1  0.49963618  0.38514266  0.98851945  1
  O  O325  1  0.48943331  0.87889876  0.49573020  1
  O  O326  1  0.49725829  0.88541242  0.99304934  1
  O  O327  1  0.99701745  0.37913652  0.49570509  1
  O  O328  1  0.98467548  0.36974407  0.99994278  1
  O  O329  1  0.98905626  0.86730443  0.49966662  1
  O  O330  1  0.99142466  0.86902221  0.99124669  1
  O  O331  1  0.50238076  0.48952949  0.37028980  1
  O  O332  1  0.50370801  0.49641069  0.88259051  1
  O  O333  1  0.50439855  0.98761147  0.39158847  1
  O  O334  1  0.50319837  0.99661109  0.88450552  1
  O  O335  1  0.99912493  0.49667582  0.38709363  1
  O  O336  1  0.98969858  0.49971708  0.87417386  1
  O  O337  1  1.00120542  1.00094183  0.37882940  1
  O  O338  1  1.00115525  0.98590725  0.86981465  1
  O  O339  1  0.00874859  0.01411349  0.12586001  1
  O  O340  1  0.00990475  0.01141549  0.63409940  1
  O  O341  1  0.01206703  0.49940006  0.13507852  1
  O  O342  1  0.00595657  0.50149536  0.61753596  1
  O  O343  1  0.51118013  0.00954899  0.11299793  1
  O  O344  1  0.50663420  0.00684542  0.61755895  1
  O  O345  1  0.50593585  0.50835773  0.12099370  1
  O  O346  1  0.51531829  0.50284486  0.62259371  1
  O  O347  1  0.24282689  0.37940722  0.24686578  1
  O  O348  1  0.24926929  0.38141060  0.74495547  1
  O  O349  1  0.24115333  0.87348865  0.24248240  1
  O  O350  1  0.24294843  0.88163783  0.74757648  1
  O  O351  1  0.74455142  0.39497315  0.24784508  1
  O  O352  1  0.74094278  0.37848600  0.74319351  1
  O  O353  1  0.74597065  0.86216397  0.23825102  1
  O  O354  1  0.75520420  0.89274656  0.75436943  1
  O  O355  1  0.25110375  0.12344465  0.26380849  1
  O  O356  1  0.24797067  0.11797737  0.76093171  1
  O  O357  1  0.25178290  0.61764649  0.25446159  1
  O  O358  1  0.25897437  0.61802306  0.75689238  1
  O  O359  1  0.70445017  0.09049076  0.21643779  1
  O  O360  1  0.75400793  0.12230626  0.75430982  1
  O  O361  1  0.75871827  0.61935642  0.26166569  1
  O  O362  1  0.74960589  0.62058866  0.76772236  1
  O  O363  1  0.36798921  0.12488090  0.37673798  1
  O  O364  1  0.36495294  0.12489824  0.87356964  1
  O  O365  1  0.35797452  0.63400933  0.36547878  1
  O  O366  1  0.36457732  0.63364913  0.86722524  1
  O  O367  1  0.85405731  0.11235944  0.42885013  1
  O  O368  1  0.86909215  0.12413097  0.86734876  1
  O  O369  1  0.87014106  0.61989034  0.36906289  1
  O  O370  1  0.87294716  0.61360309  0.87906788  1
  O  O371  1  0.12730450  0.38006542  0.13408550  1
  O  O372  1  0.13316070  0.37861856  0.63314818  1
  O  O373  1  0.12530293  0.87895567  0.12972451  1
  O  O374  1  0.12698745  0.88087669  0.62995733  1
  O  O375  1  0.62586544  0.38972244  0.11853132  1
  O  O376  1  0.62939449  0.38440619  0.62879307  1
  O  O377  1  0.63717521  0.87955708  0.11866782  1
  O  O378  1  0.61913773  0.89235276  0.61854836  1
  O  O379  1  0.12781700  0.26472920  0.24571055  1
  O  O380  1  0.12761737  0.26196204  0.75736062  1
  O  O381  1  0.12444089  0.76274141  0.25584392  1
  O  O382  1  0.12740305  0.75441787  0.76343427  1
  O  O383  1  0.61111104  0.25059624  0.25536804  1
  O  O384  1  0.61466040  0.26433418  0.74935263  1
  O  O385  1  0.61845615  0.76009602  0.26245623  1
  O  O386  1  0.62153841  0.74964625  0.76695131  1
  O  O387  1  0.38710398  0.24230945  0.23804131  1
  O  O388  1  0.38667452  0.25137700  0.75188066  1
  O  O389  1  0.38099785  0.74578287  0.24316429  1
  O  O390  1  0.37406860  0.74429832  0.74234202  1
  O  O391  1  0.88898221  0.30269077  0.22866849  1
  O  O392  1  0.87445276  0.23813551  0.74749920  1
  O  O393  1  0.87078555  0.73624899  0.23829386  1
  O  O394  1  0.87439546  0.74981968  0.73912607  1
  O  O395  1  0.37434463  0.48479013  0.50060525  1
  O  O396  1  0.38931535  0.49759677  1.00816777  1
  O  O397  1  0.38104567  0.98720864  0.50763445  1
  O  O398  1  0.38657546  0.99511502  0.99919229  1
  O  O399  1  0.88426529  0.49190466  0.49578612  1
  O  O400  1  0.87194712  0.49090399  0.98392696  1
  O  O401  1  0.87105189  0.97180653  0.51328812  1
  O  O402  1  0.87239665  0.98331125  0.99623150  1
  O  O403  1  0.12618356  0.00562403  0.01268999  1
  O  O404  1  0.13192690  0.00943923  0.51375543  1
  O  O405  1  0.12742131  0.49916299  0.01931774  1
  O  O406  1  0.11846297  0.49869177  0.50603119  1
  O  O407  1  0.62374563  0.01114216  0.00507381  1
  O  O408  1  0.61697920  0.01022414  0.51019121  1
  O  O409  1  0.61396640  0.50701844  0.00765559  1
  O  O410  1  0.62442095  0.49841981  0.51212704  1
  O  O411  1  0.36343849  0.36798790  0.12477834  1
  O  O412  1  0.36869189  0.37889536  0.61417567  1
  O  O413  1  0.37183465  0.86949956  0.11805795  1
  O  O414  1  0.36842392  0.86643444  0.62098606  1
  O  O415  1  0.86486176  0.39625613  0.10300154  1
  O  O416  1  0.86640803  0.37548833  0.61910846  1
  O  O417  1  0.86575608  0.86589165  0.11776019  1
  O  O418  1  0.88369606  0.85870035  0.61924406  1
  O  O419  1  0.13051417  0.12447739  0.39001475  1
  O  O420  1  0.12875810  0.13074625  0.88273659  1
  O  O421  1  0.13417808  0.63167309  0.37271276  1
  O  O422  1  0.13598599  0.63020273  0.87661511  1
  O  O423  1  0.62257042  0.14158695  0.38852576  1
  O  O424  1  0.63133149  0.12876845  0.88036043  1
  O  O425  1  0.63207108  0.63424167  0.37128900  1
  O  O426  1  0.63317051  0.63508005  0.87764445  1
