# generated using pymatgen
data_V85Zn86O256
_symmetry_space_group_name_H-M   'P 1'
_cell_length_a   16.95511922
_cell_length_b   16.97312774
_cell_length_c   16.96613004
_cell_angle_alpha   89.94801341
_cell_angle_beta   90.09369437
_cell_angle_gamma   90.00325983
_symmetry_Int_Tables_number   1
_chemical_formula_structural   V85Zn86O256
_chemical_formula_sum   'V85 Zn86 O256'
_cell_volume   4882.52818551
_cell_formula_units_Z   1
loop_
 _symmetry_equiv_pos_site_id
 _symmetry_equiv_pos_as_xyz
  1  'x, y, z'
loop_
 _atom_site_type_symbol
 _atom_site_label
 _atom_site_symmetry_multiplicity
 _atom_site_fract_x
 _atom_site_fract_y
 _atom_site_fract_z
 _atom_site_occupancy
  V  V0  1  0.61858139  0.24835976  0.37358343  1
  V  V1  1  0.61834760  0.37086310  0.24920320  1
  V  V2  1  0.24535451  0.88385068  0.62417966  1
  V  V3  1  0.36967569  0.61823437  0.74638051  1
  V  V4  1  0.25110993  0.11613100  0.38019899  1
  V  V5  1  0.50168941  0.74884383  0.75059270  1
  V  V6  1  -0.00532445  0.25471002  0.74620087  1
  V  V7  1  0.74722192  0.61903481  0.88654336  1
  V  V8  1  0.50165163  0.25090329  0.74999303  1
  V  V9  1  0.75311491  0.24733699  0.00314317  1
  V  V10  1  0.37709244  0.26212168  0.13279157  1
  V  V11  1  0.39584711  0.64823619  0.27454384  1
  V  V12  1  0.88633093  0.24197322  0.15174798  1
  V  V13  1  0.37547714  0.87461253  -0.00183837  1
  V  V14  1  0.75090201  0.00069313  0.24805005  1
  V  V15  1  0.37252346  0.75306405  0.62362692  1
  V  V16  1  0.05846138  0.44187553  0.06115489  1
  V  V17  1  0.62138216  0.11943520  0.49952681  1
  V  V18  1  0.24948780  0.37844607  0.63051931  1
  V  V19  1  0.50205813  0.62494348  0.62321021  1
  V  V20  1  0.37529894  0.00040784  0.87208637  1
  V  V21  1  0.74931329  -0.00008314  0.75109598  1
  V  V22  1  0.75850087  0.24749640  0.50153122  1
  V  V23  1  0.23972168  0.24933392  0.49878111  1
  V  V24  1  0.36690751  0.49346433  0.37098418  1
  V  V25  1  0.75633527  0.75143515  0.00300271  1
  V  V26  1  0.88894466  0.49414569  0.87931640  1
  V  V27  1  0.00229645  0.12294373  0.62429477  1
  V  V28  1  0.25113864  0.25402415  -0.00171882  1
  V  V29  1  0.12888873  0.50302236  0.63183570  1
  V  V30  1  0.87647358  0.37469377  0.00024756  1
  V  V31  1  0.50016682  0.11696112  0.62102498  1
  V  V32  1  0.87287521  0.62411574  0.75368141  1
  V  V33  1  0.61342199  0.86185245  0.26104400  1
  V  V34  1  0.49924966  0.12989986  0.13308784  1
  V  V35  1  0.37578956  0.25007491  0.62395049  1
  V  V36  1  -0.00293490  0.50039656  0.50140142  1
  V  V37  1  0.75266235  0.12463732  0.36995740  1
  V  V38  1  0.49539261  0.37072901  0.37156720  1
  V  V39  1  0.75451065  0.87654362  0.62455782  1
  V  V40  1  0.24807566  0.61718062  0.86959807  1
  V  V41  1  -0.00139163  0.62702585  0.62912643  1
  V  V42  1  0.25168056  0.87414272  0.13095539  1
  V  V43  1  0.24779049  0.50431298  0.23447705  1
  V  V44  1  0.12047322  0.88401034  0.75054176  1
  V  V45  1  0.37240691  0.37298320  0.49891652  1
  V  V46  1  0.39084266  0.88338770  0.50147424  1
  V  V47  1  0.39410384  -0.00195756  0.37235173  1
  V  V48  1  0.13771725  0.86412153  0.25809156  1
  V  V49  1  0.12096482  0.75165760  0.87400685  1
  V  V50  1  0.12191816  0.37647333  0.75556879  1
  V  V51  1  0.62778310  0.50022435  0.62217956  1
  V  V52  1  0.00922938  0.37424736  0.37208484  1
  V  V53  1  -0.00331918  0.62678837  0.12561883  1
  V  V54  1  0.62594690  0.74489724  0.88081937  1
  V  V55  1  0.37139915  0.12648433  0.75056667  1
  V  V56  1  0.12584643  0.63389284  0.49936074  1
  V  V57  1  0.00260619  0.74917590  0.25226426  1
  V  V58  1  0.87233847  0.12764226  0.74404874  1
  V  V59  1  0.12266233  0.62223944  0.00748701  1
  V  V60  1  0.38237622  0.74691403  0.11880793  1
  V  V61  1  0.86853737  0.75141446  0.62651781  1
  V  V62  1  0.49975552  0.49898017  0.49735479  1
  V  V63  1  0.75828622  0.37133167  0.62365412  1
  V  V64  1  -0.00693595  -0.00672940  0.50344168  1
  V  V65  1  0.62635359  0.50177170  0.11867291  1
  V  V66  1  0.24645029  0.63090146  0.37535091  1
  V  V67  1  0.75021586  0.37303174  0.12861757  1
  V  V68  1  0.50517319  0.62708227  0.11930961  1
  V  V69  1  0.12480337  0.11513916  0.50264255  1
  V  V70  1  0.87170763  0.62621258  0.25374173  1
  V  V71  1  0.62593297  0.25008461  0.87699358  1
  V  V72  1  0.81433420  0.81349570  0.45027241  1
  V  V73  1  0.50145211  0.50175842  -0.00628240  1
  V  V74  1  0.19980920  0.03929415  0.20236488  1
  V  V75  1  0.50204066  0.87373128  0.87437663  1
  V  V76  1  0.24625817  0.74966914  -0.00285080  1
  V  V77  1  0.63648415  0.63295956  0.48430776  1
  V  V78  1  0.12202783  0.24097475  0.87445734  1
  V  V79  1  0.75088829  0.87408739  0.12074259  1
  V  V80  1  0.50254652  0.00412998  0.00138879  1
  V  V81  1  0.75025893  0.49817477  0.75277054  1
  V  V82  1  0.01025784  0.87190356  0.38096613  1
  V  V83  1  0.87873946  -0.00454303  0.88836782  1
  V  V84  1  0.74676360  0.50379465  0.25981176  1
  Zn  Zn85  1  0.62654331  0.87361714  0.74891515  1
  Zn  Zn86  1  0.87214954  -0.00383691  0.37586302  1
  Zn  Zn87  1  -0.00095370  0.87918665  0.89575407  1
  Zn  Zn88  1  0.08843627  0.21370146  0.32117994  1
  Zn  Zn89  1  0.92814923  0.80267835  0.06844902  1
  Zn  Zn90  1  0.12550586  0.38373353  0.23903980  1
  Zn  Zn91  1  0.37391293  0.49648811  0.86887971  1
  Zn  Zn92  1  0.37512926  0.12542775  0.25127606  1
  Zn  Zn93  1  0.49906098  0.37624480  0.87321442  1
  Zn  Zn94  1  0.37538078  0.37831372  -0.00376579  1
  Zn  Zn95  1  0.24636806  0.12137422  0.88170768  1
  Zn  Zn96  1  -0.00418405  0.75602242  0.75350901  1
  Zn  Zn97  1  0.87196451  0.50092796  0.37864630  1
  Zn  Zn98  1  0.62410138  0.12673080  0.00194878  1
  Zn  Zn99  1  0.88084098  0.36639637  0.49947924  1
  Zn  Zn100  1  0.75003606  0.12372967  0.87601293  1
  Zn  Zn101  1  0.62284836  -0.00532600  0.62145550  1
  Zn  Zn102  1  0.62359919  -0.00051895  0.12783505  1
  Zn  Zn103  1  0.24698289  0.75820632  0.49501247  1
  Zn  Zn104  1  0.62661952  0.37357339  0.74813023  1
  Zn  Zn105  1  0.06859844  0.08145570  0.05135906  1
  Zn  Zn106  1  0.24524178  0.00394455  0.74738809  1
  Zn  Zn107  1  0.19250032  0.20716435  0.18121913  1
  Zn  Zn108  1  0.18500684  0.18929862  0.68512512  1
  Zn  Zn109  1  0.19171932  0.68664411  0.18751008  1
  Zn  Zn110  1  0.18764416  0.69543805  0.68791484  1
  Zn  Zn111  1  0.68638155  0.18759470  0.18666385  1
  Zn  Zn112  1  0.68725361  0.18721053  0.68540691  1
  Zn  Zn113  1  0.68675065  0.68829459  0.18784582  1
  Zn  Zn114  1  0.68855349  0.68578480  0.68926606  1
  Zn  Zn115  1  0.28230239  0.30626775  0.30535086  1
  Zn  Zn116  1  0.31087412  0.31418706  0.81433855  1
  Zn  Zn117  1  0.33514632  0.80763102  0.31810467  1
  Zn  Zn118  1  0.30970744  0.81099941  0.80892928  1
  Zn  Zn119  1  0.80921213  0.32043022  0.32272305  1
  Zn  Zn120  1  0.81328052  0.31259791  0.81435573  1
  Zn  Zn121  1  0.81186926  0.81116915  0.28742079  1
  Zn  Zn122  1  0.81263479  0.81427040  0.81472329  1
  Zn  Zn123  1  0.18574446  0.44448593  0.44377068  1
  Zn  Zn124  1  0.19237059  0.43267819  0.93379557  1
  Zn  Zn125  1  0.18938289  0.93854470  0.43832529  1
  Zn  Zn126  1  0.18754630  0.94038437  0.93691226  1
  Zn  Zn127  1  0.68502908  0.43537974  0.43985744  1
  Zn  Zn128  1  0.68787455  0.43232303  0.93816053  1
  Zn  Zn129  1  0.67657383  0.93983185  0.43136583  1
  Zn  Zn130  1  0.68850388  0.93514378  0.93668549  1
  Zn  Zn131  1  0.31757987  0.07075584  0.05809925  1
  Zn  Zn132  1  0.31654503  0.05923420  0.56079856  1
  Zn  Zn133  1  0.31989768  0.56595085  0.05646904  1
  Zn  Zn134  1  0.31152140  0.56199930  0.56039211  1
  Zn  Zn135  1  0.81572949  0.06820981  0.06960899  1
  Zn  Zn136  1  0.81315578  0.06470971  0.56261943  1
  Zn  Zn137  1  0.81542837  0.55959250  0.06570157  1
  Zn  Zn138  1  0.81120953  0.56488272  0.56202773  1
  Zn  Zn139  1  0.43609728  0.44493747  0.18905737  1
  Zn  Zn140  1  0.43946243  0.43645732  0.68622282  1
  Zn  Zn141  1  0.43730717  0.93902391  0.18821456  1
  Zn  Zn142  1  0.43695710  0.93647528  0.68869422  1
  Zn  Zn143  1  0.93085721  0.43205704  0.19411706  1
  Zn  Zn144  1  0.93629881  0.43888904  0.68791791  1
  Zn  Zn145  1  0.93263683  0.93426453  0.19193151  1
  Zn  Zn146  1  0.93695288  0.94033886  0.69042650  1
  Zn  Zn147  1  0.02932759  0.06405865  0.23040552  1
  Zn  Zn148  1  0.05638430  0.06219636  0.81411383  1
  Zn  Zn149  1  0.06530898  0.55955872  0.31375590  1
  Zn  Zn150  1  0.06373564  0.56396889  0.81260340  1
  Zn  Zn151  1  0.56828945  0.05991002  0.30767372  1
  Zn  Zn152  1  0.56369206  0.06557279  0.81165533  1
  Zn  Zn153  1  0.56167371  0.55902850  0.31081383  1
  Zn  Zn154  1  0.56486866  0.56395336  0.80945940  1
  Zn  Zn155  1  0.43537165  0.18657007  0.43737424  1
  Zn  Zn156  1  0.43568338  0.18929967  0.93954389  1
  Zn  Zn157  1  0.43858266  0.68669430  0.44402285  1
  Zn  Zn158  1  0.43803604  0.68168526  0.93628271  1
  Zn  Zn159  1  0.95449085  0.16864990  0.40488664  1
  Zn  Zn160  1  0.93528350  0.18600630  0.92881632  1
  Zn  Zn161  1  0.94415585  0.68294737  0.43143443  1
  Zn  Zn162  1  0.94031165  0.68092528  0.93620280  1
  Zn  Zn163  1  0.04184066  0.26349681  0.04915791  1
  Zn  Zn164  1  0.06027378  0.31128871  0.56549582  1
  Zn  Zn165  1  0.06516623  0.92399230  0.07016854  1
  Zn  Zn166  1  0.06099844  0.81264336  0.56907920  1
  Zn  Zn167  1  0.55939048  0.31432967  0.06161200  1
  Zn  Zn168  1  0.56531839  0.30989582  0.56044216  1
  Zn  Zn169  1  0.56919304  0.81430434  0.06249718  1
  Zn  Zn170  1  0.56848461  0.80922395  0.56302687  1
  O  O171  1  0.13540585  0.11230959  0.15141970  1
  O  O172  1  0.11503714  0.12647470  0.61737163  1
  O  O173  1  0.12018970  0.62810121  0.11339896  1
  O  O174  1  0.11820900  0.62149639  0.62495624  1
  O  O175  1  0.61500956  0.12354108  0.12087473  1
  O  O176  1  0.61647991  0.12504083  0.61685812  1
  O  O177  1  0.61372309  0.61605853  0.13018064  1
  O  O178  1  0.62245857  0.61321395  0.62191086  1
  O  O179  1  0.37282934  0.38023575  0.37801409  1
  O  O180  1  0.38088765  0.38018185  0.87183370  1
  O  O181  1  0.37464986  0.89031972  0.38766745  1
  O  O182  1  0.38015277  0.88064074  0.87788823  1
  O  O183  1  0.88771130  0.38238897  0.38099036  1
  O  O184  1  0.87137125  0.38297596  0.88606955  1
  O  O185  1  0.87669603  0.86635172  0.38394042  1
  O  O186  1  0.87625263  0.89073527  0.87259155  1
  O  O187  1  0.26155314  0.01299034  0.38598880  1
  O  O188  1  0.26423687  0.00166655  0.87235604  1
  O  O189  1  0.25505648  0.50849328  0.37466213  1
  O  O190  1  0.24966503  0.51405221  0.87461744  1
  O  O191  1  0.74750023  0.00806373  0.36875972  1
  O  O192  1  0.75655668  0.00162681  0.86811556  1
  O  O193  1  0.74733261  0.49481050  0.36287693  1
  O  O194  1  0.75249277  0.50469503  0.87206360  1
  O  O195  1  0.25684367  0.51414398  0.13609987  1
  O  O196  1  0.24030211  0.49164121  0.61967776  1
  O  O197  1  0.26478086  0.99323453  0.13148775  1
  O  O198  1  0.25492716  0.98784101  0.62826824  1
  O  O199  1  0.74210783  0.49309434  0.13130558  1
  O  O200  1  0.74419681  0.49433851  0.62998240  1
  O  O201  1  0.74882709  0.99447706  0.12972430  1
  O  O202  1  0.75048562  0.99223253  0.63172031  1
  O  O203  1  0.00689880  0.38590680  0.26739836  1
  O  O204  1  0.00854716  0.36645771  0.73905444  1
  O  O205  1  0.01022631  0.86476711  0.25842690  1
  O  O206  1  0.00838756  0.87396157  0.75229038  1
  O  O207  1  0.51069513  0.38309818  0.25611499  1
  O  O208  1  0.50322924  0.36109417  0.74631079  1
  O  O209  1  0.51490989  0.87558996  0.24009222  1
  O  O210  1  0.50158368  0.86664301  0.75613162  1
  O  O211  1  0.49981120  0.12250088  0.23660004  1
  O  O212  1  0.49163637  0.13458988  0.74434083  1
  O  O213  1  0.49112910  0.61845191  0.23981673  1
  O  O214  1  0.49293185  0.63101931  0.74251405  1
  O  O215  1  1.00613422  0.13975267  0.30271192  1
  O  O216  1  0.99318924  0.12920143  0.74065098  1
  O  O217  1  0.99908236  0.62844196  0.24528198  1
  O  O218  1  0.99340713  0.62815750  0.74288808  1
  O  O219  1  0.36921786  0.25603336  0.00548759  1
  O  O220  1  0.36951985  0.25594573  0.50845651  1
  O  O221  1  0.36588695  0.75156123  0.00131115  1
  O  O222  1  0.37488681  0.75770035  0.51345925  1
  O  O223  1  0.86738437  0.26149543  -0.00303911  1
  O  O224  1  0.85903916  0.24619880  0.49334334  1
  O  O225  1  0.86161009  0.74192522  -0.00506405  1
  O  O226  1  0.87328273  0.74586312  0.50509865  1
  O  O227  1  0.13605509  0.24334534  0.50833021  1
  O  O228  1  0.13911671  0.26104345  0.98507868  1
  O  O229  1  0.12639881  0.73687730  0.50898750  1
  O  O230  1  0.13791047  0.73753225  0.99093387  1
  O  O231  1  0.63076536  0.24131676  0.49159136  1
  O  O232  1  0.63284930  0.25241166  0.99343208  1
  O  O233  1  0.62074414  0.73119630  0.50156608  1
  O  O234  1  0.63463839  0.75084029  0.98626265  1
  O  O235  1  0.48654867  0.24375519  0.11875556  1
  O  O236  1  0.49616633  0.24324321  0.63208932  1
  O  O237  1  0.49356203  0.74142520  0.11041363  1
  O  O238  1  0.49409829  0.74384990  0.63120417  1
  O  O239  1  0.98632641  0.25865269  0.14914555  1
  O  O240  1  1.00192158  0.23834279  0.63532042  1
  O  O241  1  0.99781988  0.73694737  0.13997496  1
  O  O242  1  0.98723080  0.74135162  0.62662846  1
  O  O243  1  0.00650751  0.27224042  0.38878180  1
  O  O244  1  0.00900434  0.24846871  0.85651021  1
  O  O245  1  0.00010977  0.75842104  0.36502085  1
  O  O246  1  0.01230588  0.74771039  0.87433534  1
  O  O247  1  0.51009135  0.25486218  0.37876385  1
  O  O248  1  0.50711340  0.24950698  0.86674973  1
  O  O249  1  0.43214638  0.72886982  0.34081784  1
  O  O250  1  0.50730242  0.75099053  0.87166319  1
  O  O251  1  0.24457643  0.12953054  0.50239445  1
  O  O252  1  0.25561426  0.14415515  0.99627145  1
  O  O253  1  0.24158123  0.62675256  0.49474844  1
  O  O254  1  0.24555712  0.63077303  0.99106266  1
  O  O255  1  0.74019169  0.13105418  0.49650419  1
  O  O256  1  0.74873251  0.13838852  1.00037675  1
  O  O257  1  0.73554311  0.61945637  0.49842945  1
  O  O258  1  0.75301707  0.62715259  0.99086562  1
  O  O259  1  0.25774746  0.36143244  -0.00744741  1
  O  O260  1  0.25109913  0.36803275  0.50846988  1
  O  O261  1  0.25703025  0.86646099  0.00562979  1
  O  O262  1  0.25690511  0.87486851  0.50918485  1
  O  O263  1  0.75687159  0.36597538  0.00740179  1
  O  O264  1  0.75133370  0.36648226  0.50565536  1
  O  O265  1  0.74749534  0.86440211  0.00654863  1
  O  O266  1  0.75285932  0.87954213  0.50428538  1
  O  O267  1  0.14280831  0.50484831  0.24832580  1
  O  O268  1  0.11908614  0.49397907  0.73903705  1
  O  O269  1  0.13230827  0.98463317  0.25855671  1
  O  O270  1  0.12727884  0.98826153  0.75905603  1
  O  O271  1  0.62939489  0.49421954  0.23964187  1
  O  O272  1  0.63183972  0.49740491  0.74018232  1
  O  O273  1  0.63525018  0.99003039  0.24774198  1
  O  O274  1  0.63786098  1.00072261  0.74906662  1
  O  O275  1  0.37889147  0.00052906  0.26741243  1
  O  O276  1  0.37550746  0.00887152  0.75701921  1
  O  O277  1  0.37017456  0.51348623  0.25925082  1
  O  O278  1  0.37956715  0.51485216  0.74584496  1
  O  O279  1  0.85694765  -0.00833937  0.25789964  1
  O  O280  1  0.86374852  0.00728073  0.75479529  1
  O  O281  1  0.86208812  0.50458639  0.25157064  1
  O  O282  1  0.86903559  0.50276731  0.75947921  1
  O  O283  1  0.11171333  0.38715481  0.37947524  1
  O  O284  1  0.12994875  0.36949393  0.85849288  1
  O  O285  1  0.12252817  0.87209286  0.37081981  1
  O  O286  1  0.12441115  0.86637415  0.86904482  1
  O  O287  1  0.61817826  0.36764068  0.36919347  1
  O  O288  1  0.62326358  0.36230227  0.87033489  1
  O  O289  1  0.62025894  0.87277670  0.36180745  1
  O  O290  1  0.61847350  0.86550254  0.87165347  1
  O  O291  1  0.38267441  0.13635408  0.12895961  1
  O  O292  1  0.38216248  0.12928027  0.63080987  1
  O  O293  1  0.39025806  0.63214485  0.12254665  1
  O  O294  1  0.37782802  0.63289348  0.62788996  1
  O  O295  1  0.87462362  0.14424399  0.12924488  1
  O  O296  1  0.88115516  0.12291429  0.63718297  1
  O  O297  1  0.88955778  0.61447796  0.13509205  1
  O  O298  1  0.87976503  0.63051620  0.63175210  1
  O  O299  1  0.26592498  0.25313019  0.10990381  1
  O  O300  1  0.25635203  0.25720972  0.61785078  1
  O  O301  1  0.25523250  0.75480517  0.11182032  1
  O  O302  1  0.25912206  0.76074388  0.62346777  1
  O  O303  1  0.75377061  0.25610823  0.11867220  1
  O  O304  1  0.74160936  0.26055129  0.61503062  1
  O  O305  1  0.74336010  0.75606347  0.11213199  1
  O  O306  1  0.76091856  0.75532230  0.62849749  1
  O  O307  1  0.26657191  0.23422956  0.39319916  1
  O  O308  1  0.24356460  0.24609675  0.87958064  1
  O  O309  1  0.26002364  0.73461223  0.37843865  1
  O  O310  1  0.24195080  0.74295711  0.87895897  1
  O  O311  1  0.73729701  0.24525329  0.38205465  1
  O  O312  1  0.74280020  0.24886215  0.88341044  1
  O  O313  1  0.75922717  0.76469487  0.38532374  1
  O  O314  1  0.74443618  0.74167890  0.87948798  1
  O  O315  1  0.01079667  0.16185064  0.00612359  1
  O  O316  1  0.00786277  0.11992611  0.50343823  1
  O  O317  1  0.00945151  0.62767449  0.01188164  1
  O  O318  1  0.00706706  0.62084476  0.50851007  1
  O  O319  1  0.49901110  0.11815207  0.00779908  1
  O  O320  1  0.50704668  0.13314228  0.51170181  1
  O  O321  1  0.50144769  0.61295932  0.00521405  1
  O  O322  1  0.50413612  0.61697067  0.50663434  1
  O  O323  1  0.49368934  0.37889573  0.49362052  1
  O  O324  1  0.50054208  0.38942983  0.99684548  1
  O  O325  1  0.48976605  0.87363687  0.51106171  1
  O  O326  1  0.49438602  0.88224123  0.99398696  1
  O  O327  1  0.99992458  0.38582150  0.50061664  1
  O  O328  1  0.99611288  0.37387392  1.01096784  1
  O  O329  1  1.00873979  0.88172272  0.49600695  1
  O  O330  1  1.00126985  0.85935839  1.00722254  1
  O  O331  1  0.48898830  0.49179219  0.37873568  1
  O  O332  1  0.50284286  0.50061458  0.88099455  1
  O  O333  1  0.49251136  1.00648522  0.37728733  1
  O  O334  1  0.49184743  0.99688030  0.87818559  1
  O  O335  1  0.99980704  0.49552795  0.38735909  1
  O  O336  1  0.98809121  0.50377066  0.87419724  1
  O  O337  1  0.99187543  0.97783782  0.38330525  1
  O  O338  1  0.98403581  0.99914387  0.87595393  1
  O  O339  1  0.00580637  0.00360266  0.13860674  1
  O  O340  1  -0.00373220  0.01153896  0.61849341  1
  O  O341  1  0.00213298  0.50070390  0.12498891  1
  O  O342  1  0.00392407  0.51196469  0.62219820  1
  O  O343  1  0.49771295  0.00935953  0.11533870  1
  O  O344  1  0.50325798  0.01343650  0.63413242  1
  O  O345  1  0.50680115  0.50705082  0.11684723  1
  O  O346  1  0.50848692  0.50391701  0.61901568  1
  O  O347  1  0.25692655  0.40256832  0.24874329  1
  O  O348  1  0.24140455  0.36934733  0.73600220  1
  O  O349  1  0.25006258  0.86401722  0.24550283  1
  O  O350  1  0.24253209  0.87697068  0.74236615  1
  O  O351  1  0.73822972  0.38324232  0.24775143  1
  O  O352  1  0.74895375  0.37939272  0.74138137  1
  O  O353  1  0.73810584  0.88142387  0.24045987  1
  O  O354  1  0.74929721  0.88299971  0.74246778  1
  O  O355  1  0.25020727  0.11911772  0.26032875  1
  O  O356  1  0.26258563  0.12531078  0.74719360  1
  O  O357  1  0.26057571  0.62107973  0.26003867  1
  O  O358  1  0.25782424  0.63260866  0.75649174  1
  O  O359  1  0.73859738  0.11503154  0.25927953  1
  O  O360  1  0.75604752  0.11932814  0.74943854  1
  O  O361  1  0.75953650  0.61635670  0.24125837  1
  O  O362  1  0.75595159  0.61729139  0.75966851  1
  O  O363  1  0.37301455  0.11399458  0.37407837  1
  O  O364  1  0.37630824  0.11768544  0.86569479  1
  O  O365  1  0.36532562  0.60650122  0.38132853  1
  O  O366  1  0.36587369  0.62582188  0.86307235  1
  O  O367  1  0.85413361  0.12174091  0.38144228  1
  O  O368  1  0.87224420  0.11515716  0.86230367  1
  O  O369  1  0.88136363  0.61853249  0.35929038  1
  O  O370  1  0.86730341  0.61469949  0.87224097  1
  O  O371  1  0.11382107  0.38151291  0.11748192  1
  O  O372  1  0.13079843  0.38396766  0.63077563  1
  O  O373  1  0.14604547  0.87540424  0.13973851  1
  O  O374  1  0.13401398  0.86897776  0.63725753  1
  O  O375  1  0.62792345  0.37964983  0.13318669  1
  O  O376  1  0.63256472  0.38693112  0.62210444  1
  O  O377  1  0.63644910  0.87912723  0.12765507  1
  O  O378  1  0.63966129  0.87456644  0.62657312  1
  O  O379  1  0.16284905  0.27532779  0.26421680  1
  O  O380  1  0.11880750  0.25823064  0.75296820  1
  O  O381  1  0.12125184  0.75736909  0.24805287  1
  O  O382  1  0.12264330  0.75903464  0.75975955  1
  O  O383  1  0.62892162  0.26080778  0.25920233  1
  O  O384  1  0.61729347  0.24884038  0.75642223  1
  O  O385  1  0.62741900  0.76249241  0.24813389  1
  O  O386  1  0.61931216  0.74917808  0.75947482  1
  O  O387  1  0.36371984  0.25039390  0.23500192  1
  O  O388  1  0.38139703  0.24353673  0.74471291  1
  O  O389  1  0.35862871  0.74302204  0.22163714  1
  O  O390  1  0.38016251  0.74326447  0.73975371  1
  O  O391  1  0.86144496  0.25237861  0.24804747  1
  O  O392  1  0.88256625  0.24191124  0.75514234  1
  O  O393  1  0.88711674  0.73791051  0.24982919  1
  O  O394  1  0.87473789  0.74312538  0.74397637  1
  O  O395  1  0.37871426  0.49135614  0.49377634  1
  O  O396  1  0.38631051  0.49955603  0.99258281  1
  O  O397  1  0.37949478  0.99317016  0.49230244  1
  O  O398  1  0.38461581  0.99689161  0.99143151  1
  O  O399  1  0.88857432  0.50447615  0.50193487  1
  O  O400  1  0.87034682  0.48436642  0.99491018  1
  O  O401  1  0.88930450  1.00649818  0.49727713  1
  O  O402  1  0.86812830  1.00816470  0.98606547  1
  O  O403  1  0.12826513  -0.00218716  0.00962437  1
  O  O404  1  0.11496730  0.01000283  0.49631813  1
  O  O405  1  0.12113146  0.50063088  -0.00086125  1
  O  O406  1  0.11531464  0.51040140  0.51478292  1
  O  O407  1  0.61138683  0.00108377  -0.00282167  1
  O  O408  1  0.62636566  0.01506590  0.50231336  1
  O  O409  1  0.62256533  0.49433393  0.01302280  1
  O  O410  1  0.61858532  0.50578539  0.50554519  1
  O  O411  1  0.38448585  0.36457731  0.12365832  1
  O  O412  1  0.36657768  0.37217832  0.62058430  1
  O  O413  1  0.37054287  0.86809442  0.11748340  1
  O  O414  1  0.36890318  0.87016985  0.62158203  1
  O  O415  1  0.86801889  0.36501230  0.12113986  1
  O  O416  1  0.86207138  0.38049074  0.61983226  1
  O  O417  1  0.85848660  0.86813505  0.13394453  1
  O  O418  1  0.86495593  0.86713767  0.62879963  1
  O  O419  1  0.14226031  0.13249096  0.39210011  1
  O  O420  1  0.12860728  0.13715046  0.86393464  1
  O  O421  1  0.13363578  0.61957318  0.38769175  1
  O  O422  1  0.13027281  0.63020611  0.88153458  1
  O  O423  1  0.62823270  0.13196477  0.38079412  1
  O  O424  1  0.62683676  0.13748512  0.87842617  1
  O  O425  1  0.61966611  0.62019015  0.38558019  1
  O  O426  1  0.63636317  0.63207432  0.87010781  1
