# generated using pymatgen
data_V85Zn86O256
_symmetry_space_group_name_H-M   'P 1'
_cell_length_a   16.94129001
_cell_length_b   16.95321604
_cell_length_c   16.94989483
_cell_angle_alpha   90.10162759
_cell_angle_beta   89.99120544
_cell_angle_gamma   90.05825630
_symmetry_Int_Tables_number   1
_chemical_formula_structural   V85Zn86O256
_chemical_formula_sum   'V85 Zn86 O256'
_cell_volume   4868.15803666
_cell_formula_units_Z   1
loop_
 _symmetry_equiv_pos_site_id
 _symmetry_equiv_pos_as_xyz
  1  'x, y, z'
loop_
 _atom_site_type_symbol
 _atom_site_label
 _atom_site_symmetry_multiplicity
 _atom_site_fract_x
 _atom_site_fract_y
 _atom_site_fract_z
 _atom_site_occupancy
  V  V0  1  0.50265924  0.25354877  0.74774560  1
  V  V1  1  0.25406221  0.62758517  0.87360384  1
  V  V2  1  0.62595044  0.62469787  0.00263066  1
  V  V3  1  -0.00632485  0.49607714  -0.00248860  1
  V  V4  1  0.62426692  0.87217645  0.74905783  1
  V  V5  1  0.50678851  0.00145132  0.00067484  1
  V  V6  1  0.12953674  -0.00076352  0.62400729  1
  V  V7  1  0.25470546  0.75356416  0.49732257  1
  V  V8  1  0.37463041  0.62645781  0.24960231  1
  V  V9  1  0.37275545  0.36639349  0.49576442  1
  V  V10  1  0.75515159  0.38330507  0.61795224  1
  V  V11  1  0.74917935  0.61742477  0.86965346  1
  V  V12  1  0.11935040  0.75191742  0.37032912  1
  V  V13  1  0.74761967  0.50002806  0.25165209  1
  V  V14  1  0.75799185  0.00109130  0.26264927  1
  V  V15  1  0.37086356  0.75815817  0.12550414  1
  V  V16  1  0.62173826  0.23541811  0.38909729  1
  V  V17  1  0.24935110  0.12291134  0.87576107  1
  V  V18  1  0.50105624  0.49504737  0.49741351  1
  V  V19  1  0.49947844  0.62748220  0.12600677  1
  V  V20  1  0.25463408  0.13400646  0.37802977  1
  V  V21  1  0.62467042  -0.00262667  0.62800429  1
  V  V22  1  0.24911116  0.24789279  -0.00165950  1
  V  V23  1  0.49785391  0.50209577  -0.00176229  1
  V  V24  1  0.11117176  0.36736160  0.24863344  1
  V  V25  1  0.87375755  0.48975528  0.87291122  1
  V  V26  1  0.86614974  0.36077888  0.00276137  1
  V  V27  1  0.61081686  0.36586715  0.25984913  1
  V  V28  1  0.13640574  0.13427127  0.50008837  1
  V  V29  1  0.25171955  0.37100686  0.62289139  1
  V  V30  1  0.00255450  0.88309298  0.37366154  1
  V  V31  1  0.25131185  -0.00073048  0.24281967  1
  V  V32  1  0.24953304  0.62634451  0.37353637  1
  V  V33  1  0.25267855  -0.00011812  0.75127573  1
  V  V34  1  0.24798128  0.76308581  0.00275745  1
  V  V35  1  0.37848560  0.12672619  0.75235873  1
  V  V36  1  0.62766615  0.50058762  0.63071078  1
  V  V37  1  0.37953510  0.12697945  0.25088552  1
  V  V38  1  0.75362895  0.13203159  0.86000902  1
  V  V39  1  0.37952264  0.25156362  0.12921998  1
  V  V40  1  0.49687145  0.62265985  0.62570171  1
  V  V41  1  0.11905265  0.62555327  0.49848803  1
  V  V42  1  0.25665590  0.87468833  0.62119387  1
  V  V43  1  0.11521408  0.37480142  0.75715401  1
  V  V44  1  0.37477305  -0.00519191  0.37854337  1
  V  V45  1  0.76010433  0.74555146  0.00737288  1
  V  V46  1  0.75077697  0.86970381  0.62516114  1
  V  V47  1  0.50152362  0.12439036  0.62355443  1
  V  V48  1  0.24814897  0.37530141  0.12568368  1
  V  V49  1  0.63232162  0.13539446  -0.00092030  1
  V  V50  1  0.00099534  0.47969993  0.49130879  1
  V  V51  1  0.00201127  0.00516420  0.49963459  1
  V  V52  1  0.12325313  0.62447388  0.00073015  1
  V  V53  1  0.49993619  0.37498074  0.87455707  1
  V  V54  1  0.74853557  0.36033334  0.12636992  1
  V  V55  1  0.37880890  0.49576990  0.37464807  1
  V  V56  1  0.87305884  0.63055745  0.26403456  1
  V  V57  1  0.37328574  0.50171646  0.86957109  1
  V  V58  1  0.12052640  0.11775712  0.00186025  1
  V  V59  1  0.62962864  0.87608207  0.24480684  1
  V  V60  1  0.50246604  0.12802407  0.12931299  1
  V  V61  1  0.50039228  0.87106857  0.37613459  1
  V  V62  1  0.12053703  0.75264424  0.87706728  1
  V  V63  1  0.86338277  0.25218317  0.62044079  1
  V  V64  1  0.12929647  0.87451666  0.24547571  1
  V  V65  1  0.50162762  0.87510404  0.87671798  1
  V  V66  1  0.79443899  0.90916996  0.09238385  1
  V  V67  1  0.25083162  0.50318299  0.74688618  1
  V  V68  1  0.01039238  0.14127713  0.63156879  1
  V  V69  1  0.49541678  0.74614214  0.74843084  1
  V  V70  1  0.87276201  0.61704037  0.74684797  1
  V  V71  1  0.62417948  0.74768537  0.87517120  1
  V  V72  1  0.12195575  0.87315165  0.75039533  1
  V  V73  1  -0.00814054  0.14017682  0.12534116  1
  V  V74  1  0.12241607  0.49952674  0.12466093  1
  V  V75  1  0.49884158  -0.00231252  0.50001992  1
  V  V76  1  -0.00522765  0.62812989  0.13235863  1
  V  V77  1  0.87307264  0.47878099  0.37588581  1
  V  V78  1  0.87303829  0.14056917  0.25815317  1
  V  V79  1  0.75069340  0.74216008  0.49085027  1
  V  V80  1  0.24840163  0.49980707  0.24845471  1
  V  V81  1  0.11569531  -0.00072615  0.12908872  1
  V  V82  1  0.87563489  0.87855056  0.49643034  1
  V  V83  1  0.37240070  0.74385197  0.62848261  1
  V  V84  1  -0.00018939  0.74662319  0.74892198  1
  Zn  Zn85  1  0.50335983  0.75044868  0.25077121  1
  Zn  Zn86  1  0.63022118  0.61937352  0.49288921  1
  Zn  Zn87  1  0.87690060  0.74594106  0.62239520  1
  Zn  Zn88  1  0.10813210  0.24360599  0.86094647  1
  Zn  Zn89  1  -0.00166632  0.62071973  0.62110990  1
  Zn  Zn90  1  0.79347727  -0.02966795  0.78384139  1
  Zn  Zn91  1  0.63339392  0.38016800  0.75236300  1
  Zn  Zn92  1  0.63139382  0.74351843  0.36861387  1
  Zn  Zn93  1  0.37767347  -0.00071278  0.87790472  1
  Zn  Zn94  1  0.63197341  0.25928404  0.87919493  1
  Zn  Zn95  1  0.62438043  0.49753614  0.12938250  1
  Zn  Zn96  1  0.62796099  0.00223419  0.12744233  1
  Zn  Zn97  1  0.87654102  0.75015969  0.13378441  1
  Zn  Zn98  1  0.37534311  0.24876367  0.61907816  1
  Zn  Zn99  1  -0.07854713  -0.06574096  -0.06466032  1
  Zn  Zn100  1  0.37328613  0.88034909  0.00417452  1
  Zn  Zn101  1  0.81667426  0.06703751  0.43245463  1
  Zn  Zn102  1  0.65565768  0.12514210  0.50609398  1
  Zn  Zn103  1  0.12328335  0.26426223  0.37989254  1
  Zn  Zn104  1  0.37377247  0.37569528  -0.00065818  1
  Zn  Zn105  1  0.89036040  0.12995883  0.75506778  1
  Zn  Zn106  1  0.12275784  0.50006612  0.62388603  1
  Zn  Zn107  1  0.18889183  0.18596028  0.18707256  1
  Zn  Zn108  1  0.19073546  0.19274953  0.68824910  1
  Zn  Zn109  1  0.18610831  0.68888467  0.18608043  1
  Zn  Zn110  1  0.18629935  0.68364604  0.68595497  1
  Zn  Zn111  1  0.68709525  0.18693581  0.19571042  1
  Zn  Zn112  1  0.68518966  0.19322465  0.68369965  1
  Zn  Zn113  1  0.69178351  0.68639339  0.19042954  1
  Zn  Zn114  1  0.68683712  0.68522638  0.68356479  1
  Zn  Zn115  1  0.31349159  0.31249137  0.30999545  1
  Zn  Zn116  1  0.31073302  0.31308921  0.81133181  1
  Zn  Zn117  1  0.31236517  0.81447878  0.31069149  1
  Zn  Zn118  1  0.31288811  0.81355646  0.81306129  1
  Zn  Zn119  1  0.80050468  0.30988026  0.31525584  1
  Zn  Zn120  1  0.81406258  0.30960279  0.80108253  1
  Zn  Zn121  1  0.81536376  0.81979931  0.31209341  1
  Zn  Zn122  1  0.81284336  0.80045932  0.81527169  1
  Zn  Zn123  1  0.18997053  0.43815913  0.43478406  1
  Zn  Zn124  1  0.18559785  0.43727832  0.93779475  1
  Zn  Zn125  1  0.18979353  0.94231999  0.43555295  1
  Zn  Zn126  1  0.08435630  0.93658056  0.94033952  1
  Zn  Zn127  1  0.68703298  0.43226866  0.43716088  1
  Zn  Zn128  1  0.68757002  0.43848001  0.94060530  1
  Zn  Zn129  1  0.68236658  0.93246642  0.43986823  1
  Zn  Zn130  1  0.73841051  0.93972847  0.93490125  1
  Zn  Zn131  1  0.31472213  0.06017019  0.06228189  1
  Zn  Zn132  1  0.31826178  0.06158365  0.56191100  1
  Zn  Zn133  1  0.31208613  0.56646798  0.05877802  1
  Zn  Zn134  1  0.31151814  0.56178103  0.55968580  1
  Zn  Zn135  1  0.80985221  0.07869997  0.06444084  1
  Zn  Zn136  1  0.82280200  0.05380204  0.60472541  1
  Zn  Zn137  1  0.81185209  0.55867954  0.06744484  1
  Zn  Zn138  1  0.81738563  0.55811027  0.55754981  1
  Zn  Zn139  1  0.43589148  0.44013652  0.18532091  1
  Zn  Zn140  1  0.43612959  0.43768507  0.68650111  1
  Zn  Zn141  1  0.44227442  0.93954861  0.18987473  1
  Zn  Zn142  1  0.43624611  0.93515504  0.68830159  1
  Zn  Zn143  1  0.93240990  0.43696999  0.18412187  1
  Zn  Zn144  1  0.93665014  0.43740494  0.68193002  1
  Zn  Zn145  1  0.94370129  0.94759498  0.19777573  1
  Zn  Zn146  1  0.94327193  0.93716948  0.68344221  1
  Zn  Zn147  1  0.04446508  0.10194229  0.33131274  1
  Zn  Zn148  1  0.06095810  0.05724628  0.81419206  1
  Zn  Zn149  1  0.05863030  0.55850716  0.31270999  1
  Zn  Zn150  1  0.06108393  0.56053466  0.81300955  1
  Zn  Zn151  1  0.56681133  0.06299888  0.31434718  1
  Zn  Zn152  1  0.57168559  0.06171176  0.81600894  1
  Zn  Zn153  1  0.56493216  0.56238857  0.31366480  1
  Zn  Zn154  1  0.56006592  0.56382027  0.80948791  1
  Zn  Zn155  1  0.44853606  0.18694272  0.43318216  1
  Zn  Zn156  1  0.43889575  0.18952430  0.93998945  1
  Zn  Zn157  1  0.43898270  0.68453344  0.43948232  1
  Zn  Zn158  1  0.43427196  0.68969467  0.93896912  1
  Zn  Zn159  1  0.94564918  0.20502308  0.44086222  1
  Zn  Zn160  1  0.93503437  0.17560401  0.93706240  1
  Zn  Zn161  1  0.93721484  0.69136594  0.43361464  1
  Zn  Zn162  1  0.93837133  0.68351571  0.93523975  1
  Zn  Zn163  1  0.03841711  0.29123538  0.01785786  1
  Zn  Zn164  1  0.07406446  0.31495909  0.56378056  1
  Zn  Zn165  1  0.05153333  0.81403141  0.06560120  1
  Zn  Zn166  1  0.06424725  0.81148191  0.56278895  1
  Zn  Zn167  1  0.56254729  0.31602692  0.06616931  1
  Zn  Zn168  1  0.56452535  0.31560015  0.56097159  1
  Zn  Zn169  1  0.56589950  0.81230157  0.06274091  1
  Zn  Zn170  1  0.56221490  0.81034206  0.55783480  1
  O  O171  1  0.11672840  0.11859425  0.12333950  1
  O  O172  1  0.12692436  0.12146421  0.62023757  1
  O  O173  1  0.11775849  0.61870415  0.12154316  1
  O  O174  1  0.12342314  0.61958402  0.61275022  1
  O  O175  1  0.61969950  0.12777262  0.11658329  1
  O  O176  1  0.61898590  0.11411669  0.62561291  1
  O  O177  1  0.61674957  0.62447540  0.11923540  1
  O  O178  1  0.61714336  0.61857061  0.61713384  1
  O  O179  1  0.36661036  0.38518774  0.38144158  1
  O  O180  1  0.37987948  0.38388783  0.87745754  1
  O  O181  1  0.38383463  0.88688415  0.36695818  1
  O  O182  1  0.38961220  0.87448153  0.87687580  1
  O  O183  1  0.87737204  0.38040231  0.36862391  1
  O  O184  1  0.86058744  0.38658666  0.88049768  1
  O  O185  1  0.88764575  0.87379472  0.38684308  1
  O  O186  1  0.83445721  0.89743195  0.86870945  1
  O  O187  1  0.26137332  0.00409819  0.36601611  1
  O  O188  1  0.25611875  0.01584447  0.86755082  1
  O  O189  1  0.25932106  0.50847871  0.36970574  1
  O  O190  1  0.25567258  0.50669242  0.87088999  1
  O  O191  1  0.75020966  -0.00403418  0.36726721  1
  O  O192  1  0.72474221  0.02421100  0.86210770  1
  O  O193  1  0.76390032  0.49078868  0.36836919  1
  O  O194  1  0.75466502  0.51156449  0.87828011  1
  O  O195  1  0.24628212  0.49367670  0.12560413  1
  O  O196  1  0.25060245  0.49547702  0.63350439  1
  O  O197  1  0.24414653  1.00708766  0.13773174  1
  O  O198  1  0.25022453  0.99136850  0.63008403  1
  O  O199  1  0.74698442  0.49610046  0.14029100  1
  O  O200  1  0.74427672  0.49245628  0.61970568  1
  O  O201  1  0.74828820  1.00024717  0.13586415  1
  O  O202  1  0.73600289  0.97836344  0.62495943  1
  O  O203  1  0.01281747  0.37887898  0.24282064  1
  O  O204  1  0.01688995  0.38423026  0.74576983  1
  O  O205  1  0.01052969  0.88447101  0.26730424  1
  O  O206  1  0.01380249  0.86651159  0.74356508  1
  O  O207  1  0.51380221  0.38051725  0.24180748  1
  O  O208  1  0.50025848  0.36963070  0.75698415  1
  O  O209  1  0.50889047  0.87529513  0.25975594  1
  O  O210  1  0.50324197  0.86612086  0.75606441  1
  O  O211  1  0.49814725  0.11811327  0.23606800  1
  O  O212  1  0.49495508  0.13120634  0.74720843  1
  O  O213  1  0.49373874  0.62671724  0.24046615  1
  O  O214  1  0.50134411  0.63046184  0.73491866  1
  O  O215  1  0.98166064  0.11730608  0.23573618  1
  O  O216  1  1.01051107  0.12265819  0.73529858  1
  O  O217  1  0.98517278  0.61770532  0.24529539  1
  O  O218  1  0.99348585  0.62922276  0.74590297  1
  O  O219  1  0.36353359  0.25051046  0.00726620  1
  O  O220  1  0.38261679  0.26335551  0.49616438  1
  O  O221  1  0.36571944  0.75121548  0.00835089  1
  O  O222  1  0.36063857  0.74418383  0.50755411  1
  O  O223  1  0.87165524  0.26229887  -0.00385642  1
  O  O224  1  0.89345108  0.25794387  0.52328192  1
  O  O225  1  0.86265319  0.74417044  -0.00178845  1
  O  O226  1  0.86754800  0.75731990  0.50081215  1
  O  O227  1  0.13291924  0.23839273  0.49977552  1
  O  O228  1  0.14197971  0.23350589  1.01065027  1
  O  O229  1  0.13431386  0.74403504  0.49333095  1
  O  O230  1  0.12951265  0.74471948  0.99328134  1
  O  O231  1  0.61874702  0.23980802  0.49557864  1
  O  O232  1  0.61616236  0.23835529  0.99891017  1
  O  O233  1  0.64208185  0.75179358  0.49780775  1
  O  O234  1  0.62908654  0.73736259  0.99679967  1
  O  O235  1  0.48690040  0.24413384  0.11793630  1
  O  O236  1  0.49764715  0.24544184  0.63230945  1
  O  O237  1  0.49287322  0.73953601  0.12334463  1
  O  O238  1  0.49070448  0.74331481  0.62384909  1
  O  O239  1  1.00545838  0.23767295  0.12020435  1
  O  O240  1  1.01474447  0.24122001  0.62831971  1
  O  O241  1  0.99678624  0.73263622  0.12405841  1
  O  O242  1  1.00058295  0.74621945  0.63602060  1
  O  O243  1  0.02527548  0.21159613  0.36711778  1
  O  O244  1  0.01026268  0.25386393  0.91210695  1
  O  O245  1  0.01404560  0.76366418  0.38217972  1
  O  O246  1  0.00915148  0.74106915  0.86150277  1
  O  O247  1  0.51971354  0.24808633  0.37107514  1
  O  O248  1  0.49691233  0.26481801  0.87040838  1
  O  O249  1  0.49472464  0.76324462  0.37643924  1
  O  O250  1  0.50401848  0.75325268  0.87075497  1
  O  O251  1  0.24923103  0.12044109  0.49236824  1
  O  O252  1  0.24805072  0.12871555  0.99316837  1
  O  O253  1  0.23851461  0.62990378  0.49271068  1
  O  O254  1  0.24101110  0.63040408  0.99083337  1
  O  O255  1  0.76566544  0.10848972  0.52144296  1
  O  O256  1  0.73514193  0.12584014  0.99082464  1
  O  O257  1  0.75365211  0.63968086  0.50306541  1
  O  O258  1  0.74243927  0.62750090  0.99627543  1
  O  O259  1  0.24785414  0.36726771  0.00976955  1
  O  O260  1  0.25885346  0.38365670  0.51017495  1
  O  O261  1  0.25297649  0.86178789  -0.00431169  1
  O  O262  1  0.24376079  0.86551104  0.50847200  1
  O  O263  1  0.75165648  0.38111672  0.01672226  1
  O  O264  1  0.74256240  0.37338940  0.51778671  1
  O  O265  1  0.73431328  0.85913553  0.01537477  1
  O  O266  1  0.75899752  0.86870258  0.50428137  1
  O  O267  1  0.13115853  0.49535015  0.24404114  1
  O  O268  1  0.13305918  0.49287196  0.74944191  1
  O  O269  1  0.13474807  0.99375151  0.24335073  1
  O  O270  1  0.13343289  0.99020472  0.74493685  1
  O  O271  1  0.63290027  0.49200254  0.25117818  1
  O  O272  1  0.62100996  0.50212555  0.73465246  1
  O  O273  1  0.63916959  0.99655115  0.25040012  1
  O  O274  1  0.61243932  0.98885075  0.73553479  1
  O  O275  1  0.37027885  0.00663451  0.25492591  1
  O  O276  1  0.37085158  0.00823584  0.75246313  1
  O  O277  1  0.36926228  0.50546017  0.25567869  1
  O  O278  1  0.36827140  0.49886246  0.76172640  1
  O  O279  1  0.86173927  0.00671755  0.25225027  1
  O  O280  1  0.86844082  0.01706434  0.71484247  1
  O  O281  1  0.86975511  0.50325459  0.26229446  1
  O  O282  1  0.88134554  0.50913358  0.75701078  1
  O  O283  1  0.13444114  0.37748256  0.35412284  1
  O  O284  1  0.13074059  0.37439693  0.86042178  1
  O  O285  1  0.12200937  0.87084514  0.36924274  1
  O  O286  1  0.13318431  0.85920096  0.86427093  1
  O  O287  1  0.62050518  0.37512596  0.36241558  1
  O  O288  1  0.61618449  0.37761746  0.87228238  1
  O  O289  1  0.61710475  0.87208177  0.36475767  1
  O  O290  1  0.61489031  0.86611809  0.86843695  1
  O  O291  1  0.38259637  0.13238540  0.12953558  1
  O  O292  1  0.38073528  0.12635552  0.63714084  1
  O  O293  1  0.38094871  0.63300673  0.12834392  1
  O  O294  1  0.38085151  0.63309390  0.62136534  1
  O  O295  1  0.88539718  0.12856163  0.13087453  1
  O  O296  1  0.89862542  0.14169021  0.62471524  1
  O  O297  1  0.88090815  0.62236415  0.13817697  1
  O  O298  1  0.87640877  0.62451882  0.63292401  1
  O  O299  1  0.25961948  0.25621133  0.12017237  1
  O  O300  1  0.25738743  0.26631544  0.62941400  1
  O  O301  1  0.25882262  0.74376775  0.11490302  1
  O  O302  1  0.25477368  0.75320872  0.61914503  1
  O  O303  1  0.74576418  0.26185412  0.12755437  1
  O  O304  1  0.75907668  0.25524779  0.61950430  1
  O  O305  1  0.75733422  0.74625000  0.11720587  1
  O  O306  1  0.75089359  0.75750747  0.61475629  1
  O  O307  1  0.24688174  0.23650555  0.36917034  1
  O  O308  1  0.24988038  0.24046961  0.88271249  1
  O  O309  1  0.24382392  0.74747632  0.38149547  1
  O  O310  1  0.24522230  0.74263359  0.87973143  1
  O  O311  1  0.72226855  0.25567281  0.37335107  1
  O  O312  1  0.74724995  0.23823543  0.87028335  1
  O  O313  1  0.75240982  0.75752287  0.38844205  1
  O  O314  1  0.74185365  0.73602024  0.88426053  1
  O  O315  1  0.00727216  0.12009971  0.01592749  1
  O  O316  1  0.01429710  0.11967747  0.51373261  1
  O  O317  1  0.00378595  0.61602405  0.00720923  1
  O  O318  1  0.01138614  0.62707730  0.49694800  1
  O  O319  1  0.50571322  0.12083136  0.00808198  1
  O  O320  1  0.49426668  0.10986766  0.50878525  1
  O  O321  1  0.50586213  0.62239144  0.00451529  1
  O  O322  1  0.49667617  0.61318705  0.51091758  1
  O  O323  1  0.48987499  0.38903155  0.50594771  1
  O  O324  1  0.49837480  0.38397744  0.99253165  1
  O  O325  1  0.50450562  0.88604772  0.49089431  1
  O  O326  1  0.50303305  0.88295157  0.99312568  1
  O  O327  1  1.01328235  0.38172230  0.49227977  1
  O  O328  1  0.98253454  0.39159921  1.01412538  1
  O  O329  1  0.99738604  0.88274815  0.49553182  1
  O  O330  1  1.00286052  0.87087201  0.98645918  1
  O  O331  1  0.48637365  0.50457839  0.38227888  1
  O  O332  1  0.49218909  0.49400953  0.87540219  1
  O  O333  1  0.49567469  0.99324239  0.38086182  1
  O  O334  1  0.50231378  0.99166523  0.88189698  1
  O  O335  1  0.98979707  0.49874300  0.38416500  1
  O  O336  1  0.98764257  0.50596624  0.88584008  1
  O  O337  1  1.00982310  0.99870187  0.39144651  1
  O  O338  1  1.00389286  0.99875118  0.88647101  1
  O  O339  1  0.01267306  0.00720756  0.12752350  1
  O  O340  1  0.01298675  0.00488957  0.61540352  1
  O  O341  1  0.00237086  0.50999552  0.11941212  1
  O  O342  1  -0.00093265  0.49973698  0.60339616  1
  O  O343  1  0.50218239  0.00995612  0.11784922  1
  O  O344  1  0.50269881  -0.00008588  0.61719797  1
  O  O345  1  0.49802470  0.51329846  0.11769593  1
  O  O346  1  0.50456887  0.50618182  0.61955681  1
  O  O347  1  0.25172534  0.38172860  0.23671083  1
  O  O348  1  0.24844164  0.38754793  0.74394675  1
  O  O349  1  0.24079416  0.88558422  0.25480491  1
  O  O350  1  0.24208747  0.87732316  0.74346219  1
  O  O351  1  0.74182675  0.38070905  0.24034150  1
  O  O352  1  0.74520794  0.36822471  0.72925590  1
  O  O353  1  0.74749121  0.88840741  0.24725271  1
  O  O354  1  0.74181825  0.86685387  0.74036201  1
  O  O355  1  0.25714954  0.11768698  0.25755414  1
  O  O356  1  0.25822297  0.12398278  0.75577327  1
  O  O357  1  0.25426231  0.61953167  0.25406730  1
  O  O358  1  0.24378247  0.61260777  0.75825805  1
  O  O359  1  0.76240818  0.11512653  0.24738256  1
  O  O360  1  0.75014366  0.13138917  0.75682276  1
  O  O361  1  0.76335075  0.61452126  0.24978623  1
  O  O362  1  0.75864791  0.63089189  0.75854248  1
  O  O363  1  0.37304615  0.11706047  0.37047768  1
  O  O364  1  0.37229589  0.12630729  0.86511062  1
  O  O365  1  0.36963968  0.61953995  0.36931675  1
  O  O366  1  0.36188170  0.62006817  0.87806036  1
  O  O367  1  0.88111591  0.13058273  0.36346334  1
  O  O368  1  0.85971379  0.12056045  0.87113452  1
  O  O369  1  0.87973108  0.61691207  0.36551659  1
  O  O370  1  0.86628133  0.61644796  0.86777259  1
  O  O371  1  0.13470905  0.38375762  0.13457917  1
  O  O372  1  0.13621352  0.38174705  0.63378547  1
  O  O373  1  0.11786353  0.87996858  0.13868585  1
  O  O374  1  0.13711375  0.87603631  0.63141999  1
  O  O375  1  0.63364935  0.37744675  0.13219385  1
  O  O376  1  0.63085296  0.38481984  0.62714802  1
  O  O377  1  0.61699358  0.88002230  0.14032068  1
  O  O378  1  0.62890422  0.87573485  0.62914731  1
  O  O379  1  0.13018466  0.26659001  0.24426166  1
  O  O380  1  0.13165711  0.26843410  0.75057602  1
  O  O381  1  0.13239594  0.75970959  0.25978974  1
  O  O382  1  0.12034937  0.75305673  0.75516336  1
  O  O383  1  0.62260617  0.26238154  0.25244161  1
  O  O384  1  0.61062437  0.25189324  0.75280078  1
  O  O385  1  0.62519890  0.75942530  0.25056051  1
  O  O386  1  0.61670803  0.75222624  0.75366171  1
  O  O387  1  0.37155702  0.24188420  0.23992443  1
  O  O388  1  0.38515392  0.24384000  0.74955689  1
  O  O389  1  0.37572703  0.74391606  0.24266461  1
  O  O390  1  0.37824784  0.75195999  0.73705342  1
  O  O391  1  0.86733717  0.23860525  0.25119991  1
  O  O392  1  0.88141631  0.24821797  0.72983761  1
  O  O393  1  0.87060839  0.73435052  0.25594335  1
  O  O394  1  0.88408602  0.73845109  0.74992108  1
  O  O395  1  0.37957210  0.49394013  0.49145306  1
  O  O396  1  0.37924843  0.50106262  0.98727802  1
  O  O397  1  0.38236061  0.99826123  0.48852088  1
  O  O398  1  0.38917315  0.99900278  0.99860513  1
  O  O399  1  0.88618627  0.49848451  0.48464783  1
  O  O400  1  0.87778513  0.49878658  0.99121523  1
  O  O401  1  0.88699126  0.99315939  0.50582204  1
  O  O402  1  0.83612190  0.97694680  1.01346423  1
  O  O403  1  0.13667795  0.01180257  0.01343079  1
  O  O404  1  0.12415607  0.00605620  0.50864329  1
  O  O405  1  0.11542058  0.50368980  0.00387424  1
  O  O406  1  0.11353821  0.50749563  0.49306295  1
  O  O407  1  0.61439602  0.01529610  0.00348776  1
  O  O408  1  0.61713620  -0.00067087  0.51156601  1
  O  O409  1  0.61800031  0.51217502  0.00256987  1
  O  O410  1  0.61573873  0.49880830  0.50699814  1
  O  O411  1  0.36850870  0.36893100  0.12145892  1
  O  O412  1  0.36897057  0.37616914  0.61476545  1
  O  O413  1  0.38292266  0.86170595  0.12557272  1
  O  O414  1  0.36274489  0.86596818  0.62760236  1
  O  O415  1  0.85738448  0.37890924  0.11874222  1
  O  O416  1  0.86344701  0.36899312  0.62593629  1
  O  O417  1  0.88018381  0.86949850  0.13654630  1
  O  O418  1  0.86846228  0.87009911  0.61457771  1
  O  O419  1  0.14506031  0.10927095  0.38913408  1
  O  O420  1  0.13341324  0.12615298  0.88399648  1
  O  O421  1  0.12767122  0.63400430  0.37683436  1
  O  O422  1  0.13300603  0.63383615  0.87840180  1
  O  O423  1  0.62595888  0.12897500  0.38618005  1
  O  O424  1  0.62554910  0.13593252  0.88594517  1
  O  O425  1  0.61625660  0.63240227  0.38181154  1
  O  O426  1  0.62960136  0.62657768  0.88118375  1
