# generated using pymatgen
data_V85Zn86O256
_symmetry_space_group_name_H-M   'P 1'
_cell_length_a   16.98956090
_cell_length_b   16.96565222
_cell_length_c   16.96171923
_cell_angle_alpha   90.01375317
_cell_angle_beta   90.02767859
_cell_angle_gamma   89.91551956
_symmetry_Int_Tables_number   1
_chemical_formula_structural   V85Zn86O256
_chemical_formula_sum   'V85 Zn86 O256'
_cell_volume   4889.02265195
_cell_formula_units_Z   1
loop_
 _symmetry_equiv_pos_site_id
 _symmetry_equiv_pos_as_xyz
  1  'x, y, z'
loop_
 _atom_site_type_symbol
 _atom_site_label
 _atom_site_symmetry_multiplicity
 _atom_site_fract_x
 _atom_site_fract_y
 _atom_site_fract_z
 _atom_site_occupancy
  V  V0  1  0.37234709  0.75203859  0.62925685  1
  V  V1  1  0.00306489  0.87189743  0.86880185  1
  V  V2  1  0.13038099  0.38068846  0.75166867  1
  V  V3  1  0.50577863  0.50216064  0.50273892  1
  V  V4  1  0.00024468  0.37156823  0.86663752  1
  V  V5  1  0.11683454  0.62339944  0.49737731  1
  V  V6  1  0.88473187  0.38027108  0.50266709  1
  V  V7  1  0.50058713  0.74930911  0.25026752  1
  V  V8  1  0.87060177  0.00937018  0.87514554  1
  V  V9  1  0.00793851  0.24829479  0.25385554  1
  V  V10  1  0.62220919  0.00412077  0.11786681  1
  V  V11  1  0.50046944  0.24724520  0.24997303  1
  V  V12  1  0.88196616  0.12083213  0.26055046  1
  V  V13  1  0.87920218  0.50022066  0.37664804  1
  V  V14  1  0.62598572  0.62550617  0.50396098  1
  V  V15  1  0.87868052  0.25115265  0.63425268  1
  V  V16  1  0.12768564  0.76356925  0.37082999  1
  V  V17  1  0.87551363  0.62573488  0.75326672  1
  V  V18  1  0.50050039  0.12288176  0.11551660  1
  V  V19  1  0.49777499  0.62163688  0.12347785  1
  V  V20  1  0.37575336  0.37773197  0.49985146  1
  V  V21  1  0.37146307  0.25803430  0.12919370  1
  V  V22  1  0.50229124  0.25766833  0.75505898  1
  V  V23  1  0.74365139  0.75125552  -0.00137206  1
  V  V24  1  0.34483372  0.06613794  0.80889480  1
  V  V25  1  0.74366418  0.38706362  0.62426247  1
  V  V26  1  0.00561651  0.75947114  0.24790872  1
  V  V27  1  0.49457459  0.49285387  -0.01300141  1
  V  V28  1  0.75109017  0.25568506  0.50114680  1
  V  V29  1  0.50318489  0.13099529  0.62872160  1
  V  V30  1  0.00805577  0.37546567  0.37556609  1
  V  V31  1  0.62479767  0.87594321  0.25062037  1
  V  V32  1  0.74262315  0.01353005  0.75698547  1
  V  V33  1  0.24136750  0.25317362  0.49573903  1
  V  V34  1  0.37474078  0.87869071  0.50102967  1
  V  V35  1  0.62472549  0.12583437  0.49954143  1
  V  V36  1  0.50078744  0.62294018  0.62857275  1
  V  V37  1  0.24401077  0.87627948  0.12392596  1
  V  V38  1  0.62052324  0.62718003  -0.00217066  1
  V  V39  1  0.12829222  0.49042043  0.12460919  1
  V  V40  1  0.74723827  0.23285812  -0.00279638  1
  V  V41  1  0.25200100  0.11997275  0.38693078  1
  V  V42  1  0.87466293  0.87363253  -0.00033532  1
  V  V43  1  0.24645857  0.88531900  0.62942979  1
  V  V44  1  0.49897720  0.75140775  0.76576214  1
  V  V45  1  0.24315808  -0.00372021  0.25707467  1
  V  V46  1  0.24891473  0.61113166  0.87595167  1
  V  V47  1  0.75040658  0.75147022  0.50035250  1
  V  V48  1  0.87632560  0.62549893  0.25146084  1
  V  V49  1  0.49829238  0.00035779  0.50048692  1
  V  V50  1  0.75160819  0.12403672  0.37554236  1
  V  V51  1  0.24869532  0.38173543  0.63616883  1
  V  V52  1  0.75321730  -0.00216697  0.25669504  1
  V  V53  1  0.49432543  0.88034294  0.37470328  1
  V  V54  1  0.62256695  0.49801421  0.12211716  1
  V  V55  1  0.50266082  0.37588179  0.37515852  1
  V  V56  1  0.37614777  0.50208110  0.37451094  1
  V  V57  1  0.00437232  0.00040807  -0.00249874  1
  V  V58  1  0.12539636  0.24042422  0.87123411  1
  V  V59  1  0.62033720  0.87160393  0.76821409  1
  V  V60  1  0.36694848  0.61179061  0.75363913  1
  V  V61  1  0.74340810  0.62758572  0.87593530  1
  V  V62  1  0.75158614  0.49988770  0.24652623  1
  V  V63  1  0.37688512  0.11468463  0.25347346  1
  V  V64  1  0.00015079  0.49728343  -0.00128957  1
  V  V65  1  0.87550011  0.24572481  0.12571252  1
  V  V66  1  0.62434413  0.38584453  0.75863491  1
  V  V67  1  0.74913031  0.37146851  0.11984692  1
  V  V68  1  0.87078707  0.75308721  0.63040286  1
  V  V69  1  0.37441066  0.62424326  0.24927154  1
  V  V70  1  -0.00038558  0.62236346  0.62260784  1
  V  V71  1  0.87288984  0.49863992  0.87542063  1
  V  V72  1  0.37953943  0.25238351  0.62358490  1
  V  V73  1  0.37366634  0.75246886  0.12190731  1
  V  V74  1  0.62103001  -0.00467553  0.62912006  1
  V  V75  1  0.37152414  0.37389982  -0.01791016  1
  V  V76  1  0.00194499  0.62421945  0.12470930  1
  V  V77  1  0.62677852  0.25122765  0.37486098  1
  V  V78  1  0.62619911  0.37379908  0.24842538  1
  V  V79  1  0.38450296  0.89179867  -0.00667210  1
  V  V80  1  0.13116053  0.12230804  0.00464105  1
  V  V81  1  0.62689992  0.23441191  0.87686165  1
  V  V82  1  0.24972652  0.49112862  0.24724347  1
  V  V83  1  0.24580999  0.25291773  0.00864638  1
  V  V84  1  0.24694141  0.62520104  0.37567339  1
  Zn  Zn85  1  0.24911671  0.75002882  0.50081333  1
  Zn  Zn86  1  0.62472167  0.74874583  0.37540602  1
  Zn  Zn87  1  -0.00406826  0.88766037  0.37315038  1
  Zn  Zn88  1  0.13688808  0.87335856  0.74933952  1
  Zn  Zn89  1  0.74819528  0.62474697  0.37395325  1
  Zn  Zn90  1  0.74569024  0.50629966  0.74592578  1
  Zn  Zn91  1  0.12995005  0.74885258  0.87656972  1
  Zn  Zn92  1  0.74871833  0.87418275  0.12502775  1
  Zn  Zn93  1  -0.00772556  0.01707538  0.50757472  1
  Zn  Zn94  1  0.12782759  0.62443783  -0.00138138  1
  Zn  Zn95  1  0.87390107  0.36959576  -0.00367006  1
  Zn  Zn96  1  0.11839797  -0.00492605  0.14169059  1
  Zn  Zn97  1  0.13073156  0.36804113  0.25155987  1
  Zn  Zn98  1  0.00428946  0.74952562  0.75162181  1
  Zn  Zn99  1  0.87463201  0.75035534  0.12370173  1
  Zn  Zn100  1  0.74366081  0.87458357  0.62652748  1
  Zn  Zn101  1  0.12360463  0.50060371  0.62217100  1
  Zn  Zn102  1  0.04157461  0.20374447  0.69326211  1
  Zn  Zn103  1  0.88083012  0.12875767  0.75065400  1
  Zn  Zn104  1  0.24983206  0.75220110  -0.00563113  1
  Zn  Zn105  1  0.86750170  0.89929002  0.47738444  1
  Zn  Zn106  1  0.00193640  0.12270550  0.12773742  1
  Zn  Zn107  1  0.18855646  0.17959334  0.18951250  1
  Zn  Zn108  1  0.20938613  0.18184428  0.68976502  1
  Zn  Zn109  1  0.18668971  0.68448167  0.18742654  1
  Zn  Zn110  1  0.18453189  0.69283006  0.69000004  1
  Zn  Zn111  1  0.68897906  0.18362422  0.18730425  1
  Zn  Zn112  1  0.68865845  0.19447188  0.68661985  1
  Zn  Zn113  1  0.68705166  0.68778955  0.18316642  1
  Zn  Zn114  1  0.68286726  0.68936590  0.68956883  1
  Zn  Zn115  1  0.31602388  0.31053260  0.31445670  1
  Zn  Zn116  1  0.31990852  0.24277337  0.82145692  1
  Zn  Zn117  1  0.31389589  0.81381175  0.31127398  1
  Zn  Zn118  1  0.31260453  0.80925331  0.81645567  1
  Zn  Zn119  1  0.81686581  0.31173664  0.31206265  1
  Zn  Zn120  1  0.80493078  0.31383265  0.81390086  1
  Zn  Zn121  1  0.81135156  0.80663468  0.31210354  1
  Zn  Zn122  1  0.80761362  0.81586080  0.81447288  1
  Zn  Zn123  1  0.18663415  0.43993224  0.44159371  1
  Zn  Zn124  1  0.19002923  0.43372209  0.93870610  1
  Zn  Zn125  1  0.19123301  0.94367667  0.45000087  1
  Zn  Zn126  1  0.16268532  1.00206884  0.87261926  1
  Zn  Zn127  1  0.69080575  0.44180837  0.43667245  1
  Zn  Zn128  1  0.68685311  0.43725442  0.93756279  1
  Zn  Zn129  1  0.68480352  0.93522253  0.43736904  1
  Zn  Zn130  1  0.68820178  0.93965235  0.93830643  1
  Zn  Zn131  1  0.31052019  0.06251483  0.06529110  1
  Zn  Zn132  1  0.32501755  0.05071545  0.59763793  1
  Zn  Zn133  1  0.31270702  0.55689628  0.06003400  1
  Zn  Zn134  1  0.31362008  0.56402677  0.56296172  1
  Zn  Zn135  1  0.81363827  0.05822671  0.06941210  1
  Zn  Zn136  1  0.80547847  0.06808631  0.56671673  1
  Zn  Zn137  1  0.81407743  0.56209863  0.06082714  1
  Zn  Zn138  1  0.81516807  0.56566980  0.56129739  1
  Zn  Zn139  1  0.43888480  0.43733490  0.18611949  1
  Zn  Zn140  1  0.44006952  0.43636360  0.68760170  1
  Zn  Zn141  1  0.43754562  0.93734028  0.18320550  1
  Zn  Zn142  1  0.43768744  0.94881343  0.72122987  1
  Zn  Zn143  1  0.93843503  0.43358693  0.18745658  1
  Zn  Zn144  1  0.93818227  0.43854499  0.68701587  1
  Zn  Zn145  1  0.93525624  0.93793710  0.18539439  1
  Zn  Zn146  1  0.91606305  0.95797957  0.66254470  1
  Zn  Zn147  1  0.07818644  0.05472874  0.36285101  1
  Zn  Zn148  1  0.06809644  0.04122253  0.69745728  1
  Zn  Zn149  1  0.06223408  0.56218031  0.31068223  1
  Zn  Zn150  1  0.06388480  0.56078311  0.81055562  1
  Zn  Zn151  1  0.56269785  0.06057441  0.31144903  1
  Zn  Zn152  1  0.54540957  0.06252095  0.81531601  1
  Zn  Zn153  1  0.56456766  0.56301172  0.31343667  1
  Zn  Zn154  1  0.55934317  0.56511570  0.81337097  1
  Zn  Zn155  1  0.43525185  0.18726617  0.43780519  1
  Zn  Zn156  1  0.44683553  0.19605009  0.94298917  1
  Zn  Zn157  1  0.43710783  0.69233095  0.43787930  1
  Zn  Zn158  1  0.43000634  0.68370695  0.93795414  1
  Zn  Zn159  1  0.94167233  0.19307237  0.44219290  1
  Zn  Zn160  1  0.94208705  0.18592359  0.93798954  1
  Zn  Zn161  1  0.96045804  0.73606480  0.46232485  1
  Zn  Zn162  1  0.93488718  0.68768786  0.93906291  1
  Zn  Zn163  1  0.05882638  0.31296796  0.06295458  1
  Zn  Zn164  1  0.11506437  0.12882514  0.52741339  1
  Zn  Zn165  1  0.06574999  0.81028429  0.05741829  1
  Zn  Zn166  1  0.04392470  0.85803015  0.58250797  1
  Zn  Zn167  1  0.55917720  0.30961415  0.05726066  1
  Zn  Zn168  1  0.56775365  0.31830860  0.56418687  1
  Zn  Zn169  1  0.56082910  0.81359841  0.06168002  1
  Zn  Zn170  1  0.55979077  0.80998494  0.56732959  1
  O  O171  1  0.12196601  0.11466072  0.11909499  1
  O  O172  1  0.12316045  0.13373853  0.64184637  1
  O  O173  1  0.11337808  0.61342201  0.12569046  1
  O  O174  1  0.11702907  0.62749106  0.61728218  1
  O  O175  1  0.61697497  0.11185838  0.13399378  1
  O  O176  1  0.62067148  0.12273874  0.61794954  1
  O  O177  1  0.61791648  0.61692814  0.11854085  1
  O  O178  1  0.61442558  0.62874656  0.61479075  1
  O  O179  1  0.38434146  0.38164441  0.38023111  1
  O  O180  1  0.37052587  0.36029645  0.88653789  1
  O  O181  1  0.38472546  0.86985944  0.38543608  1
  O  O182  1  0.36930049  0.86857965  0.89623167  1
  O  O183  1  0.87783051  0.38332278  0.38087858  1
  O  O184  1  0.88215851  0.37862521  0.87447626  1
  O  O185  1  0.88075210  0.86657859  0.37181346  1
  O  O186  1  0.87671447  0.88015282  0.88633155  1
  O  O187  1  0.25855162  0.01294485  0.37281915  1
  O  O188  1  0.27946276  0.01632929  0.86425343  1
  O  O189  1  0.25739233  0.50587465  0.36985421  1
  O  O190  1  0.24902458  0.51115710  0.87615838  1
  O  O191  1  0.74450279  0.00486272  0.36435265  1
  O  O192  1  0.75727241  -0.00282527  0.86875469  1
  O  O193  1  0.75918606  0.50215271  0.36436641  1
  O  O194  1  0.75751552  0.50819484  0.87685226  1
  O  O195  1  0.24075910  0.50630307  0.13564154  1
  O  O196  1  0.25252335  0.48438076  0.61971939  1
  O  O197  1  0.24713505  0.99008816  0.13595806  1
  O  O198  1  0.23365773  0.98242108  0.61090401  1
  O  O199  1  0.74490008  0.49108850  0.12633711  1
  O  O200  1  0.75305830  0.49107477  0.62530165  1
  O  O201  1  0.73847059  0.99933258  0.13847760  1
  O  O202  1  0.73233031  1.00049671  0.63630974  1
  O  O203  1  0.00059817  0.36625284  0.25809643  1
  O  O204  1  0.00728588  0.37857883  0.76133239  1
  O  O205  1  -0.00171849  0.86196848  0.24529719  1
  O  O206  1  -0.00984440  0.87262938  0.76811058  1
  O  O207  1  0.50759506  0.36905545  0.25497582  1
  O  O208  1  0.51752361  0.37234313  0.74305211  1
  O  O209  1  0.50430426  0.87198448  0.25711544  1
  O  O210  1  0.51010451  0.86515570  0.74594142  1
  O  O211  1  0.49408776  0.13037143  0.24767388  1
  O  O212  1  0.51079539  0.14341117  0.73398097  1
  O  O213  1  0.49514220  0.62806988  0.24468506  1
  O  O214  1  0.49336365  0.63042341  0.74430721  1
  O  O215  1  0.99166370  0.13254895  0.24946030  1
  O  O216  1  0.99276982  0.11659821  0.74296467  1
  O  O217  1  0.99379010  0.62866790  0.24101820  1
  O  O218  1  0.99032665  0.62750827  0.74745994  1
  O  O219  1  0.36837264  0.25882024  0.00972924  1
  O  O220  1  0.37803586  0.26294893  0.50699736  1
  O  O221  1  0.37228936  0.74610999  0.01574974  1
  O  O222  1  0.37709623  0.76090627  0.50916484  1
  O  O223  1  0.86743530  0.24833305  0.00735276  1
  O  O224  1  0.86549908  0.26367187  0.50726221  1
  O  O225  1  0.86655366  0.75710222  0.00300079  1
  O  O226  1  0.85627214  0.73702040  0.51472901  1
  O  O227  1  0.14481809  0.24700075  0.50265535  1
  O  O228  1  0.13031571  0.24511050  1.00143908  1
  O  O229  1  0.13301668  0.73359988  0.48224181  1
  O  O230  1  0.13126339  0.74132009  0.99712729  1
  O  O231  1  0.63147538  0.24771196  0.49426531  1
  O  O232  1  0.63070669  0.25317404  0.98493902  1
  O  O233  1  0.63289440  0.74368643  0.50167419  1
  O  O234  1  0.63118765  0.74061297  1.00643183  1
  O  O235  1  0.49547452  0.24280262  0.13229503  1
  O  O236  1  0.49904574  0.24945703  0.62793470  1
  O  O237  1  0.49296760  0.74216918  0.13161251  1
  O  O238  1  0.48981762  0.73896407  0.63051004  1
  O  O239  1  0.98928248  0.24921804  0.13133664  1
  O  O240  1  0.97686794  0.26856377  0.62574021  1
  O  O241  1  1.00088332  0.73980576  0.12953192  1
  O  O242  1  0.98544494  0.74200784  0.63250966  1
  O  O243  1  -0.00878181  0.26333924  0.36396721  1
  O  O244  1  0.01423632  0.26031826  0.88508703  1
  O  O245  1  0.01554232  0.74462746  0.36054129  1
  O  O246  1  -0.00408953  0.76188060  0.87729740  1
  O  O247  1  0.50696372  0.25611310  0.37044072  1
  O  O248  1  0.51631756  0.25492032  0.86684470  1
  O  O249  1  0.50256473  0.76016003  0.36819479  1
  O  O250  1  0.49725932  0.74051959  0.86450852  1
  O  O251  1  0.25944320  0.13607021  0.49299081  1
  O  O252  1  0.23862570  0.13360156  1.00731528  1
  O  O253  1  0.25054294  0.62545356  0.48613432  1
  O  O254  1  0.25300921  0.62259625  0.98641638  1
  O  O255  1  0.74359814  0.13291757  0.49425026  1
  O  O256  1  0.75002080  0.13455776  1.00978687  1
  O  O257  1  0.73883207  0.62838424  0.49965835  1
  O  O258  1  0.74399228  0.63011509  0.99491546  1
  O  O259  1  0.26238715  0.36894136  0.00400980  1
  O  O260  1  0.25507617  0.36688705  0.50452814  1
  O  O261  1  0.26486795  0.87165539  0.02138715  1
  O  O262  1  0.26011001  0.87011331  0.50576049  1
  O  O263  1  0.75051360  0.36807468  0.01070899  1
  O  O264  1  0.75331990  0.37396940  0.50681396  1
  O  O265  1  0.75427048  0.86671650  0.00060508  1
  O  O266  1  0.75019246  0.86604654  0.50337121  1
  O  O267  1  0.13386180  0.49740754  0.24325921  1
  O  O268  1  0.12340185  0.48507997  0.74582382  1
  O  O269  1  0.14079292  1.00317128  0.25980010  1
  O  O270  1  0.13259540  0.98409268  0.76769176  1
  O  O271  1  0.63103523  0.49392729  0.24316324  1
  O  O272  1  0.62554645  0.48977761  0.75462589  1
  O  O273  1  0.63207547  0.99206346  0.24618913  1
  O  O274  1  0.62266308  0.99217973  0.74883140  1
  O  O275  1  0.37250381  0.01139802  0.24608599  1
  O  O276  1  0.35248875  0.02071227  0.70907803  1
  O  O277  1  0.36909955  0.50454781  0.25373155  1
  O  O278  1  0.38004771  0.51414485  0.74673191  1
  O  O279  1  0.86538210  0.01084096  0.24251133  1
  O  O280  1  0.85800297  -0.00006691  0.75638072  1
  O  O281  1  0.86893734  0.50370295  0.25150025  1
  O  O282  1  0.87161755  0.51093494  0.75667503  1
  O  O283  1  0.11110850  0.38269370  0.37488031  1
  O  O284  1  0.11946162  0.36980524  0.86983008  1
  O  O285  1  0.12620960  0.86457514  0.38094843  1
  O  O286  1  0.10524560  0.87373178  0.88251172  1
  O  O287  1  0.62136180  0.37236860  0.36931234  1
  O  O288  1  0.63236422  0.36924155  0.86089197  1
  O  O289  1  0.61715101  0.87299329  0.36381813  1
  O  O290  1  0.61840183  0.88057772  0.86650526  1
  O  O291  1  0.38282318  0.13314693  0.13393964  1
  O  O292  1  0.38961082  0.14508829  0.61305605  1
  O  O293  1  0.37754721  0.62920479  0.13136187  1
  O  O294  1  0.37995953  0.62972295  0.63533927  1
  O  O295  1  0.87511597  0.13427649  0.13590849  1
  O  O296  1  0.86311491  0.14885110  0.62699671  1
  O  O297  1  0.88664572  0.62109707  0.13254808  1
  O  O298  1  0.87807346  0.63003190  0.63541052  1
  O  O299  1  0.25710898  0.24555087  0.11832442  1
  O  O300  1  0.26377937  0.25985273  0.61425515  1
  O  O301  1  0.25710725  0.75974667  0.13152825  1
  O  O302  1  0.26595431  0.74264418  0.62192199  1
  O  O303  1  0.75394795  0.25442950  0.11986151  1
  O  O304  1  0.75368688  0.26569586  0.61876003  1
  O  O305  1  0.75242453  0.75101691  0.11241534  1
  O  O306  1  0.75110094  0.74893597  0.61909854  1
  O  O307  1  0.26137972  0.24603120  0.39145784  1
  O  O308  1  0.23170975  0.25829862  0.89397237  1
  O  O309  1  0.24421578  0.74135571  0.36997506  1
  O  O310  1  0.25062894  0.73487420  0.87682970  1
  O  O311  1  0.74437214  0.24780732  0.38043273  1
  O  O312  1  0.73781199  0.24933504  0.88311947  1
  O  O313  1  0.74464193  0.74372702  0.38460300  1
  O  O314  1  0.75281360  0.74103077  0.88855122  1
  O  O315  1  0.00943246  0.11644515  0.00353823  1
  O  O316  1  0.00238495  0.13192873  0.50717551  1
  O  O317  1  -0.00154490  0.61287934  0.00622917  1
  O  O318  1  0.00646469  0.63619841  0.50873852  1
  O  O319  1  0.50150637  0.12996280  0.01620910  1
  O  O320  1  0.50646039  0.12177810  0.50599257  1
  O  O321  1  0.49983672  0.61535443  0.00506816  1
  O  O322  1  0.50369212  0.62118346  0.50685401  1
  O  O323  1  0.49849543  0.38584821  0.49704485  1
  O  O324  1  0.48387090  0.37952831  1.00426005  1
  O  O325  1  0.49564788  0.87816660  0.49403052  1
  O  O326  1  0.48345009  0.87282804  1.00735526  1
  O  O327  1  0.98485903  0.37658796  0.48946902  1
  O  O328  1  0.99825761  0.38507024  0.99156163  1
  O  O329  1  0.98337921  0.84669925  0.49017505  1
  O  O330  1  0.99134508  0.87944414  0.99689721  1
  O  O331  1  0.49479752  0.49611958  0.38103821  1
  O  O332  1  0.50155543  0.50073678  0.88807055  1
  O  O333  1  0.50508825  0.98800279  0.38270366  1
  O  O334  1  0.44472683  1.01501401  0.82255913  1
  O  O335  1  0.98589204  0.49182313  0.36461179  1
  O  O336  1  0.99452078  0.49408641  0.88165895  1
  O  O337  1  0.98654835  1.00023468  0.38812328  1
  O  O338  1  0.98574237  0.98515716  0.88886556  1
  O  O339  1  0.00375228  -0.00238501  0.11141428  1
  O  O340  1  0.01981081  -0.03200317  0.61873082  1
  O  O341  1  0.00439414  0.50299698  0.11780689  1
  O  O342  1  -0.00067945  0.51733681  0.62809725  1
  O  O343  1  0.51390880  0.00837179  0.13347870  1
  O  O344  1  0.50850902  0.01309210  0.62514085  1
  O  O345  1  0.50475994  0.50418818  0.11898527  1
  O  O346  1  0.49519711  0.51337145  0.61621002  1
  O  O347  1  0.24973449  0.38680307  0.25869806  1
  O  O348  1  0.24785469  0.36825466  0.73761623  1
  O  O349  1  0.26201410  0.88634460  0.23981542  1
  O  O350  1  0.25941998  0.87025139  0.73244504  1
  O  O351  1  0.74580667  0.37706263  0.23813678  1
  O  O352  1  0.73938778  0.38095279  0.74303746  1
  O  O353  1  0.74127794  0.87981657  0.24837308  1
  O  O354  1  0.73101588  0.88081043  0.75197039  1
  O  O355  1  0.26137415  0.11579792  0.25473029  1
  O  O356  1  0.28173771  0.14659915  0.76309917  1
  O  O357  1  0.25422830  0.61502627  0.25978146  1
  O  O358  1  0.26122440  0.62423700  0.75605836  1
  O  O359  1  0.75621624  0.11710752  0.25684413  1
  O  O360  1  0.74735249  0.11543790  0.74836351  1
  O  O361  1  0.75831394  0.61936614  0.24646500  1
  O  O362  1  0.75209778  0.62491755  0.75958066  1
  O  O363  1  0.36602215  0.13156070  0.36453781  1
  O  O364  1  0.37943346  0.15028741  0.86814079  1
  O  O365  1  0.36969887  0.62219970  0.36899290  1
  O  O366  1  0.36553736  0.62361572  0.86160065  1
  O  O367  1  0.86625132  0.13634618  0.36506257  1
  O  O368  1  0.87876799  0.11222407  0.87561719  1
  O  O369  1  0.87372326  0.61573287  0.35847598  1
  O  O370  1  0.86531760  0.62011963  0.87106726  1
  O  O371  1  0.11925660  0.38726502  0.12866602  1
  O  O372  1  0.14187701  0.37577921  0.63283547  1
  O  O373  1  0.14049426  0.87685131  0.12168191  1
  O  O374  1  0.14831379  0.84997550  0.62450728  1
  O  O375  1  0.63069063  0.37684617  0.12750613  1
  O  O376  1  0.63522618  0.37302371  0.63840513  1
  O  O377  1  0.62275201  0.88461744  0.13651922  1
  O  O378  1  0.62164325  0.88504545  0.63104560  1
  O  O379  1  0.11144285  0.25055008  0.24048817  1
  O  O380  1  0.12689506  0.25920820  0.76207070  1
  O  O381  1  0.11724716  0.74418826  0.25720706  1
  O  O382  1  0.12116986  0.75742299  0.75850159  1
  O  O383  1  0.62185247  0.25489886  0.25486667  1
  O  O384  1  0.62285608  0.25940754  0.75978836  1
  O  O385  1  0.61908073  0.75842548  0.24835340  1
  O  O386  1  0.61584532  0.76366617  0.74935824  1
  O  O387  1  0.38042138  0.24228158  0.24530130  1
  O  O388  1  0.39614059  0.26905741  0.73728680  1
  O  O389  1  0.38112828  0.74401922  0.24147508  1
  O  O390  1  0.38317889  0.74227681  0.74463052  1
  O  O391  1  0.88071088  0.24271241  0.24252732  1
  O  O392  1  0.86588519  0.25302312  0.73905697  1
  O  O393  1  0.88253363  0.73904302  0.24350057  1
  O  O394  1  0.86854840  0.73624133  0.74977663  1
  O  O395  1  0.38634390  0.49775075  0.49456983  1
  O  O396  1  0.38002971  0.48240664  1.00291207  1
  O  O397  1  0.38421233  0.98664327  0.51235345  1
  O  O398  1  0.37700645  0.99137786  1.00806752  1
  O  O399  1  0.86791815  0.49448938  0.48702689  1
  O  O400  1  0.88277160  0.49522047  0.99424375  1
  O  O401  1  0.87983882  0.98881162  0.54473283  1
  O  O402  1  0.87816586  0.99448312  0.99527770  1
  O  O403  1  0.11877223  0.01157704  -0.01743375  1
  O  O404  1  0.12109407  0.02464382  0.47583729  1
  O  O405  1  0.11785842  0.50109692  0.00702553  1
  O  O406  1  0.12915683  0.51723515  0.50279216  1
  O  O407  1  0.63044055  -0.00439495  0.01950634  1
  O  O408  1  0.61885936  0.00386354  0.50970459  1
  O  O409  1  0.61619780  0.50293104  0.00531842  1
  O  O410  1  0.61241599  0.50689634  0.49598067  1
  O  O411  1  0.37761817  0.35966732  0.12941522  1
  O  O412  1  0.36886696  0.37217633  0.61923903  1
  O  O413  1  0.37041083  0.86632268  0.12308016  1
  O  O414  1  0.36580674  0.86673781  0.61930813  1
  O  O415  1  0.86674778  0.36209125  0.12446314  1
  O  O416  1  0.86564002  0.37477335  0.61906973  1
  O  O417  1  0.87018955  0.87537084  0.11149598  1
  O  O418  1  0.86259345  0.85528987  0.64212404  1
  O  O419  1  0.15561837  0.13896776  0.36369681  1
  O  O420  1  0.12426424  0.13984430  0.88482131  1
  O  O421  1  0.13313278  0.62401633  0.37766125  1
  O  O422  1  0.13812279  0.62222798  0.87347779  1
  O  O423  1  0.63058551  0.13074183  0.37994941  1
  O  O424  1  0.61787750  0.13541899  0.87021544  1
  O  O425  1  0.62346060  0.62687682  0.38926722  1
  O  O426  1  0.63650969  0.61999571  0.88111168  1
