# generated using pymatgen
data_V85Zn86O256
_symmetry_space_group_name_H-M   'P 1'
_cell_length_a   16.94486356
_cell_length_b   16.95518454
_cell_length_c   16.96122653
_cell_angle_alpha   90.14932728
_cell_angle_beta   89.91788338
_cell_angle_gamma   89.97668278
_symmetry_Int_Tables_number   1
_chemical_formula_structural   V85Zn86O256
_chemical_formula_sum   'V85 Zn86 O256'
_cell_volume   4872.99419576
_cell_formula_units_Z   1
loop_
 _symmetry_equiv_pos_site_id
 _symmetry_equiv_pos_as_xyz
  1  'x, y, z'
loop_
 _atom_site_type_symbol
 _atom_site_label
 _atom_site_symmetry_multiplicity
 _atom_site_fract_x
 _atom_site_fract_y
 _atom_site_fract_z
 _atom_site_occupancy
  V  V0  1  0.25522590  0.87487053  0.12677236  1
  V  V1  1  0.12543334  0.37397117  0.24857794  1
  V  V2  1  0.28779539  -0.03100797  0.79744707  1
  V  V3  1  0.25975414  0.49796807  0.74425868  1
  V  V4  1  0.50342377  -0.00449560  0.51378757  1
  V  V5  1  0.87396883  0.74834071  0.62415702  1
  V  V6  1  0.25107709  0.75048013  0.50118531  1
  V  V7  1  0.25353276  0.88292695  0.62268898  1
  V  V8  1  0.87555363  0.37252527  -0.00755556  1
  V  V9  1  0.49928370  0.24910085  0.73532072  1
  V  V10  1  0.74703655  0.88524035  0.62400415  1
  V  V11  1  0.24606027  0.26265114  0.00406765  1
  V  V12  1  0.74993789  0.24584814  0.49727745  1
  V  V13  1  0.10660085  0.11888303  0.50554610  1
  V  V14  1  0.00049033  0.87216387  0.87795653  1
  V  V15  1  0.61990792  0.24553799  0.87299422  1
  V  V16  1  0.24949345  0.12104012  0.38932060  1
  V  V17  1  0.13046731  0.12499761  -0.00075734  1
  V  V18  1  0.75088842  0.37283018  0.62306038  1
  V  V19  1  0.63556790  0.74852306  0.87214803  1
  V  V20  1  0.37235746  0.12827061  0.74478715  1
  V  V21  1  0.62377740  0.01771671  0.12608188  1
  V  V22  1  0.49966610  0.49903575  0.50089483  1
  V  V23  1  0.00163386  0.00053954  -0.00078075  1
  V  V24  1  0.87807649  0.49668874  0.87299540  1
  V  V25  1  0.11446132  -0.00047931  0.62577166  1
  V  V26  1  0.62760822  0.88756853  0.74819093  1
  V  V27  1  0.38310455  0.75065946  0.12650998  1
  V  V28  1  0.38391177  0.37688226  0.00628683  1
  V  V29  1  0.11706527  0.75417925  0.37674149  1
  V  V30  1  0.00062000  0.49474882  -0.00185483  1
  V  V31  1  0.24886428  0.62555703  0.37048176  1
  V  V32  1  0.61062678  0.74867382  0.37349628  1
  V  V33  1  0.25137355  -0.00039456  0.25138280  1
  V  V34  1  0.26095055  0.62458096  0.87336264  1
  V  V35  1  0.87312873  0.62340315  0.75041949  1
  V  V36  1  0.74618638  0.50107019  0.25050710  1
  V  V37  1  0.36210173  0.25984218  0.13671384  1
  V  V38  1  0.87044748  0.50240209  0.37657886  1
  V  V39  1  0.49675245  0.24978221  0.25086537  1
  V  V40  1  0.88675541  0.87977839  0.49702926  1
  V  V41  1  0.37473945  0.74582416  0.62932438  1
  V  V42  1  0.50470107  0.75307392  0.75238625  1
  V  V43  1  0.88929300  -0.00460116  0.37048173  1
  V  V44  1  0.86729606  0.87411794  0.00165092  1
  V  V45  1  0.11712391  0.87598334  0.25534140  1
  V  V46  1  0.87473200  0.37224372  0.49886356  1
  V  V47  1  0.12767767  0.48854661  0.62545746  1
  V  V48  1  0.12459402  0.62256491  0.50224764  1
  V  V49  1  0.38140370  0.50153089  0.87995496  1
  V  V50  1  0.74438932  0.10944683  0.37118656  1
  V  V51  1  0.50152313  0.37914152  0.37448347  1
  V  V52  1  0.12805273  0.49706726  0.12556600  1
  V  V53  1  0.25129160  0.75131453  0.00334606  1
  V  V54  1  0.87006419  0.75178968  0.12648842  1
  V  V55  1  0.25219255  0.49583398  0.24542939  1
  V  V56  1  0.37437687  0.12801113  0.25061429  1
  V  V57  1  0.12656784  -0.00092494  0.12455742  1
  V  V58  1  0.35439196  0.25512731  0.61814838  1
  V  V59  1  0.87045024  -0.00102886  0.87142896  1
  V  V60  1  0.12704049  0.24828864  0.38337058  1
  V  V61  1  0.56435638  0.57048137  0.05522512  1
  V  V62  1  0.24482285  0.13681534  0.86734289  1
  V  V63  1  0.00078751  0.26294280  0.74853007  1
  V  V64  1  0.00020732  0.74770576  0.75221632  1
  V  V65  1  0.86860359  0.62720967  0.25442569  1
  V  V66  1  0.62526481  0.37538886  0.75094142  1
  V  V67  1  0.75230208  0.74332450  0.49044393  1
  V  V68  1  0.74761197  0.12182914  0.86416225  1
  V  V69  1  0.87371248  0.24818696  0.12432982  1
  V  V70  1  -0.00308373  0.37199031  0.37460146  1
  V  V71  1  0.61892941  0.12154622  0.51240845  1
  V  V72  1  0.74693205  0.37719502  0.12272025  1
  V  V73  1  0.12281819  0.74750611  0.87716779  1
  V  V74  1  0.62615057  0.49999730  0.62599631  1
  V  V75  1  0.49975717  0.62442199  0.63095706  1
  V  V76  1  -0.00077372  0.12494685  0.12354411  1
  V  V77  1  0.88783853  0.11881295  0.74180587  1
  V  V78  1  0.74583249  0.24226739  -0.00236409  1
  V  V79  1  0.38713868  -0.00684815  0.37445937  1
  V  V80  1  -0.00164692  0.62508548  0.12766945  1
  V  V81  1  0.38526620  0.62484099  0.24663456  1
  V  V82  1  0.12621308  0.87684779  0.75101609  1
  V  V83  1  -0.00221047  0.24712098  0.24943403  1
  V  V84  1  0.62315801  0.37649985  0.24146299  1
  Zn  Zn85  1  0.56696253  0.07430068  -0.04110198  1
  Zn  Zn86  1  0.12390318  0.62337588  -0.00025009  1
  Zn  Zn87  1  0.86642591  0.11649866  0.24458288  1
  Zn  Zn88  1  0.12663142  0.37846500  0.75941748  1
  Zn  Zn89  1  0.62155105  0.88806865  0.25471382  1
  Zn  Zn90  1  0.00354763  0.62249394  0.62579558  1
  Zn  Zn91  1  0.63240822  0.62108498  0.49795250  1
  Zn  Zn92  1  0.11043969  0.26201850  0.88246306  1
  Zn  Zn93  1  0.73265532  0.74007741  0.01319382  1
  Zn  Zn94  1  0.74724056  0.88970393  0.13731123  1
  Zn  Zn95  1  0.35832295  0.37884495  0.50885423  1
  Zn  Zn96  1  -0.00431217  0.75461450  0.25456619  1
  Zn  Zn97  1  0.75062817  0.49811792  0.75110482  1
  Zn  Zn98  1  0.00061461  0.49734990  0.50047054  1
  Zn  Zn99  1  0.50302479  0.37837191  0.87997944  1
  Zn  Zn100  1  0.44265446  0.93772687  -0.06917401  1
  Zn  Zn101  1  0.62413437  0.24669492  0.37363423  1
  Zn  Zn102  1  0.88179566  0.24018787  0.61940013  1
  Zn  Zn103  1  0.49665056  0.76251262  0.25288109  1
  Zn  Zn104  1  0.37482848  0.50196628  0.37613928  1
  Zn  Zn105  1  0.74573097  0.61617418  0.88491236  1
  Zn  Zn106  1  0.38456506  0.86889729  0.49438614  1
  Zn  Zn107  1  0.18767641  0.18541021  0.19052007  1
  Zn  Zn108  1  0.18061386  0.18896680  0.68472020  1
  Zn  Zn109  1  0.18651794  0.68654876  0.18898424  1
  Zn  Zn110  1  0.19043023  0.68347489  0.68959367  1
  Zn  Zn111  1  0.68406369  0.18548644  0.18880618  1
  Zn  Zn112  1  0.69247726  0.18723710  0.68704804  1
  Zn  Zn113  1  0.68284486  0.68773541  0.18890548  1
  Zn  Zn114  1  0.68994043  0.68797502  0.68599546  1
  Zn  Zn115  1  0.30173105  0.32206256  0.34191872  1
  Zn  Zn116  1  0.31247198  0.31786105  0.81337920  1
  Zn  Zn117  1  0.31110627  0.81286146  0.31255138  1
  Zn  Zn118  1  0.31699299  0.80095136  0.81492339  1
  Zn  Zn119  1  0.81022210  0.30854921  0.31275371  1
  Zn  Zn120  1  0.81429593  0.30683538  0.80977269  1
  Zn  Zn121  1  0.80557160  0.81921475  0.31196175  1
  Zn  Zn122  1  0.80992350  0.81558441  0.80831016  1
  Zn  Zn123  1  0.18880193  0.43755557  0.43705591  1
  Zn  Zn124  1  0.18904130  0.43781840  0.93398018  1
  Zn  Zn125  1  0.18723825  0.93879488  0.44018461  1
  Zn  Zn126  1  0.27765152  0.96472407  0.97162459  1
  Zn  Zn127  1  0.68577430  0.43589869  0.43468185  1
  Zn  Zn128  1  0.68593185  0.43753881  0.93901547  1
  Zn  Zn129  1  0.68624626  0.93211628  0.44158343  1
  Zn  Zn130  1  0.68507446  0.93594713  0.93670714  1
  Zn  Zn131  1  0.43047671  0.07358618  0.06802232  1
  Zn  Zn132  1  0.31647926  0.06201986  0.56399870  1
  Zn  Zn133  1  0.31639702  0.56656135  0.06062670  1
  Zn  Zn134  1  0.31414214  0.56425776  0.56276358  1
  Zn  Zn135  1  0.80649246  0.06169071  0.05911966  1
  Zn  Zn136  1  0.81432424  0.06050837  0.55705676  1
  Zn  Zn137  1  0.80633031  0.56221140  0.06449433  1
  Zn  Zn138  1  0.81404211  0.56073563  0.56511084  1
  Zn  Zn139  1  0.44358975  0.44375566  0.17892603  1
  Zn  Zn140  1  0.43665332  0.43356652  0.68807858  1
  Zn  Zn141  1  0.44996560  0.93836427  0.18873636  1
  Zn  Zn142  1  0.44087761  0.93355884  0.68444754  1
  Zn  Zn143  1  0.93511051  0.43619691  0.18628593  1
  Zn  Zn144  1  0.93824889  0.43844740  0.68109250  1
  Zn  Zn145  1  0.93646379  0.93821900  0.18782137  1
  Zn  Zn146  1  0.93519235  0.93373917  0.68888884  1
  Zn  Zn147  1  0.06218615  0.06467657  0.31190974  1
  Zn  Zn148  1  0.06677782  0.06006649  0.81343653  1
  Zn  Zn149  1  0.05866100  0.56244122  0.31324178  1
  Zn  Zn150  1  0.06344777  0.56073687  0.81223452  1
  Zn  Zn151  1  0.56093237  0.06314979  0.31209146  1
  Zn  Zn152  1  0.55423230  0.06005921  0.79188774  1
  Zn  Zn153  1  0.56829880  0.56848906  0.31542026  1
  Zn  Zn154  1  0.56185210  0.56615355  0.81528642  1
  Zn  Zn155  1  0.43815270  0.18679134  0.43855959  1
  Zn  Zn156  1  0.42620439  0.19244123  0.92713375  1
  Zn  Zn157  1  0.43587263  0.68057867  0.44179395  1
  Zn  Zn158  1  0.46644181  0.73138240  0.96305182  1
  Zn  Zn159  1  0.93422527  0.18259937  0.43348487  1
  Zn  Zn160  1  0.93699374  0.18583983  0.93283945  1
  Zn  Zn161  1  0.93774843  0.68568752  0.43841017  1
  Zn  Zn162  1  0.92717391  0.68177728  0.94271454  1
  Zn  Zn163  1  0.06137304  0.31546769  0.06414955  1
  Zn  Zn164  1  0.06113321  0.30748180  0.56495736  1
  Zn  Zn165  1  0.06205986  0.81254704  0.06452492  1
  Zn  Zn166  1  0.06386308  0.81111360  0.56590282  1
  Zn  Zn167  1  0.53895403  0.25392215  0.04781906  1
  Zn  Zn168  1  0.56349838  0.31277534  0.55894648  1
  Zn  Zn169  1  0.55748751  0.85195281  0.05622533  1
  Zn  Zn170  1  0.56688478  0.81113742  0.56173230  1
  O  O171  1  0.12075679  0.12012994  0.11868105  1
  O  O172  1  0.12845896  0.11569299  0.61225817  1
  O  O173  1  0.11399019  0.61680501  0.12649463  1
  O  O174  1  0.12646689  0.61884054  0.61542714  1
  O  O175  1  0.62465437  0.12072356  0.11808622  1
  O  O176  1  0.63248625  0.12495715  0.61065261  1
  O  O177  1  0.63157745  0.62839120  0.10833976  1
  O  O178  1  0.61906349  0.61754661  0.62243797  1
  O  O179  1  0.39683947  0.38463960  0.36422474  1
  O  O180  1  0.37734041  0.38363280  0.88465995  1
  O  O181  1  0.36624428  0.88868493  0.37882757  1
  O  O182  1  0.34259176  0.90198354  0.86366264  1
  O  O183  1  0.87811640  0.37866388  0.38000852  1
  O  O184  1  0.87066748  0.37815123  0.88550867  1
  O  O185  1  0.87276470  0.88468073  0.38592085  1
  O  O186  1  0.87829776  0.88059107  0.88032050  1
  O  O187  1  0.25583684  0.00594343  0.36980752  1
  O  O188  1  0.23581805  0.01935430  0.87533360  1
  O  O189  1  0.24804182  0.51444008  0.36539037  1
  O  O190  1  0.25817796  0.50738162  0.86753160  1
  O  O191  1  0.75373301  0.00792820  0.38202039  1
  O  O192  1  0.76210620  0.00754802  0.88011183  1
  O  O193  1  0.76245785  0.49313483  0.36694972  1
  O  O194  1  0.76418989  0.49773200  0.87227876  1
  O  O195  1  0.23802547  0.50876833  0.13285145  1
  O  O196  1  0.24640490  0.50697672  0.63749442  1
  O  O197  1  0.24175511  0.99067416  0.13694168  1
  O  O198  1  0.24456934  0.98627379  0.61795466  1
  O  O199  1  0.75839582  0.48481100  0.13407220  1
  O  O200  1  0.74517665  0.49054816  0.62708260  1
  O  O201  1  0.73583835  1.00619437  0.12480978  1
  O  O202  1  0.75316440  0.98333309  0.61626669  1
  O  O203  1  0.00324855  0.36771953  0.25481463  1
  O  O204  1  -0.00369752  0.36505372  0.74857368  1
  O  O205  1  0.01318626  0.87479964  0.24736444  1
  O  O206  1  0.00326779  0.86620477  0.75837502  1
  O  O207  1  0.50906961  0.37510282  0.25326921  1
  O  O208  1  0.51262164  0.36903092  0.75074873  1
  O  O209  1  0.50652010  0.87560692  0.25984511  1
  O  O210  1  0.51859104  0.86828494  0.73834408  1
  O  O211  1  0.48648824  0.13851883  0.26256780  1
  O  O212  1  0.48514330  0.13656928  0.74634470  1
  O  O213  1  0.48692512  0.62855767  0.25728978  1
  O  O214  1  0.50501318  0.63274036  0.73594504  1
  O  O215  1  0.99709735  0.13049734  0.24160770  1
  O  O216  1  0.98940606  0.12494090  0.75140093  1
  O  O217  1  0.98879060  0.62324856  0.24086396  1
  O  O218  1  0.99073743  0.63013386  0.74871087  1
  O  O219  1  0.36203276  0.25683944  0.01238260  1
  O  O220  1  0.37908622  0.24772934  0.51712815  1
  O  O221  1  0.35631932  0.74325556  0.01240252  1
  O  O222  1  0.36864927  0.75033855  0.50725231  1
  O  O223  1  0.86883388  0.25638503  0.00146390  1
  O  O224  1  0.86759889  0.25163054  0.49958021  1
  O  O225  1  0.88376261  0.76224687  0.01230071  1
  O  O226  1  0.87019316  0.75617710  0.50478079  1
  O  O227  1  0.11948817  0.23537302  0.49282768  1
  O  O228  1  0.12902465  0.24579608  1.00351244  1
  O  O229  1  0.13050956  0.74303763  0.49551320  1
  O  O230  1  0.13120181  0.74757500  0.99392138  1
  O  O231  1  0.63040057  0.23797021  0.49715882  1
  O  O232  1  0.63432711  0.25546489  0.98428675  1
  O  O233  1  0.63867931  0.74693598  0.49535820  1
  O  O234  1  0.62552505  0.76546170  0.97391475  1
  O  O235  1  0.48092085  0.25697186  0.14509283  1
  O  O236  1  0.49902475  0.25409155  0.63379082  1
  O  O237  1  0.48385356  0.75885611  0.12825253  1
  O  O238  1  0.49591117  0.74291793  0.62797397  1
  O  O239  1  0.99367569  0.24499973  0.12971178  1
  O  O240  1  0.99690534  0.24816364  0.64043106  1
  O  O241  1  0.99138206  0.74171522  0.12947926  1
  O  O242  1  0.98922539  0.74893995  0.63150589  1
  O  O243  1  0.00666415  0.24904631  0.36799506  1
  O  O244  1  -0.00451804  0.24439094  0.85505821  1
  O  O245  1  0.01324461  0.74503160  0.37370865  1
  O  O246  1  0.00481946  0.74975615  0.87386329  1
  O  O247  1  0.49973078  0.26006186  0.36783904  1
  O  O248  1  0.50805838  0.25259133  0.86087423  1
  O  O249  1  0.50844244  0.74847221  0.38298603  1
  O  O250  1  0.51453266  0.74488466  0.85502652  1
  O  O251  1  0.24403217  0.11953539  0.49083108  1
  O  O252  1  0.23595380  0.13981636  0.99067914  1
  O  O253  1  0.24151205  0.62863353  0.49202040  1
  O  O254  1  0.24336878  0.63225077  0.99205334  1
  O  O255  1  0.74220141  0.12737595  0.49185878  1
  O  O256  1  0.75889857  0.13837301  0.98433351  1
  O  O257  1  0.75353800  0.63998272  0.50812268  1
  O  O258  1  0.77495532  0.63749996  0.99226313  1
  O  O259  1  0.25617824  0.36576361  -0.00058027  1
  O  O260  1  0.26535935  0.35992402  0.44878609  1
  O  O261  1  0.24149846  0.86651953  0.01619266  1
  O  O262  1  0.25033847  0.86619398  0.50814061  1
  O  O263  1  0.75549798  0.36741544  0.00620143  1
  O  O264  1  0.75341283  0.36450215  0.50104716  1
  O  O265  1  0.76246385  0.86943256  0.00092122  1
  O  O266  1  0.75845197  0.86326489  0.50920691  1
  O  O267  1  0.12954813  0.49674869  0.24403463  1
  O  O268  1  0.13322958  0.50050675  0.74083594  1
  O  O269  1  0.13159771  0.99484872  0.24846407  1
  O  O270  1  0.12994238  0.99071048  0.74357941  1
  O  O271  1  0.63953323  0.49419552  0.25752283  1
  O  O272  1  0.62703204  0.49090492  0.74664207  1
  O  O273  1  0.61995179  1.00927003  0.23390765  1
  O  O274  1  0.62766852  0.98666652  0.74193922  1
  O  O275  1  0.36965659  0.00834149  0.25745883  1
  O  O276  1  0.36752471  0.00979670  0.73905061  1
  O  O277  1  0.36705144  0.50804922  0.24715098  1
  O  O278  1  0.36486060  0.49772415  0.75603033  1
  O  O279  1  0.87644747  -0.00149392  0.26532094  1
  O  O280  1  0.87935034  0.00780911  0.75818171  1
  O  O281  1  0.86658774  0.50445498  0.25605598  1
  O  O282  1  0.87754724  0.50494003  0.75640004  1
  O  O283  1  0.11506468  0.36430655  0.36990164  1
  O  O284  1  0.12150854  0.37438532  0.87422628  1
  O  O285  1  0.13139283  0.86574350  0.36915117  1
  O  O286  1  0.11813180  0.85822945  0.86816388  1
  O  O287  1  0.61775711  0.37159223  0.36422659  1
  O  O288  1  0.62524904  0.36627354  0.86579047  1
  O  O289  1  0.63423410  0.85132753  0.38085328  1
  O  O290  1  0.63865422  0.86792040  0.85319066  1
  O  O291  1  0.36950527  0.13831689  0.14531305  1
  O  O292  1  0.36274366  0.13928664  0.63598634  1
  O  O293  1  0.36510741  0.63756307  0.13678926  1
  O  O294  1  0.38238722  0.63771827  0.62214208  1
  O  O295  1  0.87889964  0.13029982  0.12437445  1
  O  O296  1  0.86891813  0.12036810  0.63874519  1
  O  O297  1  0.88093656  0.63152165  0.13419022  1
  O  O298  1  0.88016812  0.63161026  0.63065298  1
  O  O299  1  0.25508751  0.24982495  0.12158758  1
  O  O300  1  0.25551755  0.25488903  0.62438034  1
  O  O301  1  0.24915465  0.75691603  0.12065182  1
  O  O302  1  0.25789511  0.75587589  0.62403664  1
  O  O303  1  0.75288207  0.25568860  0.11624588  1
  O  O304  1  0.75353947  0.25361249  0.61191616  1
  O  O305  1  0.76230976  0.75112633  0.12712806  1
  O  O306  1  0.76309432  0.75524434  0.61889994  1
  O  O307  1  0.23007400  0.23090033  0.35864593  1
  O  O308  1  0.24728775  0.24811471  0.88400200  1
  O  O309  1  0.24123520  0.74017774  0.37859515  1
  O  O310  1  0.24355701  0.74355234  0.88287177  1
  O  O311  1  0.74956363  0.24035951  0.38635701  1
  O  O312  1  0.74232914  0.24319458  0.87817654  1
  O  O313  1  0.75781482  0.74625184  0.39038867  1
  O  O314  1  0.74162554  0.74748221  0.86961812  1
  O  O315  1  0.00820433  0.12308747  0.00382184  1
  O  O316  1  0.00803282  0.12331955  0.50103726  1
  O  O317  1  -0.00270886  0.61304882  0.01231798  1
  O  O318  1  0.01409393  0.62229699  0.49993095  1
  O  O319  1  0.49585271  0.15153460  0.00578127  1
  O  O320  1  0.51388161  0.11920109  0.49734793  1
  O  O321  1  0.50214668  0.63070898  0.00057018  1
  O  O322  1  0.50151270  0.61282214  0.51107675  1
  O  O323  1  0.50162117  0.38569370  0.49216751  1
  O  O324  1  0.48520709  0.35703340  0.99926095  1
  O  O325  1  0.50244969  0.88996914  0.50614751  1
  O  O326  1  0.47902449  0.84403960  0.98208224  1
  O  O327  1  0.99255147  0.37279446  0.49302324  1
  O  O328  1  0.98956326  0.38663330  1.00677352  1
  O  O329  1  0.98480233  0.86770443  0.50339735  1
  O  O330  1  0.99362146  0.88084190  0.99560890  1
  O  O331  1  0.50385584  0.49795112  0.38513208  1
  O  O332  1  0.48469227  0.49929500  0.86612917  1
  O  O333  1  0.48974338  1.00713217  0.38489968  1
  O  O334  1  0.51376654  1.00856016  0.88068255  1
  O  O335  1  0.98813044  0.49184145  0.37527056  1
  O  O336  1  0.98904338  0.50460770  0.88515325  1
  O  O337  1  0.98765235  1.00278196  0.37564045  1
  O  O338  1  0.99186878  0.99447757  0.88061372  1
  O  O339  1  0.00515614  0.00550768  0.11968590  1
  O  O340  1  0.01520699  -0.01064368  0.62954489  1
  O  O341  1  0.00382482  0.50606510  0.12037542  1
  O  O342  1  0.01189083  0.50274844  0.62054607  1
  O  O343  1  0.50945996  0.00480997  0.11850035  1
  O  O344  1  0.49531976  0.00602796  0.61211796  1
  O  O345  1  0.50815989  0.51336417  0.11960488  1
  O  O346  1  0.50344783  0.50494424  0.62130738  1
  O  O347  1  0.24271211  0.39046490  0.25896834  1
  O  O348  1  0.24782719  0.39395855  0.75395522  1
  O  O349  1  0.24028770  0.88422214  0.24897399  1
  O  O350  1  0.24741188  0.87711623  0.74402280  1
  O  O351  1  0.74608549  0.37847116  0.24311074  1
  O  O352  1  0.74049837  0.37064054  0.74308072  1
  O  O353  1  0.73564684  0.87270861  0.24897171  1
  O  O354  1  0.74453321  0.87313979  0.73275771  1
  O  O355  1  0.25145931  0.11164098  0.25803961  1
  O  O356  1  0.24966507  0.13051774  0.75843518  1
  O  O357  1  0.25322587  0.61769834  0.25637917  1
  O  O358  1  0.24704875  0.61248489  0.76109312  1
  O  O359  1  0.75036887  0.13242755  0.26873021  1
  O  O360  1  0.76222605  0.13061828  0.76029824  1
  O  O361  1  0.76052104  0.61531102  0.24463575  1
  O  O362  1  0.76471033  0.62131830  0.74754117  1
  O  O363  1  0.36513405  0.12044130  0.37034628  1
  O  O364  1  0.35939141  0.13368868  0.85663577  1
  O  O365  1  0.36482824  0.62362799  0.36768505  1
  O  O366  1  0.36225434  0.61907806  0.88038987  1
  O  O367  1  0.86422489  0.10870853  0.37705714  1
  O  O368  1  0.87035553  0.11591290  0.86467154  1
  O  O369  1  0.88049828  0.61470957  0.36672669  1
  O  O370  1  0.87589139  0.61458246  0.86446105  1
  O  O371  1  0.11915832  0.38879599  0.13319839  1
  O  O372  1  0.12473453  0.38618653  0.62446173  1
  O  O373  1  0.13126781  0.87837901  0.13566148  1
  O  O374  1  0.13421740  0.87728722  0.63086667  1
  O  O375  1  0.63498791  0.37020799  0.13823439  1
  O  O376  1  0.63111137  0.37888650  0.63055701  1
  O  O377  1  0.62770768  0.89012738  0.12857588  1
  O  O378  1  0.64077157  0.86843995  0.63071839  1
  O  O379  1  0.11505648  0.25311985  0.25459794  1
  O  O380  1  0.11047133  0.25427418  0.74920740  1
  O  O381  1  0.12422395  0.75799471  0.25942768  1
  O  O382  1  0.12051202  0.75321167  0.75607449  1
  O  O383  1  0.61396912  0.25710703  0.25173058  1
  O  O384  1  0.61967853  0.25407578  0.75340711  1
  O  O385  1  0.61839128  0.74206997  0.26649486  1
  O  O386  1  0.62330662  0.75888068  0.75060940  1
  O  O387  1  0.37235711  0.24880445  0.25221468  1
  O  O388  1  0.37941538  0.24915650  0.73944419  1
  O  O389  1  0.37276420  0.74217206  0.24505896  1
  O  O390  1  0.38952571  0.75670133  0.74077646  1
  O  O391  1  0.88210638  0.24694022  0.24416235  1
  O  O392  1  0.88386960  0.23732933  0.74623144  1
  O  O393  1  0.87621558  0.74308618  0.24725819  1
  O  O394  1  0.87883301  0.74343833  0.74311507  1
  O  O395  1  0.38333296  0.49674182  0.49883822  1
  O  O396  1  0.36795258  0.48932890  0.99268700  1
  O  O397  1  0.38860774  1.00110462  0.49425607  1
  O  O398  1  0.37527360  1.00576223  0.99852834  1
  O  O399  1  0.87537875  0.49354942  0.49182522  1
  O  O400  1  0.88073297  0.49069808  0.99397775  1
  O  O401  1  0.87472977  0.98647195  0.49128829  1
  O  O402  1  0.88075384  0.99327705  0.99312084  1
  O  O403  1  0.11932594  0.01169442  0.00784931  1
  O  O404  1  0.12490102  0.01066428  0.50714573  1
  O  O405  1  0.11718988  0.50109407  0.00832750  1
  O  O406  1  0.12772695  0.50577192  0.50612062  1
  O  O407  1  0.62973765  -0.00201674  0.01248761  1
  O  O408  1  0.61355256  0.00857253  0.49670771  1
  O  O409  1  0.61747000  0.50890583  -0.00917133  1
  O  O410  1  0.61924385  0.49971998  0.50713607  1
  O  O411  1  0.37304279  0.37071613  0.12084052  1
  O  O412  1  0.37444809  0.36096491  0.62377271  1
  O  O413  1  0.35943070  0.86854996  0.13881796  1
  O  O414  1  0.36864229  0.86525213  0.62110306  1
  O  O415  1  0.86811614  0.36754785  0.11483356  1
  O  O416  1  0.86789420  0.37324687  0.61456091  1
  O  O417  1  0.87293978  0.86966257  0.11933298  1
  O  O418  1  0.86848459  0.86909101  0.61632149  1
  O  O419  1  0.12716445  0.12572703  0.38797727  1
  O  O420  1  0.12654350  0.13461318  0.88251866  1
  O  O421  1  0.13006029  0.62983649  0.38064197  1
  O  O422  1  0.12984425  0.63506792  0.87574599  1
  O  O423  1  0.63473658  0.12461561  0.38334737  1
  O  O424  1  0.63218071  0.13181671  0.86753731  1
  O  O425  1  0.62742940  0.64076921  0.38306258  1
  O  O426  1  0.63271363  0.64216232  0.86254592  1
