# generated using pymatgen
data_V85Zn86O256
_symmetry_space_group_name_H-M   'P 1'
_cell_length_a   16.93641168
_cell_length_b   16.93199167
_cell_length_c   16.94659537
_cell_angle_alpha   89.97549037
_cell_angle_beta   89.98542807
_cell_angle_gamma   89.95080026
_symmetry_Int_Tables_number   1
_chemical_formula_structural   V85Zn86O256
_chemical_formula_sum   'V85 Zn86 O256'
_cell_volume   4859.72499745
_cell_formula_units_Z   1
loop_
 _symmetry_equiv_pos_site_id
 _symmetry_equiv_pos_as_xyz
  1  'x, y, z'
loop_
 _atom_site_type_symbol
 _atom_site_label
 _atom_site_symmetry_multiplicity
 _atom_site_fract_x
 _atom_site_fract_y
 _atom_site_fract_z
 _atom_site_occupancy
  V  V0  1  0.25763603  0.49766284  0.25453064  1
  V  V1  1  0.37375729  -0.00261044  0.37848977  1
  V  V2  1  0.36826893  0.51441154  0.87134494  1
  V  V3  1  0.00018557  0.74099396  0.24211202  1
  V  V4  1  0.48371961  0.74868427  0.74910282  1
  V  V5  1  -0.00027072  0.87161329  0.87990668  1
  V  V6  1  0.12010372  0.12345222  0.00789383  1
  V  V7  1  0.50578527  0.50355168  0.50668716  1
  V  V8  1  0.74938806  0.25160312  0.00074298  1
  V  V9  1  0.25360021  0.86557443  0.12652811  1
  V  V10  1  0.13928630  0.24565620  0.37679249  1
  V  V11  1  0.87680324  0.49874247  0.87640715  1
  V  V12  1  0.37529815  0.62883206  0.25687589  1
  V  V13  1  0.62168020  0.25099421  0.87339301  1
  V  V14  1  0.74831663  0.49765154  0.74791265  1
  V  V15  1  0.49474499  0.37804985  0.87191211  1
  V  V16  1  0.27164184  0.75275618  0.49729983  1
  V  V17  1  0.75514936  0.12584114  0.86902141  1
  V  V18  1  0.61862797  0.11744196  -0.00391121  1
  V  V19  1  0.12786173  0.50510505  0.12897512  1
  V  V20  1  0.49982360  0.12586460  0.62312738  1
  V  V21  1  0.62967660  0.87608450  0.74776523  1
  V  V22  1  0.13893742  0.12838856  0.49790118  1
  V  V23  1  0.75083982  0.50808447  0.24993588  1
  V  V24  1  0.24819379  0.51067261  0.74873126  1
  V  V25  1  0.25094032  0.00163440  0.75044073  1
  V  V26  1  0.49658970  0.11698906  0.12109580  1
  V  V27  1  0.12597005  -0.00110844  0.62525344  1
  V  V28  1  0.62128970  0.37894414  0.74110416  1
  V  V29  1  0.12880764  0.86475434  0.25892675  1
  V  V30  1  0.37746380  0.00387538  0.88326867  1
  V  V31  1  0.12092740  0.64205213  0.49583990  1
  V  V32  1  0.00150784  0.00208686  0.49581982  1
  V  V33  1  0.24795848  0.00165403  0.25586551  1
  V  V34  1  0.26611033  0.87166879  0.62319379  1
  V  V35  1  0.75563815  0.36592453  0.62375527  1
  V  V36  1  0.13292508  0.62657372  -0.00235058  1
  V  V37  1  0.62715033  0.37475728  0.24871723  1
  V  V38  1  0.12226906  -0.00051751  0.12826598  1
  V  V39  1  0.00449736  0.37046724  0.37528928  1
  V  V40  1  -0.01190417  0.24611564  0.74826687  1
  V  V41  1  0.87751067  0.36880962  0.50564905  1
  V  V42  1  0.62184546  0.50146320  0.12191223  1
  V  V43  1  0.37823903  0.87227582  0.00599023  1
  V  V44  1  0.36830084  0.25087914  0.61748099  1
  V  V45  1  0.01594747  0.49666892  0.50441885  1
  V  V46  1  0.49700906  0.25147445  0.74567042  1
  V  V47  1  0.75571923  0.12013383  0.36003510  1
  V  V48  1  -0.01106721  0.12794735  0.62630688  1
  V  V49  1  0.24779468  0.25147265  0.00314094  1
  V  V50  1  -0.00399808  0.24289928  0.24580289  1
  V  V51  1  0.00174660  0.37403612  0.87618791  1
  V  V52  1  0.13056614  0.37285110  0.24294615  1
  V  V53  1  0.50150962  0.86861498  0.37568286  1
  V  V54  1  0.49805305  -0.00417039  0.49994736  1
  V  V55  1  0.00179031  0.85775743  0.38100544  1
  V  V56  1  0.75521072  -0.00071063  0.74288896  1
  V  V57  1  0.62597969  0.25194021  0.37510934  1
  V  V58  1  0.48807567  0.62535874  0.62878265  1
  V  V59  1  0.87769260  -0.00068082  0.87304830  1
  V  V60  1  0.63430954  0.88076782  0.25060311  1
  V  V61  1  -0.00063027  0.50419485  0.00850371  1
  V  V62  1  0.49236132  0.63053644  0.12118217  1
  V  V63  1  0.62491642  0.74928958  0.87573229  1
  V  V64  1  0.12604646  0.37717914  0.74619507  1
  V  V65  1  0.12392872  0.24940322  0.87560672  1
  V  V66  1  -0.00540379  -0.00205072  0.00608637  1
  V  V67  1  0.87355246  0.75260348  0.62619994  1
  V  V68  1  0.37170395  0.38066691  0.49600335  1
  V  V69  1  0.37062556  0.12649875  0.25662324  1
  V  V70  1  0.87639085  0.49966118  0.37314213  1
  V  V71  1  0.50162777  0.88214234  0.88116466  1
  V  V72  1  0.24578403  0.37831535  0.62066291  1
  V  V73  1  0.49912958  0.24994124  0.24948874  1
  V  V74  1  0.75835034  0.87837804  0.11426239  1
  V  V75  1  0.00884148  0.61923536  0.62723161  1
  V  V76  1  0.49781340  0.38653998  0.37398261  1
  V  V77  1  0.86933514  0.87705682  0.50446313  1
  V  V78  1  0.36984399  0.25451443  0.12540209  1
  V  V79  1  0.75041292  0.62396510  0.87688660  1
  V  V80  1  0.62759782  0.12460016  0.49858561  1
  V  V81  1  0.24868274  0.12471783  0.87593737  1
  V  V82  1  0.36942668  0.37713051  0.00038046  1
  V  V83  1  0.00387560  0.75018387  0.75174080  1
  V  V84  1  0.50319883  0.75308220  0.24492711  1
  Zn  Zn85  1  0.12739614  0.87502536  0.75161883  1
  Zn  Zn86  1  0.87897597  0.74196443  0.11256944  1
  Zn  Zn87  1  0.68394704  0.70344223  0.42962183  1
  Zn  Zn88  1  0.66246789  0.55238639  0.58482749  1
  Zn  Zn89  1  0.25008404  0.62695879  0.37607442  1
  Zn  Zn90  1  0.62705263  0.00009483  0.12374026  1
  Zn  Zn91  1  0.75786189  0.24722503  0.50156711  1
  Zn  Zn92  1  0.87592013  0.62324017  0.24549136  1
  Zn  Zn93  1  -0.09894700  0.09059873  0.20961490  1
  Zn  Zn94  1  0.13177349  0.74425449  0.87202925  1
  Zn  Zn95  1  0.70871773  0.81826650  0.57367236  1
  Zn  Zn96  1  0.87467720  0.24758120  0.12524793  1
  Zn  Zn97  1  0.62315221  0.62544048  0.00028919  1
  Zn  Zn98  1  0.75934253  0.75338951  -0.00407913  1
  Zn  Zn99  1  0.75283239  0.37507458  0.12371994  1
  Zn  Zn100  1  0.87480855  0.37424228  0.00293516  1
  Zn  Zn101  1  0.87229303  -0.00110631  0.36991929  1
  Zn  Zn102  1  0.49790173  0.50257182  -0.00354273  1
  Zn  Zn103  1  0.37401804  0.12695517  0.74956678  1
  Zn  Zn104  1  0.62800682  -0.00327144  0.62325542  1
  Zn  Zn105  1  0.87836659  0.62292581  0.74813197  1
  Zn  Zn106  1  0.25996862  0.74236296  -0.00301730  1
  Zn  Zn107  1  0.18787159  0.18693836  0.18924268  1
  Zn  Zn108  1  0.18428581  0.18967629  0.68616731  1
  Zn  Zn109  1  0.18671327  0.68456751  0.18505868  1
  Zn  Zn110  1  0.18806251  0.69151244  0.68127464  1
  Zn  Zn111  1  0.68592848  0.18605943  0.18312940  1
  Zn  Zn112  1  0.68655794  0.18697533  0.68742441  1
  Zn  Zn113  1  0.68558829  0.69253262  0.18675089  1
  Zn  Zn114  1  0.68366080  0.68631880  0.69604346  1
  Zn  Zn115  1  0.31285112  0.31515310  0.31324406  1
  Zn  Zn116  1  0.31046486  0.31451795  0.81030399  1
  Zn  Zn117  1  0.31855637  0.81041124  0.31460736  1
  Zn  Zn118  1  0.30733670  0.81751165  0.81899639  1
  Zn  Zn119  1  0.81152461  0.31581757  0.31519217  1
  Zn  Zn120  1  0.81126197  0.31420917  0.81586338  1
  Zn  Zn121  1  0.81408933  0.81770932  0.30979632  1
  Zn  Zn122  1  0.81714170  0.81300804  0.81346081  1
  Zn  Zn123  1  0.19043812  0.43765080  0.43309487  1
  Zn  Zn124  1  0.18881968  0.43952617  0.93715720  1
  Zn  Zn125  1  0.18920316  0.93251173  0.43964242  1
  Zn  Zn126  1  0.18724913  0.93335607  0.93892241  1
  Zn  Zn127  1  0.68659370  0.53611780  0.42817408  1
  Zn  Zn128  1  0.68357334  0.43679389  0.93550072  1
  Zn  Zn129  1  0.68476786  0.93858877  0.43276346  1
  Zn  Zn130  1  0.68905468  0.93971149  0.93488686  1
  Zn  Zn131  1  0.30926355  0.05998276  0.06634981  1
  Zn  Zn132  1  0.31449353  0.06084204  0.56363651  1
  Zn  Zn133  1  0.31155976  0.55809818  0.06897986  1
  Zn  Zn134  1  0.31213169  0.56188396  0.56344309  1
  Zn  Zn135  1  0.80876331  0.06148984  0.05696170  1
  Zn  Zn136  1  0.81270918  0.06259536  0.55807679  1
  Zn  Zn137  1  0.81266628  0.56596561  0.06535233  1
  Zn  Zn138  1  0.82927278  0.56195294  0.55868568  1
  Zn  Zn139  1  0.43658710  0.43952576  0.18577813  1
  Zn  Zn140  1  0.43089792  0.44246558  0.68498906  1
  Zn  Zn141  1  0.43744854  0.93811085  0.19045058  1
  Zn  Zn142  1  0.44025276  0.94031970  0.69446144  1
  Zn  Zn143  1  0.93790473  0.43117293  0.18580809  1
  Zn  Zn144  1  0.93895391  0.43656843  0.68827210  1
  Zn  Zn145  1  0.94134842  0.92353709  0.18891616  1
  Zn  Zn146  1  0.93961347  0.93793550  0.68925461  1
  Zn  Zn147  1  0.06456644  0.06024140  0.31708417  1
  Zn  Zn148  1  0.06179134  0.06361144  0.81309486  1
  Zn  Zn149  1  0.06682936  0.56107683  0.31845254  1
  Zn  Zn150  1  0.06609521  0.56079072  0.81528181  1
  Zn  Zn151  1  0.56195261  0.06139170  0.31150080  1
  Zn  Zn152  1  0.56313811  0.06293614  0.80941614  1
  Zn  Zn153  1  0.56212815  0.56722682  0.30847651  1
  Zn  Zn154  1  0.55963219  0.56497452  0.80638430  1
  Zn  Zn155  1  0.43784255  0.18956125  0.43764994  1
  Zn  Zn156  1  0.43633938  0.19018907  0.93716233  1
  Zn  Zn157  1  0.44825322  0.68103417  0.43455412  1
  Zn  Zn158  1  0.43901894  0.69173220  0.93712598  1
  Zn  Zn159  1  0.94206276  0.18624641  0.43531806  1
  Zn  Zn160  1  0.93593106  0.18358387  0.93999540  1
  Zn  Zn161  1  0.88126437  0.70464002  0.41759709  1
  Zn  Zn162  1  0.94064334  0.68368994  0.94045117  1
  Zn  Zn163  1  0.06165101  0.31616419  0.06493159  1
  Zn  Zn164  1  0.06481666  0.30731710  0.56421015  1
  Zn  Zn165  1  0.06590963  0.81488887  0.06379261  1
  Zn  Zn166  1  0.05964871  0.81518482  0.56810574  1
  Zn  Zn167  1  0.55774448  0.31089886  0.06089007  1
  Zn  Zn168  1  0.56304879  0.31526660  0.55960991  1
  Zn  Zn169  1  0.56712473  0.81362121  0.06262805  1
  Zn  Zn170  1  0.54472863  0.80667768  0.56108583  1
  O  O171  1  0.12959482  0.11864229  0.11489523  1
  O  O172  1  0.12196454  0.11676081  0.61475433  1
  O  O173  1  0.12365767  0.61406117  0.11642373  1
  O  O174  1  0.11588586  0.62799787  0.61386315  1
  O  O175  1  0.61519009  0.12364464  0.11529393  1
  O  O176  1  0.61848855  0.12470487  0.61460377  1
  O  O177  1  0.61493277  0.61728608  0.12464123  1
  O  O178  1  0.60336096  0.62456191  0.64580278  1
  O  O179  1  0.38607093  0.36601630  0.38441118  1
  O  O180  1  0.37919323  0.37895318  0.88103347  1
  O  O181  1  0.38707902  0.88764520  0.36853234  1
  O  O182  1  0.38312047  0.88584899  0.88337499  1
  O  O183  1  0.88691010  0.37980351  0.38034875  1
  O  O184  1  0.88016004  0.38618637  0.87775079  1
  O  O185  1  0.88573622  0.87841108  0.38669439  1
  O  O186  1  0.89050816  0.88252221  0.87165070  1
  O  O187  1  0.25784505  -0.00828901  0.36488427  1
  O  O188  1  0.25567402  0.00450833  0.87086704  1
  O  O189  1  0.24580668  0.50680762  0.36018707  1
  O  O190  1  0.26116355  0.49651692  0.86644198  1
  O  O191  1  0.74913696  0.01704944  0.37487054  1
  O  O192  1  0.75797931  0.00692852  0.86871997  1
  O  O193  1  0.76462749  0.48763947  0.36229257  1
  O  O194  1  0.75643415  0.50229741  0.86816007  1
  O  O195  1  0.23827137  0.50053377  0.13852290  1
  O  O196  1  0.25622751  0.48666792  0.63397775  1
  O  O197  1  0.24440213  0.99231883  0.13927712  1
  O  O198  1  0.24558276  0.99186060  0.62750561  1
  O  O199  1  0.73632173  0.49596858  0.12878495  1
  O  O200  1  0.75262364  0.49032156  0.63817125  1
  O  O201  1  0.74658767  0.98512349  0.11886578  1
  O  O202  1  0.75053299  1.00784404  0.63952292  1
  O  O203  1  0.01069418  0.36671115  0.25898855  1
  O  O204  1  0.00811590  0.36940311  0.75529061  1
  O  O205  1  0.01143040  0.86220849  0.26121897  1
  O  O206  1  0.00430875  0.86650160  0.75647876  1
  O  O207  1  0.50195126  0.37025174  0.25662691  1
  O  O208  1  0.50484850  0.37306555  0.75023003  1
  O  O209  1  0.50578049  0.87007238  0.25451198  1
  O  O210  1  0.50739798  0.86919700  0.75966968  1
  O  O211  1  0.49305692  0.13114337  0.24259861  1
  O  O212  1  0.49823204  0.13247444  0.74128346  1
  O  O213  1  0.49451349  0.63350432  0.24289371  1
  O  O214  1  0.49350781  0.64245424  0.75244106  1
  O  O215  1  1.00314373  0.13873769  0.25665937  1
  O  O216  1  1.00701986  0.13418699  0.73995153  1
  O  O217  1  1.00962730  0.64009259  0.25642255  1
  O  O218  1  1.00359783  0.62909687  0.74410361  1
  O  O219  1  0.36910596  0.25636013  0.00719445  1
  O  O220  1  0.38030831  0.25949260  0.51066383  1
  O  O221  1  0.37702362  0.76738522  -0.00169882  1
  O  O222  1  0.36951827  0.74468635  0.50075125  1
  O  O223  1  0.86013901  0.25201849  -0.00713212  1
  O  O224  1  0.87920408  0.26419199  0.49320544  1
  O  O225  1  0.87346416  0.74853633  -0.00232292  1
  O  O226  1  0.88314263  0.76331810  0.51548073  1
  O  O227  1  0.12326324  0.23610305  0.49306290  1
  O  O228  1  0.12708731  0.24325313  0.99832032  1
  O  O229  1  0.12416072  0.74281517  0.50248929  1
  O  O230  1  0.12125926  0.73224331  1.00428073  1
  O  O231  1  0.62490964  0.24336446  0.48972935  1
  O  O232  1  0.62961566  0.24466523  0.99214107  1
  O  O233  1  0.63381874  0.77060118  0.50496524  1
  O  O234  1  0.62679889  0.74901022  0.98440628  1
  O  O235  1  0.48785164  0.24260907  0.13004458  1
  O  O236  1  0.49343919  0.24621073  0.62755393  1
  O  O237  1  0.50490335  0.74224435  0.13109094  1
  O  O238  1  0.49448840  0.74594058  0.64166994  1
  O  O239  1  1.00343918  0.25304235  0.14306243  1
  O  O240  1  1.00551133  0.23981299  0.63558238  1
  O  O241  1  1.00180772  0.75654519  0.13972316  1
  O  O242  1  0.99530409  0.74360938  0.63459912  1
  O  O243  1  0.01016276  0.25651418  0.36815649  1
  O  O244  1  0.00569022  0.25325986  0.87087477  1
  O  O245  1  -0.00946536  0.75677153  0.37234347  1
  O  O246  1  0.00635745  0.75532623  0.86928165  1
  O  O247  1  0.51048840  0.25368047  0.36894816  1
  O  O248  1  0.50043270  0.25770765  0.86516213  1
  O  O249  1  0.49636837  0.76362584  0.36895000  1
  O  O250  1  0.50585912  0.75886393  0.86713674  1
  O  O251  1  0.23752834  0.12316851  0.50393127  1
  O  O252  1  0.24229463  0.13050576  0.99659477  1
  O  O253  1  0.24171441  0.63949729  0.50606337  1
  O  O254  1  0.23769970  0.62431354  1.00846896  1
  O  O255  1  0.73845816  0.12788766  0.49536466  1
  O  O256  1  0.73854094  0.13191746  0.98687405  1
  O  O257  1  0.73756968  0.60349274  0.50996758  1
  O  O258  1  0.74494539  0.62079567  0.98489288  1
  O  O259  1  0.26112177  0.36784338  -0.00444987  1
  O  O260  1  0.25801042  0.38075827  0.50696409  1
  O  O261  1  0.25950178  0.88026372  0.01256781  1
  O  O262  1  0.25105389  0.86307247  0.50984243  1
  O  O263  1  0.74751084  0.36434660  -0.00203746  1
  O  O264  1  0.76328006  0.37208007  0.51205680  1
  O  O265  1  0.74385945  0.87342941  0.01025057  1
  O  O266  1  0.76470108  0.89162129  0.50309092  1
  O  O267  1  0.12893601  0.49274487  0.24526155  1
  O  O268  1  0.13205372  0.48483461  0.75752757  1
  O  O269  1  0.13155998  0.99175912  0.24953241  1
  O  O270  1  0.13235408  1.00171947  0.74073860  1
  O  O271  1  0.62963005  0.49190518  0.24337364  1
  O  O272  1  0.63486295  0.48991888  0.75754372  1
  O  O273  1  0.61795921  0.98513264  0.24486853  1
  O  O274  1  0.63338420  0.99242896  0.74878699  1
  O  O275  1  0.36854633  0.00781124  0.25823347  1
  O  O276  1  0.36861543  0.00358406  0.76269393  1
  O  O277  1  0.36640466  0.50890861  0.24424665  1
  O  O278  1  0.36445318  0.49592322  0.76381580  1
  O  O279  1  0.89020759  -0.00523615  0.25855692  1
  O  O280  1  0.86911971  -0.00347291  0.76131380  1
  O  O281  1  0.86716182  0.49385327  0.25445788  1
  O  O282  1  0.86748192  0.49891572  0.75882656  1
  O  O283  1  0.12130332  0.36593705  0.36854206  1
  O  O284  1  0.12091898  0.36862882  0.87016104  1
  O  O285  1  0.11759307  0.87643669  0.36854992  1
  O  O286  1  0.11188367  0.87808695  0.87166820  1
  O  O287  1  0.61487278  0.36573944  0.36083381  1
  O  O288  1  0.61493624  0.37030943  0.86471246  1
  O  O289  1  0.61752388  0.88056210  0.36037239  1
  O  O290  1  0.61854156  0.87158884  0.86920078  1
  O  O291  1  0.37900650  0.13027160  0.13345763  1
  O  O292  1  0.38037704  0.13413237  0.62449435  1
  O  O293  1  0.38755936  0.61985617  0.13272002  1
  O  O294  1  0.38648926  0.61991260  0.62949088  1
  O  O295  1  0.87095653  0.13439470  0.11511841  1
  O  O296  1  0.88959054  0.12227695  0.61927883  1
  O  O297  1  0.87368104  0.62798688  0.13254340  1
  O  O298  1  0.89192789  0.63198234  0.62616080  1
  O  O299  1  0.26243637  0.24579641  0.12081695  1
  O  O300  1  0.25837856  0.26176259  0.62973306  1
  O  O301  1  0.24791384  0.76266494  0.12138683  1
  O  O302  1  0.24983505  0.76447201  0.61639061  1
  O  O303  1  0.74458088  0.25319177  0.11140421  1
  O  O304  1  0.74872079  0.26119241  0.62550710  1
  O  O305  1  0.74579732  0.76349347  0.11952673  1
  O  O306  1  0.76788182  0.74642061  0.64140492  1
  O  O307  1  0.23869098  0.24909457  0.37056313  1
  O  O308  1  0.24405869  0.24459271  0.88126309  1
  O  O309  1  0.25591954  0.75008073  0.39297699  1
  O  O310  1  0.24190562  0.76169418  0.88629088  1
  O  O311  1  0.73949198  0.24291183  0.37565945  1
  O  O312  1  0.74232255  0.24345962  0.87757861  1
  O  O313  1  0.77849741  0.73908996  0.38024080  1
  O  O314  1  0.74394086  0.74047687  0.87112271  1
  O  O315  1  0.01008700  0.11198253  -0.00573541  1
  O  O316  1  0.00873154  0.11849588  0.50585751  1
  O  O317  1  0.01180394  0.60858271  -0.00347258  1
  O  O318  1  0.01296234  0.61568662  0.50728863  1
  O  O319  1  0.50682449  0.13461758  0.00846970  1
  O  O320  1  0.50990694  0.11734462  0.50042639  1
  O  O321  1  0.50133412  0.62439111  0.00709097  1
  O  O322  1  0.49785148  0.61560830  0.51251667  1
  O  O323  1  0.49280427  0.37955621  0.49272347  1
  O  O324  1  0.48736965  0.37570562  0.99122820  1
  O  O325  1  0.50008636  0.88853079  0.49167933  1
  O  O326  1  0.49622452  0.87465225  0.98936923  1
  O  O327  1  1.00140781  0.37793521  0.49516738  1
  O  O328  1  1.00200585  0.38485427  0.99249361  1
  O  O329  1  0.99625511  0.88251130  0.49651281  1
  O  O330  1  1.00794603  0.88762956  0.99335711  1
  O  O331  1  0.50170956  0.48911983  0.37998161  1
  O  O332  1  0.48655905  0.49577084  0.87241336  1
  O  O333  1  0.49398979  0.99413795  0.38080145  1
  O  O334  1  0.49138903  0.99306329  0.86928662  1
  O  O335  1  1.00148285  0.48490060  0.38059309  1
  O  O336  1  0.99276477  0.49437539  0.88082626  1
  O  O337  1  1.00467281  0.99252997  0.38914750  1
  O  O338  1  0.99394109  0.99482970  0.87922880  1
  O  O339  1  0.00728532  -0.00825796  0.11720136  1
  O  O340  1  0.00902690  0.00498657  0.61707701  1
  O  O341  1  0.01278922  0.49005426  0.11806008  1
  O  O342  1  -0.00211993  0.50705828  0.61685867  1
  O  O343  1  0.49803316  0.01436643  0.12648232  1
  O  O344  1  0.49936646  0.00654062  0.61668112  1
  O  O345  1  0.50895580  0.50752243  0.12380915  1
  O  O346  1  0.49758127  0.50737608  0.61908315  1
  O  O347  1  0.24273752  0.38355682  0.25440955  1
  O  O348  1  0.24237602  0.38027054  0.74238463  1
  O  O349  1  0.24587162  0.87737129  0.24718901  1
  O  O350  1  0.24854945  0.88182876  0.73731232  1
  O  O351  1  0.73943918  0.37918686  0.24671113  1
  O  O352  1  0.74277170  0.37953737  0.74659561  1
  O  O353  1  0.73791201  0.87260105  0.24237045  1
  O  O354  1  0.74161430  0.88569098  0.75932000  1
  O  O355  1  0.25806035  0.11430383  0.24754716  1
  O  O356  1  0.25019267  0.12013794  0.75576009  1
  O  O357  1  0.25900956  0.62207221  0.25046069  1
  O  O358  1  0.23872396  0.60999356  0.74214215  1
  O  O359  1  0.74932248  0.12847818  0.26007099  1
  O  O360  1  0.74178704  0.11765627  0.76222690  1
  O  O361  1  0.74637112  0.61070092  0.24655920  1
  O  O362  1  0.75286338  0.61406422  0.76004215  1
  O  O363  1  0.38144380  0.12037306  0.36233354  1
  O  O364  1  0.36803967  0.12071590  0.87495477  1
  O  O365  1  0.37613547  0.62606261  0.36092563  1
  O  O366  1  0.37475926  0.61259409  0.88097860  1
  O  O367  1  0.85899438  0.12637602  0.38005942  1
  O  O368  1  0.86446772  0.11663309  0.87606739  1
  O  O369  1  0.88974009  0.60278742  0.36604682  1
  O  O370  1  0.86959906  0.61233861  0.87219508  1
  O  O371  1  0.12587203  0.37926058  0.13848360  1
  O  O372  1  0.13358058  0.36985232  0.63319836  1
  O  O373  1  0.13449300  0.88081751  0.13549368  1
  O  O374  1  0.13123734  0.88925612  0.62407240  1
  O  O375  1  0.61771677  0.38076563  0.13542657  1
  O  O376  1  0.63204119  0.37111123  0.63623499  1
  O  O377  1  0.63077021  0.87881864  0.13424487  1
  O  O378  1  0.62408012  0.87561077  0.63851359  1
  O  O379  1  0.11996499  0.25442534  0.25643356  1
  O  O380  1  0.12020384  0.25966600  0.75731440  1
  O  O381  1  0.11990923  0.75793315  0.24874528  1
  O  O382  1  0.11553384  0.75191153  0.74944804  1
  O  O383  1  0.61969347  0.25563413  0.25333997  1
  O  O384  1  0.61677249  0.25765168  0.75408114  1
  O  O385  1  0.61291499  0.76367851  0.24808805  1
  O  O386  1  0.61887479  0.76005611  0.76131950  1
  O  O387  1  0.37676681  0.24433122  0.24412929  1
  O  O388  1  0.38086640  0.25183644  0.73801898  1
  O  O389  1  0.38876933  0.74370784  0.24989348  1
  O  O390  1  0.38642958  0.76166534  0.75673691  1
  O  O391  1  0.89244811  0.25517754  0.25384450  1
  O  O392  1  0.88901823  0.25513855  0.75618389  1
  O  O393  1  0.89277945  0.74920154  0.24783405  1
  O  O394  1  0.88904296  0.74629814  0.74769276  1
  O  O395  1  0.38487401  0.48748256  0.50224581  1
  O  O396  1  0.37240168  0.49317477  0.99048823  1
  O  O397  1  0.38252055  1.01004634  0.48620463  1
  O  O398  1  0.37079593  0.99581513  0.98914104  1
  O  O399  1  0.89071825  0.48771205  0.49134172  1
  O  O400  1  0.88316705  0.49856274  0.99432443  1
  O  O401  1  0.88634223  0.99558069  0.49784665  1
  O  O402  1  0.88412363  1.00211818  0.98667076  1
  O  O403  1  0.12013169  0.00680415  0.00698971  1
  O  O404  1  0.12263640  0.00866803  0.50502682  1
  O  O405  1  0.12308197  0.50497177  0.00895443  1
  O  O406  1  0.11834816  0.50311177  0.49831588  1
  O  O407  1  0.62418749  0.01441620  -0.00314134  1
  O  O408  1  0.61734939  0.00727548  0.50161504  1
  O  O409  1  0.61928427  0.49982748  0.00824735  1
  O  O410  1  0.60930910  0.48517918  0.50397600  1
  O  O411  1  0.38048874  0.36622423  0.11467786  1
  O  O412  1  0.36808327  0.36893704  0.61654769  1
  O  O413  1  0.36744496  0.88533089  0.11717137  1
  O  O414  1  0.36430759  0.88416508  0.62569891  1
  O  O415  1  0.87140779  0.36593054  0.12009015  1
  O  O416  1  0.86913074  0.37827090  0.61804293  1
  O  O417  1  0.85991310  0.86866673  0.12822344  1
  O  O418  1  0.88271242  0.86674937  0.61853812  1
  O  O419  1  0.12350471  0.13011627  0.38954940  1
  O  O420  1  0.13031909  0.12882120  0.88572776  1
  O  O421  1  0.12940032  0.62395629  0.39290120  1
  O  O422  1  0.12600485  0.62124613  0.89335805  1
  O  O423  1  0.63180518  0.13117401  0.37826424  1
  O  O424  1  0.62736083  0.13203205  0.87918225  1
  O  O425  1  0.62389385  0.61934900  0.38255724  1
  O  O426  1  0.63146529  0.63267050  0.87227896  1
