# generated using pymatgen
data_V85Zn86O256
_symmetry_space_group_name_H-M   'P 1'
_cell_length_a   16.93386523
_cell_length_b   16.93784901
_cell_length_c   16.93374447
_cell_angle_alpha   89.95526791
_cell_angle_beta   89.98262080
_cell_angle_gamma   90.03042830
_symmetry_Int_Tables_number   1
_chemical_formula_structural   V85Zn86O256
_chemical_formula_sum   'V85 Zn86 O256'
_cell_volume   4856.98927708
_cell_formula_units_Z   1
loop_
 _symmetry_equiv_pos_site_id
 _symmetry_equiv_pos_as_xyz
  1  'x, y, z'
loop_
 _atom_site_type_symbol
 _atom_site_label
 _atom_site_symmetry_multiplicity
 _atom_site_fract_x
 _atom_site_fract_y
 _atom_site_fract_z
 _atom_site_occupancy
  V  V0  1  0.50920650  0.11719946  0.62453132  1
  V  V1  1  0.50422353  0.63301423  0.64148119  1
  V  V2  1  0.74924807  0.37066974  0.62096143  1
  V  V3  1  0.75390461  0.62226111  0.87228668  1
  V  V4  1  0.87190714  0.37579698  0.49614499  1
  V  V5  1  -0.00117853  0.37886071  0.37503089  1
  V  V6  1  -0.00456076  0.50601861  0.49394110  1
  V  V7  1  0.75125062  0.12804644  0.38394121  1
  V  V8  1  0.25367026  0.12859186  0.87968343  1
  V  V9  1  0.61866136  0.01149904  0.12731578  1
  V  V10  1  0.87468313  -0.01539234  0.38334093  1
  V  V11  1  0.38249988  0.74510875  0.11693931  1
  V  V12  1  0.24648937  0.87442341  0.12322901  1
  V  V13  1  0.50127508  0.37491020  0.37308694  1
  V  V14  1  0.62235150  0.74918373  0.86735467  1
  V  V15  1  0.12798445  0.63839537  0.49805962  1
  V  V16  1  0.75345772  0.88645786  0.61731706  1
  V  V17  1  -0.00214243  0.12456278  0.62609073  1
  V  V18  1  0.24956183  0.37486726  0.62763017  1
  V  V19  1  -0.00658160  0.00261460  -0.00650468  1
  V  V20  1  0.50318375  0.48554344  -0.00013642  1
  V  V21  1  0.62358996  0.62288282  -0.00140605  1
  V  V22  1  0.37697663  0.37728230  0.50239982  1
  V  V23  1  0.24930050  0.74555144  -0.00808989  1
  V  V24  1  0.62807450  0.49633606  0.12705637  1
  V  V25  1  0.49857281  0.01373399  0.00092163  1
  V  V26  1  0.00047952  0.12225193  0.12887229  1
  V  V27  1  -0.00171145  0.25591810  0.75019840  1
  V  V28  1  0.87068560  0.12368470  0.76374761  1
  V  V29  1  0.87583323  0.62622383  0.25881817  1
  V  V30  1  0.12538075  0.49816130  0.62321799  1
  V  V31  1  0.12107123  0.49617319  0.12472398  1
  V  V32  1  0.49806858  0.62316334  0.12081808  1
  V  V33  1  0.00086255  0.24612577  0.25334730  1
  V  V34  1  0.30985439  0.80592503  0.45252023  1
  V  V35  1  0.49736186  0.25362810  0.74253144  1
  V  V36  1  0.12768904  0.12937644  0.00093374  1
  V  V37  1  0.50133302  0.23706674  0.24832807  1
  V  V38  1  0.49630224  -0.01149227  0.48879641  1
  V  V39  1  0.38005626  0.75049931  0.64632515  1
  V  V40  1  0.62910977  0.50539749  0.61923417  1
  V  V41  1  0.24724618  0.62233402  0.38174786  1
  V  V42  1  0.37571360  0.00409298  0.87354770  1
  V  V43  1  0.62893248  0.24955527  0.38375846  1
  V  V44  1  0.37669883  0.87389935  -0.00366291  1
  V  V45  1  -0.00313446  0.62107305  0.12356498  1
  V  V46  1  0.62457870  0.87972531  0.74264857  1
  V  V47  1  0.75447729  0.50028679  0.25565627  1
  V  V48  1  0.12216658  0.62034320  -0.00103248  1
  V  V49  1  0.12507218  -0.00211597  0.63057819  1
  V  V50  1  0.61550395  0.74824065  0.37827133  1
  V  V51  1  0.87402692  0.75312649  0.61702358  1
  V  V52  1  0.00077225  0.62662216  0.63255239  1
  V  V53  1  0.74786776  0.62686695  0.38281174  1
  V  V54  1  0.62928410  0.37620994  0.75504039  1
  V  V55  1  0.88663820  0.49954737  0.88440927  1
  V  V56  1  0.87742640  0.12108730  0.25302906  1
  V  V57  1  0.74987443  0.00408290  0.76569846  1
  V  V58  1  0.61085670  0.86838192  0.24830596  1
  V  V59  1  0.36693324  0.36988841  0.00821261  1
  V  V60  1  0.37248449  0.23893060  0.12587030  1
  V  V61  1  0.24975985  0.49738328  0.24547362  1
  V  V62  1  0.45352432  0.40507274  0.83946883  1
  V  V63  1  -0.00172388  0.37658941  0.89301706  1
  V  V64  1  0.49930185  0.87345574  0.86897338  1
  V  V65  1  0.37196028  0.13157654  0.73838529  1
  V  V66  1  0.12824730  -0.00345311  0.12551485  1
  V  V67  1  0.11969129  0.75254351  0.87471846  1
  V  V68  1  0.12305360  0.12564050  0.50139526  1
  V  V69  1  0.12662769  0.25136934  0.87761160  1
  V  V70  1  0.87342318  0.75166472  0.12658336  1
  V  V71  1  0.37897562  0.62282034  0.24607049  1
  V  V72  1  0.12487205  0.24596919  0.37579268  1
  V  V73  1  0.75279411  0.25156055  -0.01016456  1
  V  V74  1  0.26355609  0.11959586  0.37649817  1
  V  V75  1  0.74752681  -0.00186020  0.25111671  1
  V  V76  1  0.87112467  0.24854098  0.62048550  1
  V  V77  1  0.87060899  0.88044922  -0.00869226  1
  V  V78  1  0.74602048  0.87621135  0.12547903  1
  V  V79  1  0.25575338  0.86940893  0.63110739  1
  V  V80  1  0.25694257  0.25025730  0.50406018  1
  V  V81  1  0.01591929  0.75770032  0.25012914  1
  V  V82  1  0.74907485  0.75069806  -0.00097603  1
  V  V83  1  0.87292598  0.25848365  0.12508764  1
  V  V84  1  0.50170790  0.51185325  0.49697294  1
  Zn  Zn85  1  -0.00935258  -0.01206317  0.50583985  1
  Zn  Zn86  1  -0.00493650  0.88037266  0.87116801  1
  Zn  Zn87  1  0.61747479  0.25311617  0.87605234  1
  Zn  Zn88  1  0.24622261  -0.02133358  0.27349059  1
  Zn  Zn89  1  0.62891699  0.37190298  0.25119649  1
  Zn  Zn90  1  0.12880851  0.37945882  0.75486336  1
  Zn  Zn91  1  0.75707133  0.49952975  0.74842408  1
  Zn  Zn92  1  -0.00471207  0.75642326  0.75058566  1
  Zn  Zn93  1  0.24672409  0.36648681  0.12925631  1
  Zn  Zn94  1  0.03344559  0.86337509  0.37791984  1
  Zn  Zn95  1  0.12640176  0.37293554  0.25277952  1
  Zn  Zn96  1  0.75478369  0.37637907  0.12449201  1
  Zn  Zn97  1  0.48345884  0.87081375  0.37109142  1
  Zn  Zn98  1  0.62989987  0.12238240  0.50639047  1
  Zn  Zn99  1  0.30324888  0.55748412  0.80799677  1
  Zn  Zn100  1  0.74885700  0.75477344  0.49836509  1
  Zn  Zn101  1  0.12298600  0.87582867  0.75363717  1
  Zn  Zn102  1  0.25051810  0.00080793  0.75146231  1
  Zn  Zn103  1  0.87668886  0.62567973  0.74927668  1
  Zn  Zn104  1  0.63132030  0.12601214  -0.00921932  1
  Zn  Zn105  1  0.37413622  0.49927434  0.37457327  1
  Zn  Zn106  1  0.38081568  0.10687318  0.25032519  1
  Zn  Zn107  1  0.19004367  0.18288745  0.19175067  1
  Zn  Zn108  1  0.18653985  0.19028802  0.68893985  1
  Zn  Zn109  1  0.19318896  0.68236643  0.18057558  1
  Zn  Zn110  1  0.19178255  0.68379394  0.69509343  1
  Zn  Zn111  1  0.69034471  0.18810792  0.19257385  1
  Zn  Zn112  1  0.68787084  0.18897819  0.69263065  1
  Zn  Zn113  1  0.68574632  0.68649639  0.19049746  1
  Zn  Zn114  1  0.68941004  0.69107111  0.68553873  1
  Zn  Zn115  1  0.31519120  0.30851726  0.31349811  1
  Zn  Zn116  1  0.30750150  0.30825035  0.80908329  1
  Zn  Zn117  1  0.30706424  0.80128255  0.29158481  1
  Zn  Zn118  1  0.30871208  0.81119050  0.81303941  1
  Zn  Zn119  1  0.81334078  0.31187129  0.31224682  1
  Zn  Zn120  1  0.81636119  0.31820431  0.81111650  1
  Zn  Zn121  1  0.80714415  0.80939489  0.30949545  1
  Zn  Zn122  1  0.81118458  0.81068102  0.80613060  1
  Zn  Zn123  1  0.18542597  0.44003751  0.43931317  1
  Zn  Zn124  1  0.19290895  0.43777380  0.94043849  1
  Zn  Zn125  1  0.18144187  0.94157359  0.44587175  1
  Zn  Zn126  1  0.18691091  0.93926748  0.93978117  1
  Zn  Zn127  1  0.68760033  0.43869140  0.43666621  1
  Zn  Zn128  1  0.69820692  0.43425572  0.94075156  1
  Zn  Zn129  1  0.67734150  0.94078824  0.43680397  1
  Zn  Zn130  1  0.68203840  0.93903456  0.93850415  1
  Zn  Zn131  1  0.31356011  0.06339688  0.06202952  1
  Zn  Zn132  1  0.31367115  0.05843283  0.56189286  1
  Zn  Zn133  1  0.32883258  0.57543068  0.00013371  1
  Zn  Zn134  1  0.29872053  0.58148109  0.59866634  1
  Zn  Zn135  1  0.80914272  0.06702658  0.06321017  1
  Zn  Zn136  1  0.81097865  0.06166173  0.56567444  1
  Zn  Zn137  1  0.81352005  0.56270159  0.06285424  1
  Zn  Zn138  1  0.81635586  0.56174364  0.56073065  1
  Zn  Zn139  1  0.43764481  0.43377774  0.18691934  1
  Zn  Zn140  1  0.43518121  0.44555957  0.67462583  1
  Zn  Zn141  1  0.43151797  0.93932553  0.18528945  1
  Zn  Zn142  1  0.43579666  0.94102660  0.68757099  1
  Zn  Zn143  1  0.93854529  0.43948996  0.19374787  1
  Zn  Zn144  1  0.93776936  0.44190336  0.69016951  1
  Zn  Zn145  1  0.93700173  0.93629511  0.18580816  1
  Zn  Zn146  1  0.93394417  0.93866433  0.69101928  1
  Zn  Zn147  1  0.07664064  0.03411402  0.32407954  1
  Zn  Zn148  1  0.05967244  0.06653907  0.81238086  1
  Zn  Zn149  1  0.06426450  0.56580595  0.31148145  1
  Zn  Zn150  1  0.10166346  0.54205823  0.82941794  1
  Zn  Zn151  1  0.56388732  0.05854446  0.31944648  1
  Zn  Zn152  1  0.56515248  0.06466089  0.81189403  1
  Zn  Zn153  1  0.56386833  0.56451777  0.31017656  1
  Zn  Zn154  1  0.56773242  0.55819448  0.81091641  1
  Zn  Zn155  1  0.44108419  0.19151307  0.44351432  1
  Zn  Zn156  1  0.44334956  0.19867113  0.92985889  1
  Zn  Zn157  1  0.43981004  0.68125015  0.43512484  1
  Zn  Zn158  1  0.43733018  0.68180913  0.91759624  1
  Zn  Zn159  1  0.93733440  0.18557352  0.43898530  1
  Zn  Zn160  1  0.93748288  0.19159370  0.94234527  1
  Zn  Zn161  1  0.93982989  0.69519981  0.43603247  1
  Zn  Zn162  1  0.93880225  0.68894011  0.93880272  1
  Zn  Zn163  1  0.06265239  0.30948344  0.06712320  1
  Zn  Zn164  1  0.06054090  0.31235415  0.56070897  1
  Zn  Zn165  1  0.05835527  0.81255708  0.06067498  1
  Zn  Zn166  1  0.06204482  0.81538220  0.56479236  1
  Zn  Zn167  1  0.56499117  0.30813818  0.06685781  1
  Zn  Zn168  1  0.56162455  0.31230102  0.56365509  1
  Zn  Zn169  1  0.56255372  0.81661989  0.05631338  1
  Zn  Zn170  1  0.56348323  0.81202590  0.56121234  1
  O  O171  1  0.12316411  0.12314664  0.11543726  1
  O  O172  1  0.11957140  0.12152749  0.62144832  1
  O  O173  1  0.11572141  0.61804503  0.11979214  1
  O  O174  1  0.11854509  0.61817973  0.61567739  1
  O  O175  1  0.62623935  0.11325276  0.12780604  1
  O  O176  1  0.61282047  0.12954131  0.62647165  1
  O  O177  1  0.61989742  0.61649675  0.11949991  1
  O  O178  1  0.61652250  0.61979960  0.62781083  1
  O  O179  1  0.38341643  0.37583202  0.38350580  1
  O  O180  1  0.36980132  0.36276551  0.89101678  1
  O  O181  1  0.36348275  0.85784223  0.38064559  1
  O  O182  1  0.38168480  0.88005997  0.87619265  1
  O  O183  1  0.88659135  0.36669076  0.38452282  1
  O  O184  1  0.88390114  0.39036778  0.87217477  1
  O  O185  1  0.87032655  0.88541221  0.37101986  1
  O  O186  1  0.87037790  0.87095200  0.88856155  1
  O  O187  1  0.25683869  0.01700592  0.38744978  1
  O  O188  1  0.25646181  0.01016941  0.87447486  1
  O  O189  1  0.25010604  0.50666138  0.36555089  1
  O  O190  1  0.21002881  0.50657851  0.85603755  1
  O  O191  1  0.75754074  0.00537468  0.37081681  1
  O  O192  1  0.74914514  -0.00221698  0.86482834  1
  O  O193  1  0.74177594  0.51023835  0.36357363  1
  O  O194  1  0.76241536  0.50691134  0.87451274  1
  O  O195  1  0.23996043  0.49793935  0.14012430  1
  O  O196  1  0.23619315  0.48446457  0.60717083  1
  O  O197  1  0.24165120  0.98681305  0.10737755  1
  O  O198  1  0.24458844  0.99016684  0.62688332  1
  O  O199  1  0.74471304  0.50111704  0.13366385  1
  O  O200  1  0.74476315  0.49292432  0.62366020  1
  O  O201  1  0.73975260  0.99507372  0.13031672  1
  O  O202  1  0.75057503  0.98909611  0.63312184  1
  O  O203  1  0.00158423  0.36758728  0.26093044  1
  O  O204  1  -0.00099351  0.36320861  0.75400318  1
  O  O205  1  -0.00037934  0.85998868  0.24629837  1
  O  O206  1  0.00383163  0.87506729  0.75381994  1
  O  O207  1  0.50052703  0.36983912  0.26374382  1
  O  O208  1  0.50809734  0.37335595  0.74273260  1
  O  O209  1  0.50737649  0.87644290  0.25036179  1
  O  O210  1  0.50965251  0.88426885  0.76075625  1
  O  O211  1  0.49763295  0.13339142  0.25961588  1
  O  O212  1  0.49362240  0.13285480  0.74020698  1
  O  O213  1  0.48665703  0.61593889  0.23947056  1
  O  O214  1  0.50171860  0.62106428  0.74026263  1
  O  O215  1  0.99330127  0.12479739  0.24789618  1
  O  O216  1  0.99175828  0.13607447  0.74566263  1
  O  O217  1  0.99299876  0.63333718  0.24372983  1
  O  O218  1  1.00396409  0.62657271  0.73480227  1
  O  O219  1  0.38664521  0.25534027  0.01785463  1
  O  O220  1  0.36692338  0.26104243  0.49856161  1
  O  O221  1  0.36681857  0.75152019  -0.00136374  1
  O  O222  1  0.37525736  0.75029630  0.50634177  1
  O  O223  1  0.86527652  0.24484213  0.01300802  1
  O  O224  1  0.88174931  0.25847730  0.51334699  1
  O  O225  1  0.86817926  0.75806438  0.00694638  1
  O  O226  1  0.87149362  0.74883482  0.51168614  1
  O  O227  1  0.12972257  0.23956878  0.49689237  1
  O  O228  1  0.11850707  0.23745137  0.99342977  1
  O  O229  1  0.12574147  0.73727628  0.50422069  1
  O  O230  1  0.12922694  0.74489311  0.99442617  1
  O  O231  1  0.62099626  0.24691811  0.48749827  1
  O  O232  1  0.63763768  0.25096872  0.99896798  1
  O  O233  1  0.62769290  0.75429129  0.48230121  1
  O  O234  1  0.63045843  0.74519242  0.98906794  1
  O  O235  1  0.49218803  0.25397475  0.13994421  1
  O  O236  1  0.50143352  0.24280859  0.63516590  1
  O  O237  1  0.48910072  0.74397574  0.11007601  1
  O  O238  1  0.50012102  0.74029378  0.62670538  1
  O  O239  1  0.99352203  0.24104686  0.13297589  1
  O  O240  1  0.99314281  0.24674107  0.63288270  1
  O  O241  1  0.99337430  0.74423082  0.13342202  1
  O  O242  1  0.99316509  0.74383138  0.62578755  1
  O  O243  1  0.00604473  0.25404886  0.37258220  1
  O  O244  1  0.00527866  0.25646613  0.86987520  1
  O  O245  1  0.00234574  0.75078592  0.35637853  1
  O  O246  1  0.00561707  0.75675079  0.87417444  1
  O  O247  1  0.50668570  0.25704556  0.37007358  1
  O  O248  1  0.49628157  0.27434536  0.85659515  1
  O  O249  1  0.51086462  0.75098747  0.37474614  1
  O  O250  1  0.51000014  0.75888336  0.87841166  1
  O  O251  1  0.24648498  0.13217181  0.49682502  1
  O  O252  1  0.24305480  0.12380968  0.98789387  1
  O  O253  1  0.24207923  0.61633715  0.49340018  1
  O  O254  1  0.23344805  0.63516719  1.01137922  1
  O  O255  1  0.74994310  0.12270657  0.48861865  1
  O  O256  1  0.74791253  0.14378808  1.00668579  1
  O  O257  1  0.75346117  0.62302019  0.48542074  1
  O  O258  1  0.74399412  0.62856801  0.98988364  1
  O  O259  1  0.26238121  0.37748136  0.00814755  1
  O  O260  1  0.25761652  0.36801729  0.50101183  1
  O  O261  1  0.25731624  0.86602353  0.00219725  1
  O  O262  1  0.25037028  0.87196250  0.50730654  1
  O  O263  1  0.75237059  0.35942985  0.00802917  1
  O  O264  1  0.76392562  0.38085437  0.50380213  1
  O  O265  1  0.75193771  0.87263473  0.00621717  1
  O  O266  1  0.74074626  0.87997442  0.51518954  1
  O  O267  1  0.13016122  0.49951724  0.24187863  1
  O  O268  1  0.10946416  0.49298476  0.72626256  1
  O  O269  1  0.13829846  1.01615948  0.22638748  1
  O  O270  1  0.12685625  1.00551198  0.73978231  1
  O  O271  1  0.63383379  0.50073315  0.24146884  1
  O  O272  1  0.62928877  0.49259508  0.73633365  1
  O  O273  1  0.62699191  0.99157124  0.24473003  1
  O  O274  1  0.63724376  0.99236978  0.75382291  1
  O  O275  1  0.35592301  -0.00268230  0.24064297  1
  O  O276  1  0.37403172  0.01310633  0.75754791  1
  O  O277  1  0.36711983  0.50525828  0.24953377  1
  O  O278  1  0.39153175  0.46808474  0.77701028  1
  O  O279  1  0.86888963  0.00456379  0.25675263  1
  O  O280  1  0.86138513  0.00986832  0.74918956  1
  O  O281  1  0.86629443  0.51259291  0.24729646  1
  O  O282  1  0.87497798  0.50705110  0.76102898  1
  O  O283  1  0.11402516  0.36625201  0.37893572  1
  O  O284  1  0.11653457  0.36579873  0.87622755  1
  O  O285  1  0.12391158  0.92807512  0.35282160  1
  O  O286  1  0.12170428  0.86647268  0.87755423  1
  O  O287  1  0.61915318  0.36761677  0.37423743  1
  O  O288  1  0.63725392  0.37628515  0.85862337  1
  O  O289  1  0.62407895  0.86384158  0.36415223  1
  O  O290  1  0.61853533  0.86820510  0.86825970  1
  O  O291  1  0.37504519  0.13492063  0.12766136  1
  O  O292  1  0.38156317  0.12332816  0.63541253  1
  O  O293  1  0.38074948  0.62843558  0.12053573  1
  O  O294  1  0.39824810  0.63724601  0.61635393  1
  O  O295  1  0.87835458  0.12842659  0.13965433  1
  O  O296  1  0.87803021  0.13344502  0.63023655  1
  O  O297  1  0.88031406  0.63078877  0.13237025  1
  O  O298  1  0.88337957  0.63197865  0.62418310  1
  O  O299  1  0.26689434  0.24800770  0.13250098  1
  O  O300  1  0.24251463  0.25729682  0.61104869  1
  O  O301  1  0.25753383  0.75442701  0.11158017  1
  O  O302  1  0.26165028  0.76140051  0.63030819  1
  O  O303  1  0.75975133  0.25265645  0.12622222  1
  O  O304  1  0.75646863  0.26120944  0.62697660  1
  O  O305  1  0.75237170  0.75425584  0.11863082  1
  O  O306  1  0.75547965  0.76096672  0.62102234  1
  O  O307  1  0.24386404  0.24369438  0.38679352  1
  O  O308  1  0.23471124  0.24412965  0.87266260  1
  O  O309  1  0.25669876  0.74517108  0.38592930  1
  O  O310  1  0.24028264  0.75123869  0.88552298  1
  O  O311  1  0.74171538  0.24026438  0.36843461  1
  O  O312  1  0.75573934  0.25604486  0.88781790  1
  O  O313  1  0.74107366  0.74350291  0.37715895  1
  O  O314  1  0.74504406  0.74278400  0.87988417  1
  O  O315  1  0.00462409  0.12009900  0.00832303  1
  O  O316  1  0.00800009  0.12367154  0.50823473  1
  O  O317  1  0.00439675  0.63164233  0.01678782  1
  O  O318  1  0.00600500  0.62058335  0.50148589  1
  O  O319  1  0.49590346  0.11554603  -0.00355465  1
  O  O320  1  0.50057650  0.12573410  0.51622425  1
  O  O321  1  0.50726106  0.60797126  0.00071225  1
  O  O322  1  0.50582176  0.61371916  0.49961546  1
  O  O323  1  0.49496873  0.38000229  0.49233584  1
  O  O324  1  0.49565194  0.37964981  1.00411040  1
  O  O325  1  0.50207255  0.88427896  0.49572224  1
  O  O326  1  0.49551929  0.88268086  0.98595278  1
  O  O327  1  0.99160792  0.38233312  0.49484088  1
  O  O328  1  0.99863599  0.36808421  0.99207258  1
  O  O329  1  1.01331282  0.87870211  0.48832898  1
  O  O330  1  0.98731507  0.88497528  1.00060173  1
  O  O331  1  0.50321917  0.49285087  0.38048290  1
  O  O332  1  0.51194328  0.48418355  0.88335691  1
  O  O333  1  0.49396972  0.99222880  0.38282369  1
  O  O334  1  0.49439681  0.99369792  0.88098573  1
  O  O335  1  1.00487700  0.49040303  0.37972817  1
  O  O336  1  0.99538011  0.49154188  0.87223780  1
  O  O337  1  0.97687931  1.00705528  0.37685744  1
  O  O338  1  1.00241580  1.00204399  0.88953889  1
  O  O339  1  0.00768926  0.00413918  0.11764525  1
  O  O340  1  0.00585250  0.00633022  0.62525303  1
  O  O341  1  0.00711562  0.50949703  0.13314996  1
  O  O342  1  0.00116402  0.50838319  0.61334634  1
  O  O343  1  0.50750202  -0.00851987  0.11257322  1
  O  O344  1  0.50244194  0.01485697  0.62671047  1
  O  O345  1  0.50995332  0.50113060  0.11917335  1
  O  O346  1  0.50788939  0.51342472  0.61745931  1
  O  O347  1  0.24757398  0.38241912  0.25352394  1
  O  O348  1  0.24670466  0.36737065  0.73195366  1
  O  O349  1  0.24360436  0.86886695  0.22836017  1
  O  O350  1  0.24515730  0.87993460  0.74444980  1
  O  O351  1  0.75110345  0.38630835  0.24922552  1
  O  O352  1  0.74631382  0.37754209  0.73817290  1
  O  O353  1  0.74105538  0.88051600  0.24246591  1
  O  O354  1  0.74485576  0.88677347  0.74460884  1
  O  O355  1  0.25221096  0.12841870  0.27236116  1
  O  O356  1  0.25699094  0.12784170  0.75903976  1
  O  O357  1  0.25777282  0.61872414  0.25606827  1
  O  O358  1  0.26949035  0.60668934  0.71045697  1
  O  O359  1  0.75780849  0.11667914  0.25910913  1
  O  O360  1  0.75480108  0.11234158  0.74640756  1
  O  O361  1  0.75802242  0.62054949  0.25679179  1
  O  O362  1  0.74835769  0.62408010  0.76336067  1
  O  O363  1  0.36520969  0.13325588  0.37753540  1
  O  O364  1  0.36823597  0.12734961  0.86933180  1
  O  O365  1  0.36694843  0.62348926  0.36403888  1
  O  O366  1  0.36061780  0.60843594  0.89393330  1
  O  O367  1  0.86803484  0.12440123  0.36640654  1
  O  O368  1  0.87964746  0.13256399  0.86233294  1
  O  O369  1  0.86737137  0.63342930  0.36466936  1
  O  O370  1  0.87080025  0.61893265  0.87413158  1
  O  O371  1  0.12607369  0.38130196  0.12925740  1
  O  O372  1  0.13139094  0.38031516  0.62006562  1
  O  O373  1  0.13269868  0.88506382  0.11078822  1
  O  O374  1  0.13433651  0.88327070  0.62896662  1
  O  O375  1  0.62713230  0.38681984  0.12989794  1
  O  O376  1  0.63385923  0.38061566  0.62874255  1
  O  O377  1  0.62828632  0.87950033  0.13053363  1
  O  O378  1  0.63559357  0.86802623  0.63748176  1
  O  O379  1  0.11867702  0.24857148  0.25769609  1
  O  O380  1  0.11454254  0.25117883  0.75915977  1
  O  O381  1  0.11409051  0.74490674  0.24039632  1
  O  O382  1  0.12588689  0.74669842  0.76537132  1
  O  O383  1  0.61698394  0.25097234  0.25905643  1
  O  O384  1  0.61756986  0.26134712  0.74867070  1
  O  O385  1  0.62816830  0.75939297  0.25864181  1
  O  O386  1  0.63273144  0.76027948  0.76216831  1
  O  O387  1  0.38382264  0.24538326  0.24184224  1
  O  O388  1  0.38212433  0.24292231  0.74984009  1
  O  O389  1  0.37284673  0.73461681  0.23028732  1
  O  O390  1  0.37795348  0.74798869  0.74633255  1
  O  O391  1  0.88106643  0.24025702  0.24613162  1
  O  O392  1  0.87865607  0.24610204  0.74042034  1
  O  O393  1  0.87745390  0.74297790  0.24227322  1
  O  O394  1  0.87512948  0.74524906  0.73642961  1
  O  O395  1  0.38841962  0.49261335  0.49562877  1
  O  O396  1  0.39041528  0.48175698  1.01035909  1
  O  O397  1  0.39811654  1.00464682  0.50908592  1
  O  O398  1  0.38164147  0.99479533  0.99405201  1
  O  O399  1  0.88741864  0.49166861  0.50031150  1
  O  O400  1  0.87618018  0.50630989  0.98420811  1
  O  O401  1  0.87159011  1.00097475  0.48739124  1
  O  O402  1  0.88131872  0.99357770  1.00887075  1
  O  O403  1  0.11689027  0.01260934  0.00411045  1
  O  O404  1  0.12519196  0.01441480  0.51672261  1
  O  O405  1  0.12789291  0.50741165  0.01531307  1
  O  O406  1  0.11150797  0.50493280  0.50522051  1
  O  O407  1  0.61669807  0.00379928  0.00851361  1
  O  O408  1  0.60536503  0.00754082  0.49633709  1
  O  O409  1  0.62373913  0.50061409  0.00751440  1
  O  O410  1  0.61764903  0.49225889  0.51254120  1
  O  O411  1  0.37271751  0.36208726  0.12321440  1
  O  O412  1  0.36587835  0.38062116  0.61064639  1
  O  O413  1  0.36927130  0.86339352  0.11395544  1
  O  O414  1  0.37036112  0.86537820  0.63186185  1
  O  O415  1  0.87918535  0.36130278  0.13288290  1
  O  O416  1  0.86875118  0.37005615  0.61934549  1
  O  O417  1  0.86530242  0.87048292  0.11828199  1
  O  O418  1  0.86032491  0.87078443  0.62841957  1
  O  O419  1  0.13258156  0.12500849  0.38671791  1
  O  O420  1  0.13071127  0.13135616  0.88075424  1
  O  O421  1  0.13841628  0.62258165  0.38114286  1
  O  O422  1  0.10772486  0.63653878  0.89397570  1
  O  O423  1  0.63493284  0.13129609  0.37603332  1
  O  O424  1  0.61136740  0.13903521  0.87844489  1
  O  O425  1  0.63211631  0.64044315  0.36488444  1
  O  O426  1  0.63128317  0.63018908  0.87835350  1
