# generated using pymatgen
data_V85Zn86O256
_symmetry_space_group_name_H-M   'P 1'
_cell_length_a   16.93336319
_cell_length_b   16.92860418
_cell_length_c   16.94367222
_cell_angle_alpha   90.01262812
_cell_angle_beta   89.98300429
_cell_angle_gamma   89.99882354
_symmetry_Int_Tables_number   1
_chemical_formula_structural   V85Zn86O256
_chemical_formula_sum   'V85 Zn86 O256'
_cell_volume   4857.04229697
_cell_formula_units_Z   1
loop_
 _symmetry_equiv_pos_site_id
 _symmetry_equiv_pos_as_xyz
  1  'x, y, z'
loop_
 _atom_site_type_symbol
 _atom_site_label
 _atom_site_symmetry_multiplicity
 _atom_site_fract_x
 _atom_site_fract_y
 _atom_site_fract_z
 _atom_site_occupancy
  V  V0  1  0.37626365  0.12339646  0.74975271  1
  V  V1  1  0.87681111  0.00153621  0.88180435  1
  V  V2  1  0.25327740  0.25074064  0.00012593  1
  V  V3  1  0.37312424  -0.00458853  0.38511101  1
  V  V4  1  0.25207084  0.37812962  0.62457564  1
  V  V5  1  0.35900189  0.61263220  0.26115803  1
  V  V6  1  0.50269929  0.25292931  0.74830313  1
  V  V7  1  0.25058112  0.12647058  0.37467762  1
  V  V8  1  0.25070791  0.00304577  0.24781488  1
  V  V9  1  0.75083507  -0.01154170  0.74709404  1
  V  V10  1  0.12608734  0.75274010  0.87461766  1
  V  V11  1  0.50004763  0.73978069  0.24806778  1
  V  V12  1  0.76051741  0.50883407  0.76516463  1
  V  V13  1  0.12174046  0.87053575  0.74801158  1
  V  V14  1  0.87559824  0.87267547  0.00842540  1
  V  V15  1  0.12403233  0.12509881  0.50061199  1
  V  V16  1  0.74819844  0.74048828  0.00753999  1
  V  V17  1  -0.00695495  0.49831670  0.00163392  1
  V  V18  1  0.50563316  0.86763152  0.86704772  1
  V  V19  1  0.37595791  0.75194649  0.61090565  1
  V  V20  1  0.12356224  0.62433800  0.00112565  1
  V  V21  1  0.86729694  0.86872717  0.51336067  1
  V  V22  1  0.00116665  0.50153039  0.49695843  1
  V  V23  1  0.63281598  0.73643442  0.87305316  1
  V  V24  1  0.73731397  0.37238776  0.12731991  1
  V  V25  1  0.25004762  0.50358957  0.75106905  1
  V  V26  1  0.25351988  0.87869443  0.12341779  1
  V  V27  1  -0.00559415  0.37342161  0.36684942  1
  V  V28  1  -0.00354492  0.63388468  0.12671639  1
  V  V29  1  0.50711399  0.62540526  0.61177782  1
  V  V30  1  0.37816797  0.73969489  0.12513096  1
  V  V31  1  0.37600745  0.12596320  0.25160407  1
  V  V32  1  0.50738956  0.25317547  0.25420173  1
  V  V33  1  0.12782838  0.49834812  0.12949718  1
  V  V34  1  0.50210199  -0.00533199  -0.00014925  1
  V  V35  1  0.38671004  0.63472401  0.75047519  1
  V  V36  1  -0.02153849  0.71844028  0.77247356  1
  V  V37  1  0.87188545  0.37396315  0.50281109  1
  V  V38  1  0.14172233  0.63041659  0.49316522  1
  V  V39  1  0.37864198  0.49974157  0.87535888  1
  V  V40  1  -0.00207619  0.23919993  0.24834999  1
  V  V41  1  0.87135218  0.63357799  0.24875723  1
  V  V42  1  0.11271270  0.12530312  0.00435751  1
  V  V43  1  0.25228377  0.25172159  0.49942782  1
  V  V44  1  0.37642581  0.25175720  0.62339938  1
  V  V45  1  0.37902243  0.25401349  0.12576627  1
  V  V46  1  0.74214949  0.74406172  0.51433150  1
  V  V47  1  0.15961081  0.39301611  0.26982516  1
  V  V48  1  0.87665784  0.24627940  0.12518526  1
  V  V49  1  0.62660802  -0.00607556  0.62510148  1
  V  V50  1  0.12444868  0.37927663  0.75089971  1
  V  V51  1  0.85744007  0.12238151  0.25245626  1
  V  V52  1  0.12559301  -0.00127836  0.62577087  1
  V  V53  1  0.50172561  0.12128837  0.12412801  1
  V  V54  1  0.62552374  0.25132862  0.87369923  1
  V  V55  1  0.62814229  0.87875834  0.24897868  1
  V  V56  1  0.11411976  0.00715491  0.12234700  1
  V  V57  1  0.62144243  0.51888509  0.12283820  1
  V  V58  1  -0.00949001  0.37737700  0.87598895  1
  V  V59  1  0.50495076  0.51191216  0.00143799  1
  V  V60  1  0.49506721  0.87039173  0.38008273  1
  V  V61  1  0.13669313  0.75030607  0.37546932  1
  V  V62  1  0.25062052  0.12188933  0.87499901  1
  V  V63  1  0.74788834  0.24450013  0.49647769  1
  V  V64  1  0.12176394  0.24776641  0.37481271  1
  V  V65  1  -0.00234571  -0.00095134  0.49902187  1
  V  V66  1  0.25186035  0.86763342  0.61299100  1
  V  V67  1  0.24871668  0.62607250  0.87300364  1
  V  V68  1  0.85658310  0.00093898  0.37353018  1
  V  V69  1  0.62563929  0.12002452  0.49158672  1
  V  V70  1  0.12582066  0.25240161  0.87636715  1
  V  V71  1  0.50526810  0.38721557  0.37360347  1
  V  V72  1  0.74959377  0.12414333  0.87029006  1
  V  V73  1  0.62639104  0.50133470  0.61507995  1
  V  V74  1  0.87150442  0.50381383  0.37337604  1
  V  V75  1  -0.00180293  0.25067918  0.74599062  1
  V  V76  1  0.38268396  0.38976652  0.49652701  1
  V  V77  1  0.12366562  0.87605583  0.24876988  1
  V  V78  1  0.74283092  0.49746232  0.25011453  1
  V  V79  1  0.25049506  0.75143776  0.00011825  1
  V  V80  1  -0.00860904  0.63746348  0.61626262  1
  V  V81  1  0.12462225  0.50548575  0.62384137  1
  V  V82  1  0.00224104  0.88497193  0.88071709  1
  V  V83  1  -0.00369963  0.87353432  0.37433687  1
  V  V84  1  0.74957290  0.24953411  -0.00087066  1
  Zn  Zn85  1  0.75655251  0.87764933  0.12954191  1
  Zn  Zn86  1  -0.00496387  0.75414280  0.24767231  1
  Zn  Zn87  1  0.62541621  0.12212123  -0.00061782  1
  Zn  Zn88  1  0.87029173  0.24541542  0.62486332  1
  Zn  Zn89  1  0.25207775  -0.00565205  0.75057942  1
  Zn  Zn90  1  0.62321933  0.74401428  0.38072130  1
  Zn  Zn91  1  0.49726765  -0.00460386  0.50413932  1
  Zn  Zn92  1  0.62837977  0.38063268  0.74939678  1
  Zn  Zn93  1  0.50276416  0.37754764  0.87678291  1
  Zn  Zn94  1  0.37786800  -0.00501940  0.87332652  1
  Zn  Zn95  1  -0.00107604  0.12500328  0.62549679  1
  Zn  Zn96  1  0.50189637  0.12267316  0.62289312  1
  Zn  Zn97  1  0.37839647  0.37772489  -0.00058474  1
  Zn  Zn98  1  0.74763032  0.37600557  0.62741115  1
  Zn  Zn99  1  0.73759510  0.62458979  0.38391385  1
  Zn  Zn100  1  0.87084292  0.37727084  0.00167733  1
  Zn  Zn101  1  0.62778809  0.86365275  0.74318954  1
  Zn  Zn102  1  0.25422193  0.38315698  0.12173568  1
  Zn  Zn103  1  0.37833091  0.87324763  -0.00244067  1
  Zn  Zn104  1  0.63609498  0.00088550  0.12907393  1
  Zn  Zn105  1  0.62777055  0.24996075  0.37300333  1
  Zn  Zn106  1  0.87626963  0.12293413  0.74639501  1
  Zn  Zn107  1  0.18780644  0.19636672  0.18821907  1
  Zn  Zn108  1  0.18680874  0.18904106  0.68809596  1
  Zn  Zn109  1  0.18653765  0.68947546  0.18929982  1
  Zn  Zn110  1  0.18602117  0.68900088  0.68569517  1
  Zn  Zn111  1  0.68523958  0.18634781  0.18613951  1
  Zn  Zn112  1  0.68753558  0.18336240  0.68132874  1
  Zn  Zn113  1  0.68988220  0.69275531  0.19090949  1
  Zn  Zn114  1  0.69311367  0.68265208  0.69095349  1
  Zn  Zn115  1  0.31345384  0.32535794  0.31558349  1
  Zn  Zn116  1  0.31372417  0.31362226  0.81164189  1
  Zn  Zn117  1  0.31520885  0.81191918  0.30804919  1
  Zn  Zn118  1  0.31361729  0.81459124  0.80931840  1
  Zn  Zn119  1  0.80889069  0.31311859  0.31246367  1
  Zn  Zn120  1  0.81083332  0.31712769  0.80756788  1
  Zn  Zn121  1  0.80684273  0.81075344  0.32237025  1
  Zn  Zn122  1  0.81209613  0.80974775  0.82019188  1
  Zn  Zn123  1  0.19190148  0.44106367  0.43799466  1
  Zn  Zn124  1  0.18580095  0.43842461  0.93985484  1
  Zn  Zn125  1  0.18640886  0.93628995  0.43602320  1
  Zn  Zn126  1  0.18784069  0.94195132  0.94006199  1
  Zn  Zn127  1  0.68616796  0.43723142  0.43839495  1
  Zn  Zn128  1  0.68726016  0.43875748  0.93900578  1
  Zn  Zn129  1  0.68220698  0.92651835  0.44049940  1
  Zn  Zn130  1  0.68778436  0.93406315  0.94074702  1
  Zn  Zn131  1  0.31574567  0.06307122  0.05990995  1
  Zn  Zn132  1  0.30907633  0.06219602  0.56555387  1
  Zn  Zn133  1  0.31275451  0.56295850  0.06184095  1
  Zn  Zn134  1  0.31504993  0.56676571  0.56410338  1
  Zn  Zn135  1  0.81123857  0.06164013  0.06318510  1
  Zn  Zn136  1  0.81095269  0.06212017  0.56349731  1
  Zn  Zn137  1  0.81201648  0.56209617  0.06608153  1
  Zn  Zn138  1  0.80956480  0.56196375  0.56690376  1
  Zn  Zn139  1  0.44317120  0.43998185  0.18978178  1
  Zn  Zn140  1  0.44192129  0.44162979  0.68705720  1
  Zn  Zn141  1  0.43963869  0.93458420  0.19187150  1
  Zn  Zn142  1  0.43895020  0.93534858  0.68647598  1
  Zn  Zn143  1  0.93338660  0.43724910  0.18526898  1
  Zn  Zn144  1  0.93668656  0.44318075  0.68550897  1
  Zn  Zn145  1  0.93453556  0.94314507  0.19022951  1
  Zn  Zn146  1  0.93934741  0.93724439  0.69234416  1
  Zn  Zn147  1  0.05863423  0.06049248  0.31136580  1
  Zn  Zn148  1  0.06463577  0.06391681  0.81181012  1
  Zn  Zn149  1  0.06172380  0.56653947  0.31266416  1
  Zn  Zn150  1  0.04808560  0.56548953  0.81635704  1
  Zn  Zn151  1  0.55971330  0.05957442  0.31477497  1
  Zn  Zn152  1  0.56369943  0.06028206  0.81123144  1
  Zn  Zn153  1  0.56128050  0.56552008  0.30818494  1
  Zn  Zn154  1  0.56749736  0.56153551  0.80770880  1
  Zn  Zn155  1  0.44095709  0.18714688  0.43838758  1
  Zn  Zn156  1  0.43977813  0.18586573  0.93703561  1
  Zn  Zn157  1  0.43450960  0.68084383  0.43192615  1
  Zn  Zn158  1  0.44032943  0.68967773  0.93725038  1
  Zn  Zn159  1  0.93281656  0.18366739  0.43747158  1
  Zn  Zn160  1  0.93458961  0.19130885  0.93400898  1
  Zn  Zn161  1  0.93544907  0.69045845  0.43769070  1
  Zn  Zn162  1  0.93522617  0.69049246  0.94199352  1
  Zn  Zn163  1  0.06421675  0.31481367  0.06880906  1
  Zn  Zn164  1  0.06164999  0.31703236  0.56086044  1
  Zn  Zn165  1  0.06326526  0.81689728  0.06171621  1
  Zn  Zn166  1  0.06023538  0.80982295  0.55979652  1
  Zn  Zn167  1  0.55977956  0.31575562  0.05686921  1
  Zn  Zn168  1  0.56355014  0.31309300  0.56047173  1
  Zn  Zn169  1  0.56568263  0.80873583  0.06252729  1
  Zn  Zn170  1  0.55915807  0.81076234  0.56505941  1
  O  O171  1  0.13196411  0.11998003  0.11607478  1
  O  O172  1  0.12593135  0.11567932  0.61986063  1
  O  O173  1  0.11721329  0.61913434  0.12147838  1
  O  O174  1  0.12490797  0.62240243  0.60874638  1
  O  O175  1  0.61216044  0.12219215  0.12384364  1
  O  O176  1  0.62336413  0.11211341  0.61534087  1
  O  O177  1  0.62744105  0.61691172  0.12491909  1
  O  O178  1  0.61242131  0.62031345  0.62862258  1
  O  O179  1  0.38727079  0.36942875  0.39067300  1
  O  O180  1  0.37452117  0.39104519  0.87233655  1
  O  O181  1  0.38029480  0.88507968  0.36842398  1
  O  O182  1  0.38911422  0.87280967  0.87503122  1
  O  O183  1  0.87698661  0.38401452  0.38248398  1
  O  O184  1  0.88786354  0.36703403  0.88048721  1
  O  O185  1  0.88002786  0.88501750  0.37913359  1
  O  O186  1  0.88492364  0.88306944  0.88205535  1
  O  O187  1  0.25435251  0.00506141  0.36858333  1
  O  O188  1  0.25432167  0.00901553  0.87218151  1
  O  O189  1  0.23792870  0.43081128  0.33546334  1
  O  O190  1  0.25681055  0.50726495  0.87237291  1
  O  O191  1  0.75900829  -0.00765600  0.37790698  1
  O  O192  1  0.75529441  0.00734871  0.87062561  1
  O  O193  1  0.75489932  0.50123827  0.36748138  1
  O  O194  1  0.74992180  0.49627075  0.86575007  1
  O  O195  1  0.23350921  0.50003679  0.11800296  1
  O  O196  1  0.24539062  0.49750430  0.63094676  1
  O  O197  1  0.24769973  0.99531884  0.12867794  1
  O  O198  1  0.24004360  0.99123792  0.62742606  1
  O  O199  1  0.73960007  0.49324348  0.12895143  1
  O  O200  1  0.73708971  0.50014863  0.62921479  1
  O  O201  1  0.74918112  0.99245709  0.12359116  1
  O  O202  1  0.74294848  1.00308120  0.63714220  1
  O  O203  1  -0.01023063  0.36647573  0.26165688  1
  O  O204  1  0.00485978  0.37273928  0.75739555  1
  O  O205  1  0.00408240  0.87547262  0.25713794  1
  O  O206  1  0.01312663  0.87666722  0.75802195  1
  O  O207  1  0.49203218  0.36653119  0.26476456  1
  O  O208  1  0.49978807  0.36313429  0.75335946  1
  O  O209  1  0.50400970  0.86534295  0.25945923  1
  O  O210  1  0.50402090  0.87692150  0.76441865  1
  O  O211  1  0.49429477  0.13005377  0.24360253  1
  O  O212  1  0.49168885  0.13502128  0.75012181  1
  O  O213  1  0.48736744  0.63682563  0.24932779  1
  O  O214  1  0.48830478  0.62294594  0.74343805  1
  O  O215  1  0.98904325  0.13591756  0.25693306  1
  O  O216  1  1.00174605  0.13709431  0.74898498  1
  O  O217  1  0.99136145  0.62723186  0.24275482  1
  O  O218  1  1.02085172  0.62463501  0.71999420  1
  O  O219  1  0.37141177  0.25207221  0.00545117  1
  O  O220  1  0.36997756  0.25319982  0.50814217  1
  O  O221  1  0.36860654  0.75119273  0.00751187  1
  O  O222  1  0.37432150  0.74466679  0.51265648  1
  O  O223  1  0.86839449  0.25004438  0.00920915  1
  O  O224  1  0.86819924  0.25707676  0.49925695  1
  O  O225  1  0.86334865  0.76029677  -0.00726480  1
  O  O226  1  0.87065956  0.76437136  0.49903772  1
  O  O227  1  0.13001959  0.24666094  0.49461153  1
  O  O228  1  0.13451414  0.24591094  0.99818111  1
  O  O229  1  0.12268060  0.74073989  0.49035329  1
  O  O230  1  0.13082714  0.74543326  0.99500237  1
  O  O231  1  0.63053134  0.23924809  0.50049944  1
  O  O232  1  0.63015495  0.24632359  0.99040436  1
  O  O233  1  0.63872469  0.75661947  0.50240065  1
  O  O234  1  0.63968907  0.75492008  0.99158185  1
  O  O235  1  0.49483063  0.24417940  0.12892591  1
  O  O236  1  0.49451267  0.24736390  0.63248041  1
  O  O237  1  0.48731283  0.75778396  0.13286944  1
  O  O238  1  0.48856933  0.73920376  0.62484739  1
  O  O239  1  0.99037059  0.25620111  0.13701410  1
  O  O240  1  1.00420166  0.25262703  0.63749827  1
  O  O241  1  1.00508031  0.73768804  0.12519980  1
  O  O242  1  1.00004444  0.73965141  0.62921421  1
  O  O243  1  -0.00011217  0.25546363  0.37003414  1
  O  O244  1  0.00657645  0.25755858  0.86546443  1
  O  O245  1  0.00348096  0.76382089  0.37450950  1
  O  O246  1  0.00995042  0.76912270  0.87339619  1
  O  O247  1  0.50121336  0.25547352  0.36664202  1
  O  O248  1  0.50843436  0.25000293  0.86758195  1
  O  O249  1  0.49509188  0.75536392  0.36610987  1
  O  O250  1  0.51280419  0.76140950  0.88298256  1
  O  O251  1  0.24325808  0.13105291  0.49536017  1
  O  O252  1  0.24932593  0.13107127  0.98746666  1
  O  O253  1  0.24066590  0.61836629  0.49436323  1
  O  O254  1  0.24402688  0.63109918  0.99256256  1
  O  O255  1  0.74081319  0.13270348  0.50226587  1
  O  O256  1  0.74887359  0.13098863  0.98678673  1
  O  O257  1  0.75954891  0.64038439  0.50108392  1
  O  O258  1  0.75944193  0.64113746  1.00421479  1
  O  O259  1  0.25352584  0.36529261  0.00223467  1
  O  O260  1  0.26195836  0.37182796  0.50563173  1
  O  O261  1  0.25275877  0.87113795  0.00690151  1
  O  O262  1  0.24477347  0.87658579  0.51405056  1
  O  O263  1  0.75106513  0.36745100  0.00855737  1
  O  O264  1  0.75792670  0.37052342  0.50394064  1
  O  O265  1  0.76168321  0.86790561  -0.00054860  1
  O  O266  1  0.76182523  0.86582102  0.49989707  1
  O  O267  1  0.11944022  0.49234295  0.24509984  1
  O  O268  1  0.12994481  0.49677553  0.74670621  1
  O  O269  1  0.13202988  0.99720435  0.24381513  1
  O  O270  1  0.12742187  0.99296967  0.74097205  1
  O  O271  1  0.63112962  0.50202979  0.23464003  1
  O  O272  1  0.63419353  0.49921933  0.74127273  1
  O  O273  1  0.61610837  0.98299070  0.25038377  1
  O  O274  1  0.63438021  0.99953877  0.74292115  1
  O  O275  1  0.36871499  0.00741187  0.25622279  1
  O  O276  1  0.37269570  0.00965782  0.75077907  1
  O  O277  1  0.37342503  0.51495620  0.23800774  1
  O  O278  1  0.37010333  0.50964695  0.75538319  1
  O  O279  1  0.87609696  0.00737020  0.26463849  1
  O  O280  1  0.86842661  0.00016225  0.76132616  1
  O  O281  1  0.86790450  0.50602062  0.25748888  1
  O  O282  1  0.86083386  0.49595658  0.74770553  1
  O  O283  1  0.10983463  0.36675487  0.37132779  1
  O  O284  1  0.12013023  0.36878347  0.87068225  1
  O  O285  1  0.11588310  0.87171074  0.36974870  1
  O  O286  1  0.12170020  0.87510581  0.86948273  1
  O  O287  1  0.60901288  0.37151625  0.38293849  1
  O  O288  1  0.62515780  0.36123354  0.87268299  1
  O  O289  1  0.61393917  0.86900631  0.36536043  1
  O  O290  1  0.61565778  0.86887795  0.87353182  1
  O  O291  1  0.38503061  0.13365617  0.12810135  1
  O  O292  1  0.37188009  0.13136249  0.63676320  1
  O  O293  1  0.36729182  0.63761296  0.12955977  1
  O  O294  1  0.38151900  0.63261187  0.63243718  1
  O  O295  1  0.86979049  0.13758584  0.13494750  1
  O  O296  1  0.88110147  0.12681388  0.62738190  1
  O  O297  1  0.88513046  0.61819846  0.13683370  1
  O  O298  1  0.89379063  0.62105466  0.61877894  1
  O  O299  1  0.26242719  0.23949958  0.10842623  1
  O  O300  1  0.25524113  0.25847711  0.62055559  1
  O  O301  1  0.25344500  0.76000744  0.11948378  1
  O  O302  1  0.26359162  0.75415104  0.62780160  1
  O  O303  1  0.75363788  0.25498192  0.12067517  1
  O  O304  1  0.75044800  0.25445648  0.61317079  1
  O  O305  1  0.74616892  0.75805855  0.11226852  1
  O  O306  1  0.74864655  0.74896014  0.61471716  1
  O  O307  1  0.24454137  0.24602996  0.38181945  1
  O  O308  1  0.24799664  0.24514383  0.88334248  1
  O  O309  1  0.23567791  0.76111058  0.37202457  1
  O  O310  1  0.24522452  0.74661404  0.87946018  1
  O  O311  1  0.74584923  0.25796649  0.38984480  1
  O  O312  1  0.74474241  0.24367839  0.87645940  1
  O  O313  1  0.74694635  0.74597451  0.39156689  1
  O  O314  1  0.73952816  0.75051520  0.88625276  1
  O  O315  1  0.01409302  0.13402460  -0.00561262  1
  O  O316  1  0.00705698  0.11770277  0.50056139  1
  O  O317  1  0.00299157  0.61808002  0.00919548  1
  O  O318  1  0.00697113  0.62157776  0.50428654  1
  O  O319  1  0.50076926  0.11695889  0.00769804  1
  O  O320  1  0.50893211  0.12000036  0.50277951  1
  O  O321  1  0.49349289  0.61174279  0.00097786  1
  O  O322  1  0.49491292  0.62438687  0.51383999  1
  O  O323  1  0.48951359  0.37246217  0.49122280  1
  O  O324  1  0.49643708  0.38757755  0.99487834  1
  O  O325  1  0.50180709  0.87420667  0.48465310  1
  O  O326  1  0.50006230  0.88039556  0.99274335  1
  O  O327  1  0.99341690  0.37955510  0.48727393  1
  O  O328  1  1.00099899  0.38080223  0.99464160  1
  O  O329  1  0.99017872  0.87924468  0.49366793  1
  O  O330  1  0.99322845  0.87314920  0.99049465  1
  O  O331  1  0.50029029  0.48553483  0.36724775  1
  O  O332  1  0.49424836  0.50119653  0.87985354  1
  O  O333  1  0.48784137  0.99128233  0.37653645  1
  O  O334  1  0.50157874  0.98907894  0.88164309  1
  O  O335  1  0.99171249  0.49268310  0.37707756  1
  O  O336  1  1.00841732  0.48663026  0.88863781  1
  O  O337  1  0.99782029  0.98886866  0.38191546  1
  O  O338  1  0.99389065  0.99348620  0.87060245  1
  O  O339  1  0.01520577  0.00006902  0.13035392  1
  O  O340  1  0.01224917  -0.00163562  0.61954489  1
  O  O341  1  0.00856970  0.50505648  0.12060041  1
  O  O342  1  0.00854963  0.50472962  0.61405132  1
  O  O343  1  0.49814499  0.00697155  0.11877909  1
  O  O344  1  0.50663553  0.00229386  0.62343143  1
  O  O345  1  0.51564742  0.49633869  0.11904002  1
  O  O346  1  0.51052664  0.51461155  0.62961371  1
  O  O347  1  0.23950179  0.33382156  0.22715224  1
  O  O348  1  0.24590388  0.38220743  0.74392779  1
  O  O349  1  0.24356580  0.88191534  0.24114848  1
  O  O350  1  0.23652002  0.87307480  0.74347212  1
  O  O351  1  0.75426413  0.38886949  0.24315104  1
  O  O352  1  0.74703850  0.38410478  0.74422197  1
  O  O353  1  0.73157593  0.86508517  0.25180451  1
  O  O354  1  0.74876133  0.88578941  0.75834579  1
  O  O355  1  0.25539988  0.12420684  0.25549399  1
  O  O356  1  0.25560999  0.12739220  0.76129783  1
  O  O357  1  0.25923969  0.62764105  0.24954222  1
  O  O358  1  0.25583018  0.62077893  0.75480348  1
  O  O359  1  0.75796240  0.13056688  0.25459317  1
  O  O360  1  0.75103397  0.11974903  0.76034668  1
  O  O361  1  0.75734893  0.61386857  0.24782399  1
  O  O362  1  0.75298921  0.60960545  0.75225023  1
  O  O363  1  0.36904048  0.11877526  0.37094201  1
  O  O364  1  0.36902541  0.12573025  0.86432820  1
  O  O365  1  0.37092062  0.62024671  0.36137975  1
  O  O366  1  0.37230742  0.61933339  0.86588451  1
  O  O367  1  0.87479572  0.10811213  0.37121849  1
  O  O368  1  0.86798880  0.11870128  0.87217951  1
  O  O369  1  0.87630661  0.61350801  0.36933255  1
  O  O370  1  0.94869674  0.63961656  0.84229000  1
  O  O371  1  0.12574095  0.38554944  0.13900227  1
  O  O372  1  0.13084785  0.38489356  0.62895680  1
  O  O373  1  0.13516283  0.88387362  0.12734941  1
  O  O374  1  0.12891050  0.87716404  0.63061590  1
  O  O375  1  0.63554537  0.37250184  0.12512122  1
  O  O376  1  0.62011068  0.39019295  0.62591146  1
  O  O377  1  0.61989274  0.87671121  0.14073107  1
  O  O378  1  0.61847786  0.88769200  0.62782402  1
  O  O379  1  0.11216115  0.25166231  0.25921453  1
  O  O380  1  0.12061787  0.25885150  0.75605420  1
  O  O381  1  0.11976784  0.75921127  0.25589031  1
  O  O382  1  0.11599354  0.75384285  0.75776351  1
  O  O383  1  0.61121851  0.24640210  0.25132689  1
  O  O384  1  0.61760686  0.24951980  0.75395758  1
  O  O385  1  0.61270954  0.75740126  0.24890965  1
  O  O386  1  0.63369801  0.74939973  0.76680653  1
  O  O387  1  0.38376782  0.24481218  0.24236246  1
  O  O388  1  0.38120290  0.24511429  0.74427408  1
  O  O389  1  0.37957799  0.74350454  0.24179655  1
  O  O390  1  0.37140082  0.73649230  0.74553034  1
  O  O391  1  0.87763116  0.24209439  0.24742458  1
  O  O392  1  0.88541815  0.24985541  0.74720144  1
  O  O393  1  0.87363373  0.73734870  0.25771004  1
  O  O394  1  0.88967036  0.75918660  0.75182800  1
  O  O395  1  0.37241655  0.48787438  0.50215381  1
  O  O396  1  0.38038275  0.50028432  0.99108785  1
  O  O397  1  0.37218089  1.00422441  0.48851550  1
  O  O398  1  0.38799389  0.99766950  0.99628115  1
  O  O399  1  0.87825038  0.49395472  0.49161838  1
  O  O400  1  0.88860043  0.49695068  1.00772205  1
  O  O401  1  0.87656561  0.99214204  0.48978890  1
  O  O402  1  0.87292413  0.99424642  0.98693716  1
  O  O403  1  0.12992205  0.01317847  0.00972634  1
  O  O404  1  0.11997771  0.00412064  0.50702392  1
  O  O405  1  0.11554023  0.50528722  0.00832313  1
  O  O406  1  0.12137167  0.50747364  0.49919897  1
  O  O407  1  0.61348321  0.00132185  0.00255708  1
  O  O408  1  0.62554887  0.00308963  0.50629704  1
  O  O409  1  0.62052905  0.49774689  0.01367328  1
  O  O410  1  0.62985045  0.50251170  0.51552675  1
  O  O411  1  0.37584440  0.36349733  0.12493066  1
  O  O412  1  0.37489959  0.37243555  0.61547150  1
  O  O413  1  0.36269961  0.87002840  0.12664259  1
  O  O414  1  0.36878636  0.85952381  0.63134931  1
  O  O415  1  0.86437606  0.36271297  0.12576954  1
  O  O416  1  0.87998265  0.37350775  0.60970119  1
  O  O417  1  0.88140409  0.87865937  0.11195775  1
  O  O418  1  0.87915397  0.88307937  0.61050738  1
  O  O419  1  0.12980130  0.12860808  0.37970110  1
  O  O420  1  0.13381548  0.13173385  0.88083544  1
  O  O421  1  0.11921463  0.63656608  0.38209375  1
  O  O422  1  0.12789659  0.63129503  0.88228384  1
  O  O423  1  0.62072223  0.12432127  0.38741071  1
  O  O424  1  0.63176931  0.13435438  0.87423424  1
  O  O425  1  0.62489306  0.63019859  0.36987624  1
  O  O426  1  0.61648763  0.63898503  0.87814081  1
