# generated using pymatgen
data_V85Zn86O256
_symmetry_space_group_name_H-M   'P 1'
_cell_length_a   16.94647829
_cell_length_b   16.94723718
_cell_length_c   16.94784997
_cell_angle_alpha   89.92663617
_cell_angle_beta   89.96017033
_cell_angle_gamma   89.90170214
_symmetry_Int_Tables_number   1
_chemical_formula_structural   V85Zn86O256
_chemical_formula_sum   'V85 Zn86 O256'
_cell_volume   4867.34217439
_cell_formula_units_Z   1
loop_
 _symmetry_equiv_pos_site_id
 _symmetry_equiv_pos_as_xyz
  1  'x, y, z'
loop_
 _atom_site_type_symbol
 _atom_site_label
 _atom_site_symmetry_multiplicity
 _atom_site_fract_x
 _atom_site_fract_y
 _atom_site_fract_z
 _atom_site_occupancy
  V  V0  1  0.37487179  0.25196113  0.62679606  1
  V  V1  1  0.37273267  0.74670891  0.62270906  1
  V  V2  1  0.86858859  0.12513268  0.26363474  1
  V  V3  1  0.67572121  0.56118693  0.06739820  1
  V  V4  1  0.12871301  0.62818405  -0.00808617  1
  V  V5  1  0.12169490  0.50386507  0.62320571  1
  V  V6  1  0.00539740  0.87667245  0.88006652  1
  V  V7  1  0.12448008  0.37567176  0.76287260  1
  V  V8  1  0.10724645  0.64328196  0.48564978  1
  V  V9  1  0.37707677  0.12191775  0.24797067  1
  V  V10  1  0.87134700  0.62411248  0.75650470  1
  V  V11  1  0.38016939  0.76028832  0.11745761  1
  V  V12  1  0.74168043  0.24880951  -0.00319817  1
  V  V13  1  0.37497486  0.37608596  0.00047767  1
  V  V14  1  0.37353234  0.37924171  0.49961595  1
  V  V15  1  0.74299195  0.12683100  0.87446145  1
  V  V16  1  0.12614392  0.38269396  0.25016447  1
  V  V17  1  0.51490058  0.87633180  0.87369057  1
  V  V18  1  0.25240049  0.49794363  0.23703822  1
  V  V19  1  0.37323453  0.50078236  0.37343902  1
  V  V20  1  0.00397188  0.00153595  0.00275298  1
  V  V21  1  0.49763625  0.12348645  0.62623498  1
  V  V22  1  0.62551147  0.49851716  0.62022193  1
  V  V23  1  0.63181929  0.24607399  0.37486642  1
  V  V24  1  0.24098701  0.14082745  0.88805676  1
  V  V25  1  0.25164600  0.12852982  0.37270920  1
  V  V26  1  0.25139943  0.51595663  0.75006696  1
  V  V27  1  0.62314727  0.74727669  0.38232480  1
  V  V28  1  0.62671606  0.72849686  0.87748372  1
  V  V29  1  -0.00386306  0.75775151  0.74962408  1
  V  V30  1  0.37321633  0.51302928  0.87095713  1
  V  V31  1  0.24531152  0.87381818  0.63735109  1
  V  V32  1  0.24737251  0.87665737  0.12598158  1
  V  V33  1  -0.00309513  0.50085035  0.50294186  1
  V  V34  1  0.37602478  0.62705173  0.24706798  1
  V  V35  1  0.50214063  0.37022805  0.87540641  1
  V  V36  1  0.63092724  0.12162394  0.49819915  1
  V  V37  1  0.00185090  0.12332837  0.12214070  1
  V  V38  1  0.74603139  0.50620848  0.25147159  1
  V  V39  1  0.62772251  -0.00843373  0.63067150  1
  V  V40  1  0.00438093  0.49646621  -0.00736933  1
  V  V41  1  0.89111557  0.24569398  0.62071652  1
  V  V42  1  -0.00286229  0.64133342  0.12634345  1
  V  V43  1  0.22252326  0.77755763  0.47098356  1
  V  V44  1  0.49952931  0.62034997  0.11789830  1
  V  V45  1  0.87198716  0.24954654  0.12396853  1
  V  V46  1  0.87725309  0.50221534  0.37076106  1
  V  V47  1  0.25588648  0.75442799  -0.00711360  1
  V  V48  1  0.38124258  0.25128439  0.12010530  1
  V  V49  1  0.21896649  0.33617153  0.09825969  1
  V  V50  1  0.24791152  0.38044291  0.62657535  1
  V  V51  1  0.50119611  -0.00486710  0.00433442  1
  V  V52  1  0.13112800  0.75395838  0.86595967  1
  V  V53  1  0.77706624  0.87157051  0.12540244  1
  V  V54  1  0.49660732  0.75183600  0.25024373  1
  V  V55  1  0.74350802  0.62627930  0.39247030  1
  V  V56  1  0.86788817  -0.01574957  0.38294390  1
  V  V57  1  0.88065603  0.36918043  -0.01221585  1
  V  V58  1  0.00687310  0.25092458  0.76608503  1
  V  V59  1  0.75066193  -0.00711432  0.75087731  1
  V  V60  1  0.37441837  0.87927132  0.49953114  1
  V  V61  1  0.12694594  0.24793723  0.37315045  1
  V  V62  1  0.87645996  -0.00211687  0.88091977  1
  V  V63  1  0.24158856  -0.00154742  0.75669378  1
  V  V64  1  0.62428971  0.38005331  0.24367483  1
  V  V65  1  -0.00090602  0.37729139  0.37343143  1
  V  V66  1  0.50295358  0.24889613  0.25251557  1
  V  V67  1  0.74969842  0.49555613  0.75779574  1
  V  V68  1  0.86140479  0.86231037  0.51153291  1
  V  V69  1  0.49577663  -0.00247479  0.50280506  1
  V  V70  1  0.50203613  0.50782694  0.49796343  1
  V  V71  1  0.49603451  0.62311387  0.62894658  1
  V  V72  1  0.12423799  -0.00085090  0.12769180  1
  V  V73  1  -0.00599645  0.63497101  0.62556212  1
  V  V74  1  0.62574769  0.87693328  0.24495304  1
  V  V75  1  0.24167767  0.62738277  0.37232340  1
  V  V76  1  0.74868816  0.36721456  0.62389499  1
  V  V77  1  0.87321177  0.37393740  0.49905316  1
  V  V78  1  0.25160024  0.25553207  0.49808797  1
  V  V79  1  0.37260803  0.12379969  0.75594068  1
  V  V80  1  -0.00007760  0.24860956  0.24889421  1
  V  V81  1  0.88159870  0.12452268  0.74612787  1
  V  V82  1  0.37424274  -0.01129905  0.87984309  1
  V  V83  1  0.49235726  0.75118906  0.74898363  1
  V  V84  1  0.50724091  0.24732008  0.75456644  1
  Zn  Zn85  1  0.67459286  0.83152418  0.72926873  1
  Zn  Zn86  1  0.63524935  -0.00078150  0.12213564  1
  Zn  Zn87  1  0.03152210  0.83515088  0.39002638  1
  Zn  Zn88  1  0.74971906  0.37826927  0.12123729  1
  Zn  Zn89  1  0.50442394  0.50288970  -0.00234875  1
  Zn  Zn90  1  0.83105266  0.75120650  0.63075526  1
  Zn  Zn91  1  0.11270689  0.13108264  0.51399120  1
  Zn  Zn92  1  0.62568870  0.36849401  0.75175289  1
  Zn  Zn93  1  0.74773316  0.00474666  0.25371377  1
  Zn  Zn94  1  0.24513550  -0.00159121  0.25210305  1
  Zn  Zn95  1  0.75312273  0.74685971  0.01111488  1
  Zn  Zn96  1  0.37421159  0.00099540  0.37645944  1
  Zn  Zn97  1  0.11599329  0.01034948  0.62892689  1
  Zn  Zn98  1  0.62265237  0.12469114  -0.00071594  1
  Zn  Zn99  1  0.50185225  0.37671624  0.37562618  1
  Zn  Zn100  1  0.12112336  0.50676484  0.12358239  1
  Zn  Zn101  1  0.87413743  0.63841385  0.24568481  1
  Zn  Zn102  1  -0.00428035  0.00644163  0.50443281  1
  Zn  Zn103  1  0.75395872  0.24398951  0.49536604  1
  Zn  Zn104  1  0.88135682  0.49316988  0.86885997  1
  Zn  Zn105  1  0.50530304  0.12123945  0.12298328  1
  Zn  Zn106  1  0.50146121  0.87598123  0.37708838  1
  Zn  Zn107  1  0.18448856  0.18483536  0.18136670  1
  Zn  Zn108  1  0.18935200  0.18872332  0.69375257  1
  Zn  Zn109  1  0.19301559  0.68324088  0.17507758  1
  Zn  Zn110  1  0.17899466  0.69261800  0.67820206  1
  Zn  Zn111  1  0.68649340  0.18610573  0.18220506  1
  Zn  Zn112  1  0.68968659  0.18032732  0.68456269  1
  Zn  Zn113  1  0.69055786  0.69675742  0.19543669  1
  Zn  Zn114  1  0.67756265  0.66698363  0.69745306  1
  Zn  Zn115  1  0.31328345  0.31595072  0.30447227  1
  Zn  Zn116  1  0.31383272  0.31658933  0.81208235  1
  Zn  Zn117  1  0.18513816  0.81761018  0.29706809  1
  Zn  Zn118  1  0.31832522  0.81016052  0.81229789  1
  Zn  Zn119  1  0.80992962  0.31496147  0.30880957  1
  Zn  Zn120  1  0.81364814  0.30729967  0.80956769  1
  Zn  Zn121  1  0.80789432  0.80714249  0.31038280  1
  Zn  Zn122  1  0.82858305  0.79407287  0.85088136  1
  Zn  Zn123  1  0.18413132  0.44578193  0.43504125  1
  Zn  Zn124  1  0.19161679  0.44393861  0.93488611  1
  Zn  Zn125  1  0.18734263  0.95336224  0.44429126  1
  Zn  Zn126  1  0.18649618  0.93714957  0.94081972  1
  Zn  Zn127  1  0.68579226  0.43395329  0.43484311  1
  Zn  Zn128  1  0.68903921  0.42541979  0.93295547  1
  Zn  Zn129  1  0.68779297  0.93725695  0.43494866  1
  Zn  Zn130  1  0.69194542  0.93392533  0.94288486  1
  Zn  Zn131  1  0.31576708  0.06170274  0.06040527  1
  Zn  Zn132  1  0.29082845  0.07137662  0.57169861  1
  Zn  Zn133  1  0.31557790  0.56872502  0.05522340  1
  Zn  Zn134  1  0.30405388  0.57200402  0.55585677  1
  Zn  Zn135  1  0.81442220  0.06001494  0.06525706  1
  Zn  Zn136  1  0.81181110  0.05940179  0.56481971  1
  Zn  Zn137  1  0.83758995  0.56206787  0.06003243  1
  Zn  Zn138  1  0.81365785  0.56035990  0.56912846  1
  Zn  Zn139  1  0.43997127  0.43696772  0.18447068  1
  Zn  Zn140  1  0.43571015  0.43758098  0.69008391  1
  Zn  Zn141  1  0.43627460  0.93575972  0.18888898  1
  Zn  Zn142  1  0.43563076  0.93520456  0.68955394  1
  Zn  Zn143  1  0.93851185  0.44143805  0.18205582  1
  Zn  Zn144  1  0.93903154  0.43228675  0.68876529  1
  Zn  Zn145  1  0.95901348  0.81526652  0.21220473  1
  Zn  Zn146  1  0.93084272  0.93416077  0.68907013  1
  Zn  Zn147  1  0.02378934  -0.00956573  0.28435648  1
  Zn  Zn148  1  0.06470771  0.06929824  0.81672749  1
  Zn  Zn149  1  0.06031161  0.67432257  0.30499280  1
  Zn  Zn150  1  0.06405091  0.56588899  0.81116595  1
  Zn  Zn151  1  0.56225893  0.06041908  0.31485140  1
  Zn  Zn152  1  0.56315953  0.06032824  0.81426109  1
  Zn  Zn153  1  0.56234336  0.56505353  0.31028602  1
  Zn  Zn154  1  0.55741309  0.55615937  0.80688725  1
  Zn  Zn155  1  0.44050100  0.18718578  0.43696158  1
  Zn  Zn156  1  0.43463478  0.18345046  0.93817530  1
  Zn  Zn157  1  0.43040300  0.69166535  0.43871173  1
  Zn  Zn158  1  0.44278931  0.68940997  0.93884436  1
  Zn  Zn159  1  0.94548617  0.18314856  0.43966299  1
  Zn  Zn160  1  0.93469307  0.18162238  0.93797469  1
  Zn  Zn161  1  0.92412073  0.69238274  0.43596367  1
  Zn  Zn162  1  0.93827457  0.68633477  0.93877366  1
  Zn  Zn163  1  0.05586928  0.31138858  0.06031802  1
  Zn  Zn164  1  0.06570798  0.31496055  0.56256885  1
  Zn  Zn165  1  0.06780653  0.81598674  0.05642877  1
  Zn  Zn166  1  0.04218325  0.84777929  0.58038625  1
  Zn  Zn167  1  0.56182054  0.31546537  0.06254161  1
  Zn  Zn168  1  0.56012632  0.31300489  0.56010442  1
  Zn  Zn169  1  0.56796021  0.81136360  0.05683900  1
  Zn  Zn170  1  0.61206584  0.78560481  0.58489588  1
  O  O171  1  0.11123952  0.11728030  0.12802588  1
  O  O172  1  0.17287228  0.11320383  0.61363630  1
  O  O173  1  0.11492649  0.62579246  0.10901618  1
  O  O174  1  0.11051719  0.62195195  0.61433534  1
  O  O175  1  0.62295501  0.11766120  0.11964391  1
  O  O176  1  0.61613217  0.11673968  0.61821925  1
  O  O177  1  0.62061481  0.62504745  0.12793421  1
  O  O178  1  0.61273481  0.60653612  0.62230518  1
  O  O179  1  0.37525144  0.38781877  0.37661311  1
  O  O180  1  0.38060326  0.38010531  0.88546031  1
  O  O181  1  0.37661353  0.87937144  0.39609565  1
  O  O182  1  0.38563785  0.88545261  0.87126375  1
  O  O183  1  0.87696620  0.38179934  0.37873254  1
  O  O184  1  0.87579031  0.37106394  0.88428203  1
  O  O185  1  0.86670228  0.88265246  0.38076490  1
  O  O186  1  0.88668114  0.89370839  0.87026229  1
  O  O187  1  0.25363108  0.01419891  0.37142221  1
  O  O188  1  0.25834977  0.00004051  0.87181711  1
  O  O189  1  0.25766919  0.50450053  0.36355195  1
  O  O190  1  0.26385315  0.50150995  0.86546628  1
  O  O191  1  0.76278256  0.00484514  0.37448175  1
  O  O192  1  0.75939248  0.00760182  0.87438546  1
  O  O193  1  0.75428319  0.50711645  0.36930241  1
  O  O194  1  0.75232482  0.48857264  0.86049611  1
  O  O195  1  0.25040079  0.50890635  0.13388899  1
  O  O196  1  0.24391784  0.49887796  0.62768453  1
  O  O197  1  0.24290689  0.99449867  0.12110216  1
  O  O198  1  0.26266058  0.98319394  0.64165091  1
  O  O199  1  0.74636757  0.50534322  0.12643916  1
  O  O200  1  0.74224489  0.48713880  0.62898177  1
  O  O201  1  0.75579488  0.98636094  0.13262035  1
  O  O202  1  0.74019709  1.00479785  0.63767461  1
  O  O203  1  0.00711853  0.37359847  0.25430149  1
  O  O204  1  0.00931456  0.36235357  0.74936031  1
  O  O205  1  0.01990407  0.87605056  0.28466095  1
  O  O206  1  -0.00648401  0.86299578  0.76156338  1
  O  O207  1  0.50680888  0.36819080  0.25130296  1
  O  O208  1  0.49772428  0.36409994  0.75661790  1
  O  O209  1  0.50443939  0.86771879  0.25428994  1
  O  O210  1  0.49513593  0.86377495  0.75914718  1
  O  O211  1  0.49440180  0.13240194  0.24893231  1
  O  O212  1  0.49223247  0.12928503  0.74845883  1
  O  O213  1  0.49517905  0.63144617  0.24130426  1
  O  O214  1  0.49602813  0.62563669  0.73471985  1
  O  O215  1  0.98416983  0.13041566  0.23908675  1
  O  O216  1  0.99572927  0.13767091  0.75061284  1
  O  O217  1  0.99995402  0.61544286  0.22732257  1
  O  O218  1  0.99360666  0.63105983  0.73979285  1
  O  O219  1  0.38042211  0.25898811  0.00989717  1
  O  O220  1  0.37241619  0.25932854  0.50453899  1
  O  O221  1  0.36848727  0.74585281  0.00523491  1
  O  O222  1  0.36214567  0.76079698  0.50557437  1
  O  O223  1  0.87082358  0.25330675  0.00600735  1
  O  O224  1  0.87362064  0.25535262  0.50664411  1
  O  O225  1  0.85029217  0.74965259  -0.04470328  1
  O  O226  1  0.86241710  0.75729036  0.50737342  1
  O  O227  1  0.13357457  0.25206151  0.49124769  1
  O  O228  1  0.15640667  0.26109689  1.05850990  1
  O  O229  1  0.13776326  0.75045181  0.52325463  1
  O  O230  1  0.13293227  0.74606610  0.98763832  1
  O  O231  1  0.62261365  0.24146473  0.49177858  1
  O  O232  1  0.63835566  0.25098133  1.00282723  1
  O  O233  1  0.60805724  0.75069031  0.48073488  1
  O  O234  1  0.63427434  0.75152223  0.98144966  1
  O  O235  1  0.49492671  0.24853228  0.13293611  1
  O  O236  1  0.49259550  0.24400530  0.63032711  1
  O  O237  1  0.49712622  0.74396780  0.12652633  1
  O  O238  1  0.49877736  0.74091276  0.63053073  1
  O  O239  1  0.99173511  0.24358283  0.13062890  1
  O  O240  1  0.99218053  0.25639817  0.63128656  1
  O  O241  1  1.00233040  0.74578994  0.12177081  1
  O  O242  1  1.00290185  0.74694396  0.63641088  1
  O  O243  1  0.00883281  0.25761054  0.36869990  1
  O  O244  1  -0.00067754  0.24696501  0.86466668  1
  O  O245  1  0.03126925  0.71724176  0.40714347  1
  O  O246  1  0.00854354  0.75856219  0.87003753  1
  O  O247  1  0.50890770  0.25382706  0.36776095  1
  O  O248  1  0.49115600  0.25625206  0.86542363  1
  O  O249  1  0.50077395  0.74883353  0.36484525  1
  O  O250  1  0.50816654  0.75609952  0.87002067  1
  O  O251  1  0.26157153  0.13973958  0.48095337  1
  O  O252  1  0.25904907  0.12638049  0.98616523  1
  O  O253  1  0.23618291  0.63777201  0.48632805  1
  O  O254  1  0.24078334  0.64045279  1.00370523  1
  O  O255  1  0.73462962  0.12647355  0.50738260  1
  O  O256  1  0.75251697  0.13192872  0.99206903  1
  O  O257  1  0.74720697  0.61662221  0.49064905  1
  O  O258  1  0.74161368  0.61643815  1.01370727  1
  O  O259  1  0.25745282  0.38337495  0.00996757  1
  O  O260  1  0.25337376  0.37540685  0.50457594  1
  O  O261  1  0.24868491  0.86271826  0.00794124  1
  O  O262  1  0.25803228  0.87769443  0.51704504  1
  O  O263  1  0.76013123  0.36599943  0.00115614  1
  O  O264  1  0.75485856  0.37130992  0.50725462  1
  O  O265  1  0.75380274  0.87610924  0.02179887  1
  O  O266  1  0.76180443  0.87735564  0.49925843  1
  O  O267  1  0.13638754  0.48872202  0.24936769  1
  O  O268  1  0.13029197  0.49485035  0.74460053  1
  O  O269  1  0.12563251  1.00549231  0.23365708  1
  O  O270  1  0.13881587  1.00668291  0.74983679  1
  O  O271  1  0.63308273  0.49265954  0.25475628  1
  O  O272  1  0.63177569  0.49368814  0.74006184  1
  O  O273  1  0.62720939  0.99135976  0.24975283  1
  O  O274  1  0.63683797  1.00759112  0.74337173  1
  O  O275  1  0.37454984  0.01217331  0.25108332  1
  O  O276  1  0.37038564  0.00752290  0.75959568  1
  O  O277  1  0.37013784  0.50286838  0.25459594  1
  O  O278  1  0.36639085  0.49696898  0.76163263  1
  O  O279  1  0.87357216  0.01697980  0.26851002  1
  O  O280  1  0.87188944  0.00994400  0.75421534  1
  O  O281  1  0.86664450  0.50138586  0.25714071  1
  O  O282  1  0.86740930  0.50194665  0.74698302  1
  O  O283  1  0.12187182  0.37066138  0.36766482  1
  O  O284  1  0.13331563  0.37775479  0.86212452  1
  O  O285  1  0.15713814  0.85055106  0.40353596  1
  O  O286  1  0.11827931  0.86748703  0.87488959  1
  O  O287  1  0.62261106  0.36739799  0.36266779  1
  O  O288  1  0.60751607  0.37542238  0.87110596  1
  O  O289  1  0.62461520  0.86671399  0.36426720  1
  O  O290  1  0.61798781  0.87596412  0.86840084  1
  O  O291  1  0.37941270  0.13274249  0.13291274  1
  O  O292  1  0.37541625  0.13013752  0.63836840  1
  O  O293  1  0.38298715  0.63469281  0.12775415  1
  O  O294  1  0.37834675  0.63880724  0.61533552  1
  O  O295  1  0.87976302  0.13627868  0.12959431  1
  O  O296  1  0.86780098  0.13390286  0.63771331  1
  O  O297  1  0.89050229  0.63508219  0.12497938  1
  O  O298  1  0.87602060  0.63402955  0.63440963  1
  O  O299  1  0.27447843  0.25367246  0.14667880  1
  O  O300  1  0.25685582  0.26186160  0.62068075  1
  O  O301  1  0.26122373  0.75740076  0.11567265  1
  O  O302  1  0.26027868  0.76135985  0.63348608  1
  O  O303  1  0.75783330  0.25211544  0.11580472  1
  O  O304  1  0.75659185  0.25831048  0.62523871  1
  O  O305  1  0.75049072  0.76524541  0.12796362  1
  O  O306  1  0.71488817  0.75855248  0.64081966  1
  O  O307  1  0.24535934  0.25231594  0.37543632  1
  O  O308  1  0.25557487  0.23969470  0.87199447  1
  O  O309  1  0.25443954  0.73795106  0.37192120  1
  O  O310  1  0.24381038  0.75584282  0.87937551  1
  O  O311  1  0.73562594  0.25577417  0.37528540  1
  O  O312  1  0.75788673  0.23946737  0.88359911  1
  O  O313  1  0.73919008  0.73319505  0.37259795  1
  O  O314  1  0.72162939  0.74956529  0.84739249  1
  O  O315  1  -0.00333029  0.12017635  0.01249390  1
  O  O316  1  -0.00127004  0.12550828  0.51549176  1
  O  O317  1  0.00545060  0.62178181  0.00687954  1
  O  O318  1  -0.01099717  0.61810662  0.51504741  1
  O  O319  1  0.50253945  0.11281765  -0.00147933  1
  O  O320  1  0.50473107  0.11602800  0.50688185  1
  O  O321  1  0.50261960  0.62280817  0.01082586  1
  O  O322  1  0.49002876  0.61306886  0.50843318  1
  O  O323  1  0.49017532  0.38755018  0.49849441  1
  O  O324  1  0.49352119  0.37942035  0.99312461  1
  O  O325  1  0.49260006  0.89066402  0.50520550  1
  O  O326  1  0.50462281  0.88147233  0.98732729  1
  O  O327  1  0.99507341  0.38092448  0.49316445  1
  O  O328  1  0.99390226  0.38208247  1.00074041  1
  O  O329  1  0.97783712  0.87046431  0.48762956  1
  O  O330  1  1.00133460  0.88327602  0.98760132  1
  O  O331  1  0.49177406  0.50223046  0.38113939  1
  O  O332  1  0.48779898  0.49039769  0.87280458  1
  O  O333  1  0.49524290  0.99863195  0.38755109  1
  O  O334  1  0.49528951  0.99237066  0.87975445  1
  O  O335  1  0.98406023  0.49606636  0.38130459  1
  O  O336  1  1.00319175  0.50373565  0.88737948  1
  O  O337  1  0.97063900  1.01519510  0.38299157  1
  O  O338  1  0.99831409  0.99699542  0.88027189  1
  O  O339  1  0.00636646  0.00704839  0.11780988  1
  O  O340  1  0.01170296  -0.03670518  0.61759929  1
  O  O341  1  -0.00150845  0.51028403  0.10901654  1
  O  O342  1  0.00209596  0.50776513  0.62266845  1
  O  O343  1  0.49683144  -0.00304893  0.11165264  1
  O  O344  1  0.50444946  0.00682375  0.62377431  1
  O  O345  1  0.49680525  0.51392853  0.12260683  1
  O  O346  1  0.50301950  0.50274094  0.61905462  1
  O  O347  1  0.24283824  0.38058548  0.23640428  1
  O  O348  1  0.24382836  0.38335189  0.74219696  1
  O  O349  1  0.25486726  0.88102754  0.23222430  1
  O  O350  1  0.25730016  0.88250792  0.74527711  1
  O  O351  1  0.74462956  0.38960376  0.24518948  1
  O  O352  1  0.74853132  0.37571471  0.74062726  1
  O  O353  1  0.74280842  0.87558358  0.24182517  1
  O  O354  1  0.76272723  0.89237320  0.76418293  1
  O  O355  1  0.25870825  0.12804458  0.25775198  1
  O  O356  1  0.25881443  0.11757152  0.76250615  1
  O  O357  1  0.25878289  0.61713595  0.25231381  1
  O  O358  1  0.24109698  0.61423208  0.74014727  1
  O  O359  1  0.76573271  0.12704869  0.24263533  1
  O  O360  1  0.76025347  0.12146100  0.75839238  1
  O  O361  1  0.75238155  0.61548636  0.25270861  1
  O  O362  1  0.75926449  0.60746057  0.74573374  1
  O  O363  1  0.37083849  0.12918647  0.36275061  1
  O  O364  1  0.37085088  0.11599285  0.86612836  1
  O  O365  1  0.36681602  0.61563420  0.36974619  1
  O  O366  1  0.38234968  0.61119034  0.87666624  1
  O  O367  1  0.86965989  0.14455368  0.36191794  1
  O  O368  1  0.87097794  0.11673449  0.86370175  1
  O  O369  1  0.85944415  0.61547298  0.37617165  1
  O  O370  1  0.88414476  0.61407486  0.85854499  1
  O  O371  1  0.12344685  0.38713757  0.13273395  1
  O  O372  1  0.13096603  0.38544739  0.62962100  1
  O  O373  1  0.13512026  0.88472563  0.11887777  1
  O  O374  1  0.14528302  0.87372813  0.63106795  1
  O  O375  1  0.62848970  0.37097270  0.13895859  1
  O  O376  1  0.63134620  0.37953499  0.62558648  1
  O  O377  1  0.62097062  0.87494855  0.13835087  1
  O  O378  1  0.61749738  0.88894711  0.63580826  1
  O  O379  1  0.12089580  0.26179878  0.25357006  1
  O  O380  1  0.11361843  0.25785114  0.74495443  1
  O  O381  1  0.12663671  0.74108318  0.24342790  1
  O  O382  1  0.11406267  0.74350119  0.76020095  1
  O  O383  1  0.61795806  0.25304267  0.25486020  1
  O  O384  1  0.61062269  0.24660477  0.74249055  1
  O  O385  1  0.61273351  0.75491208  0.25829295  1
  O  O386  1  0.60436889  0.74149095  0.75779337  1
  O  O387  1  0.39038863  0.24679269  0.24736251  1
  O  O388  1  0.38176684  0.24301494  0.74518022  1
  O  O389  1  0.38892951  0.74455375  0.23728836  1
  O  O390  1  0.38434555  0.74677590  0.74151525  1
  O  O391  1  0.87912093  0.24888530  0.24162083  1
  O  O392  1  0.88875441  0.24515028  0.74380063  1
  O  O393  1  0.89553502  0.74534408  0.27815408  1
  O  O394  1  0.87944614  0.74142412  0.75267245  1
  O  O395  1  0.37584363  0.49878263  0.49080145  1
  O  O396  1  0.37549655  0.49496331  0.98759903  1
  O  O397  1  0.37932422  0.99808502  0.50719871  1
  O  O398  1  0.38524100  1.00242497  0.98866785  1
  O  O399  1  0.87757316  0.49292173  0.49526976  1
  O  O400  1  0.88441655  0.48690279  0.99257529  1
  O  O401  1  0.87113876  0.99145148  0.49476171  1
  O  O402  1  0.88915542  1.00789942  0.99147337  1
  O  O403  1  0.11247169  -0.00142700  0.00751855  1
  O  O404  1  0.11695012  0.01112192  0.50545096  1
  O  O405  1  0.12255583  0.51016346  -0.00087946  1
  O  O406  1  0.11216578  0.51129746  0.50135031  1
  O  O407  1  0.61618454  -0.00040748  0.00084076  1
  O  O408  1  0.61777991  0.00421450  0.50756047  1
  O  O409  1  0.62710340  0.49669254  0.00405136  1
  O  O410  1  0.61265577  0.49102610  0.50583692  1
  O  O411  1  0.37863404  0.36967787  0.11153679  1
  O  O412  1  0.36759772  0.37325826  0.61980923  1
  O  O413  1  0.37158755  0.86436445  0.12359906  1
  O  O414  1  0.37259248  0.86363970  0.62010491  1
  O  O415  1  0.87474311  0.36370152  0.11695131  1
  O  O416  1  0.86828129  0.36544249  0.61968613  1
  O  O417  1  0.87460365  0.86874234  0.13858256  1
  O  O418  1  0.86874281  0.86553394  0.61652357  1
  O  O419  1  0.13594015  0.14410669  0.37236945  1
  O  O420  1  0.14146077  0.12663959  0.87725708  1
  O  O421  1  0.13849205  0.61093757  0.37342308  1
  O  O422  1  0.12014394  0.63587736  0.88469491  1
  O  O423  1  0.61863386  0.13293646  0.38584173  1
  O  O424  1  0.63965543  0.12243605  0.87594355  1
  O  O425  1  0.63613060  0.62906483  0.37186953  1
  O  O426  1  0.61640451  0.62924741  0.87466966  1
