# generated using pymatgen
data_V85Zn86O256
_symmetry_space_group_name_H-M   'P 1'
_cell_length_a   16.93976122
_cell_length_b   16.93484650
_cell_length_c   16.95694398
_cell_angle_alpha   89.96385104
_cell_angle_beta   90.10345448
_cell_angle_gamma   89.98513648
_symmetry_Int_Tables_number   1
_chemical_formula_structural   V85Zn86O256
_chemical_formula_sum   'V85 Zn86 O256'
_cell_volume   4864.46771081
_cell_formula_units_Z   1
loop_
 _symmetry_equiv_pos_site_id
 _symmetry_equiv_pos_as_xyz
  1  'x, y, z'
loop_
 _atom_site_type_symbol
 _atom_site_label
 _atom_site_symmetry_multiplicity
 _atom_site_fract_x
 _atom_site_fract_y
 _atom_site_fract_z
 _atom_site_occupancy
  V  V0  1  0.12763052  0.36716510  0.25464194  1
  V  V1  1  0.50354243  0.50223341  0.50008198  1
  V  V2  1  -0.00026707  0.87260416  0.38521585  1
  V  V3  1  0.26391454  0.75839250  -0.00030689  1
  V  V4  1  0.24635167  0.87034225  0.61607416  1
  V  V5  1  0.49166105  0.00003380  0.50143199  1
  V  V6  1  0.00593424  0.36722463  0.37833888  1
  V  V7  1  0.23960850  0.00163058  0.24867919  1
  V  V8  1  0.74619710  -0.00025446  0.24983576  1
  V  V9  1  0.50122441  0.62715462  0.62274627  1
  V  V10  1  0.37043973  0.00781791  0.37320242  1
  V  V11  1  0.62380628  0.12494713  0.49973339  1
  V  V12  1  0.87779139  0.37179548  0.01126961  1
  V  V13  1  0.25177850  0.50206312  0.74959328  1
  V  V14  1  -0.00934043  0.25015258  0.24621492  1
  V  V15  1  0.50072316  0.37117141  0.87455147  1
  V  V16  1  0.87723763  0.75427024  0.13188226  1
  V  V17  1  0.75520525  0.50977677  0.75178648  1
  V  V18  1  0.24669080  -0.00507356  0.74871897  1
  V  V19  1  -0.00132307  0.25379857  0.75343617  1
  V  V20  1  0.62610926  0.87304897  0.74765104  1
  V  V21  1  0.50048866  0.61263893  0.11609331  1
  V  V22  1  0.12513506  0.12175985  0.00350938  1
  V  V23  1  0.12771325  0.50065830  0.12637220  1
  V  V24  1  0.49901936  0.24966626  0.25110275  1
  V  V25  1  0.75432490  0.24946808  0.01478938  1
  V  V26  1  0.75005786  0.50299231  0.24682177  1
  V  V27  1  0.74738859  0.73533911  -0.00130410  1
  V  V28  1  0.74626559  -0.00149425  0.74773802  1
  V  V29  1  0.37456467  0.24558154  0.12391666  1
  V  V30  1  0.50199253  0.37596493  0.37586648  1
  V  V31  1  0.12037021  0.87480382  0.74563240  1
  V  V32  1  0.87865207  0.24989892  0.62562548  1
  V  V33  1  0.75429110  0.37583248  0.62598627  1
  V  V34  1  0.49988205  0.87096687  0.87741639  1
  V  V35  1  0.87973057  0.50437638  0.37379160  1
  V  V36  1  -0.00403925  0.86818708  0.87082963  1
  V  V37  1  0.37876434  -0.00401288  0.87640507  1
  V  V38  1  0.12195419  0.25092087  0.87646180  1
  V  V39  1  0.50327883  0.12035529  0.12812569  1
  V  V40  1  0.00625216  0.50228103  0.49948998  1
  V  V41  1  0.25080155  0.12217419  0.87752402  1
  V  V42  1  0.87378012  0.12419760  0.75058693  1
  V  V43  1  0.25573319  0.36364700  0.62703529  1
  V  V44  1  0.24948273  0.24721993  0.00096353  1
  V  V45  1  0.25100818  0.63854555  0.37776748  1
  V  V46  1  0.00255775  0.63993729  0.63073706  1
  V  V47  1  0.62945269  0.37882944  0.24658649  1
  V  V48  1  0.12913761  0.64106043  0.49506994  1
  V  V49  1  0.00638066  0.10917311  0.62663714  1
  V  V50  1  0.74879852  0.12852268  0.87503217  1
  V  V51  1  0.74065711  0.87988663  0.12327129  1
  V  V52  1  0.62799879  0.73548220  0.87721878  1
  V  V53  1  0.37173896  0.74892985  0.61997377  1
  V  V54  1  0.37357885  0.12924479  0.73974494  1
  V  V55  1  0.87422012  0.87326747  0.00307325  1
  V  V56  1  0.75195683  0.25405928  0.49817281  1
  V  V57  1  0.62506198  0.12039074  0.00156761  1
  V  V58  1  0.37679938  0.50111176  0.87893296  1
  V  V59  1  0.76103183  0.12005051  0.37699730  1
  V  V60  1  0.12807801  0.62882251  0.00067385  1
  V  V61  1  0.87926589  0.49898359  0.87386476  1
  V  V62  1  0.50403007  -0.00836190  0.00714449  1
  V  V63  1  0.87273808  0.63129408  0.25687015  1
  V  V64  1  -0.01113220  0.12673390  0.12269535  1
  V  V65  1  0.85597871  0.88333322  0.49986445  1
  V  V66  1  0.62524776  0.25055443  0.37624976  1
  V  V67  1  0.11823648  0.85689282  0.24785642  1
  V  V68  1  0.25455594  0.50588557  0.25211180  1
  V  V69  1  0.62578386  -0.00361099  0.62262848  1
  V  V70  1  0.85433603  0.75360799  0.62087084  1
  V  V71  1  0.48186321  0.74180224  0.24192115  1
  V  V72  1  0.00399014  0.63002088  0.13409983  1
  V  V73  1  0.87360678  -0.00297050  0.87463958  1
  V  V74  1  0.49866873  0.87331180  0.37184253  1
  V  V75  1  0.24813779  0.24811049  0.48281346  1
  V  V76  1  0.62770718  0.37181326  0.74694127  1
  V  V77  1  0.00432914  0.49364191  -0.00523721  1
  V  V78  1  0.37672840  0.37516734  0.00050883  1
  V  V79  1  0.63345541  0.74390817  0.37238136  1
  V  V80  1  0.12297612  0.74964978  0.87151013  1
  V  V81  1  0.37610038  0.50571334  0.37444204  1
  V  V82  1  0.25180635  0.37598323  0.12591852  1
  V  V83  1  0.12141726  0.37650140  0.75608498  1
  V  V84  1  0.12627645  0.50122001  0.62482710  1
  Zn  Zn85  1  0.21936084  0.12865121  0.36931876  1
  Zn  Zn86  1  0.25975590  0.86513092  0.12881147  1
  Zn  Zn87  1  0.37686261  0.62649484  0.74991101  1
  Zn  Zn88  1  0.62344655  0.24732490  0.87306951  1
  Zn  Zn89  1  0.36834244  0.87087128  0.49666476  1
  Zn  Zn90  1  0.65191223  0.64604843  0.50611091  1
  Zn  Zn91  1  0.88028917  0.63836365  0.76095037  1
  Zn  Zn92  1  0.62820151  0.50392179  0.62339952  1
  Zn  Zn93  1  0.36838031  0.12615785  0.25044693  1
  Zn  Zn94  1  0.88035155  0.37582332  0.50070440  1
  Zn  Zn95  1  0.49294440  0.13190122  0.62027033  1
  Zn  Zn96  1  0.12012599  -0.00712718  0.12473869  1
  Zn  Zn97  1  -0.00089570  -0.00227240  0.00279775  1
  Zn  Zn98  1  0.25304898  0.62621974  0.87550691  1
  Zn  Zn99  1  0.49165657  0.25529058  0.73862768  1
  Zn  Zn100  1  0.87036153  0.12776389  0.24616737  1
  Zn  Zn101  1  0.52795926  0.49904119  0.00064823  1
  Zn  Zn102  1  0.69338382  0.43091797  0.08409644  1
  Zn  Zn103  1  0.49955563  0.74834708  0.75014654  1
  Zn  Zn104  1  0.61886565  0.87812795  0.24456492  1
  Zn  Zn105  1  0.11169977  0.11444192  0.49693505  1
  Zn  Zn106  1  0.37880898  0.37215166  0.50744521  1
  Zn  Zn107  1  0.18339721  0.18536504  0.18661460  1
  Zn  Zn108  1  0.18604353  0.18501166  0.68901991  1
  Zn  Zn109  1  0.19970533  0.68705033  0.18439168  1
  Zn  Zn110  1  0.18667701  0.68936807  0.68800047  1
  Zn  Zn111  1  0.68326916  0.18557209  0.19047972  1
  Zn  Zn112  1  0.68399603  0.18765538  0.68403304  1
  Zn  Zn113  1  0.68347674  0.68962550  0.19109259  1
  Zn  Zn114  1  0.68433667  0.68705179  0.68977876  1
  Zn  Zn115  1  0.31725583  0.31698321  0.31216443  1
  Zn  Zn116  1  0.31051311  0.31166859  0.81351491  1
  Zn  Zn117  1  0.31163743  0.82041338  0.31241109  1
  Zn  Zn118  1  0.31351880  0.80898965  0.81061758  1
  Zn  Zn119  1  0.81322355  0.31856262  0.31510766  1
  Zn  Zn120  1  0.81738925  0.31658063  0.81992292  1
  Zn  Zn121  1  0.81341508  0.81871745  0.31466663  1
  Zn  Zn122  1  0.80851078  0.80868402  0.81063413  1
  Zn  Zn123  1  0.18978504  0.43843608  0.43894624  1
  Zn  Zn124  1  0.18975166  0.43791980  0.93731417  1
  Zn  Zn125  1  0.17562423  0.94084236  0.43307877  1
  Zn  Zn126  1  0.18544425  0.93662359  0.93569772  1
  Zn  Zn127  1  0.71066694  0.47533288  0.45585957  1
  Zn  Zn128  1  0.69478720  0.43457355  0.92296943  1
  Zn  Zn129  1  0.68284640  0.93795488  0.43309918  1
  Zn  Zn130  1  0.68625485  0.93437291  0.93605941  1
  Zn  Zn131  1  0.33179541  0.02720726  0.07924287  1
  Zn  Zn132  1  0.27613461  0.04471537  0.54527175  1
  Zn  Zn133  1  0.31942738  0.56978198  0.06481185  1
  Zn  Zn134  1  0.31398505  0.56165553  0.56041523  1
  Zn  Zn135  1  0.81108616  0.05747816  0.06399832  1
  Zn  Zn136  1  0.81155969  0.06251983  0.56422882  1
  Zn  Zn137  1  0.82182945  0.56345534  0.06533697  1
  Zn  Zn138  1  0.82184536  0.56610760  0.56627234  1
  Zn  Zn139  1  0.43799583  0.44080996  0.18786983  1
  Zn  Zn140  1  0.43798923  0.44040760  0.68850190  1
  Zn  Zn141  1  0.43188831  0.93124601  0.18913393  1
  Zn  Zn142  1  0.43601462  0.93665962  0.68749491  1
  Zn  Zn143  1  0.94128978  0.44124756  0.18769770  1
  Zn  Zn144  1  0.94037876  0.44032887  0.68694384  1
  Zn  Zn145  1  0.94386078  0.94771480  0.21002878  1
  Zn  Zn146  1  0.93127622  0.92915150  0.68681745  1
  Zn  Zn147  1  0.05027942  0.05300588  0.31691492  1
  Zn  Zn148  1  0.06023470  0.05899466  0.81391470  1
  Zn  Zn149  1  0.06756319  0.56334560  0.31339425  1
  Zn  Zn150  1  0.06199203  0.56383274  0.81366874  1
  Zn  Zn151  1  0.56581967  0.06036049  0.31338107  1
  Zn  Zn152  1  0.55910593  0.06268837  0.81152245  1
  Zn  Zn153  1  0.56431068  0.56805128  0.30713801  1
  Zn  Zn154  1  0.56185647  0.55645030  0.80826459  1
  Zn  Zn155  1  0.43035949  0.19001937  0.44332100  1
  Zn  Zn156  1  0.43684040  0.18404379  0.93529381  1
  Zn  Zn157  1  0.43922315  0.68871489  0.43749366  1
  Zn  Zn158  1  0.44312177  0.68190761  0.93931449  1
  Zn  Zn159  1  0.94228047  0.18682026  0.44030338  1
  Zn  Zn160  1  0.93664892  0.18912685  0.93814934  1
  Zn  Zn161  1  0.94005728  0.69732244  0.43913157  1
  Zn  Zn162  1  0.93923678  0.68518833  0.94303089  1
  Zn  Zn163  1  0.06205256  0.31191506  0.06609128  1
  Zn  Zn164  1  0.06930215  0.30890067  0.56597098  1
  Zn  Zn165  1  0.06500543  0.81324046  0.06507553  1
  Zn  Zn166  1  0.06074714  0.81983659  0.55919563  1
  Zn  Zn167  1  0.56109331  0.30560156  0.05930456  1
  Zn  Zn168  1  0.56227771  0.31254468  0.56414323  1
  Zn  Zn169  1  0.56145207  0.80344014  0.06233911  1
  Zn  Zn170  1  0.56140244  0.81369871  0.55929429  1
  O  O171  1  0.11496224  0.12832939  0.11130838  1
  O  O172  1  0.10836715  0.12434600  0.63197592  1
  O  O173  1  0.12220199  0.62251884  0.11980111  1
  O  O174  1  0.11857293  0.62294754  0.61669267  1
  O  O175  1  0.61231304  0.12921045  0.11594953  1
  O  O176  1  0.62143722  0.11733276  0.61598808  1
  O  O177  1  0.60035964  0.63163935  0.13870984  1
  O  O178  1  0.61760304  0.62355403  0.61964714  1
  O  O179  1  0.38713708  0.38596671  0.37488181  1
  O  O180  1  0.38183214  0.37949903  0.87813473  1
  O  O181  1  0.38288568  0.88697451  0.37694742  1
  O  O182  1  0.39066984  0.88069476  0.86687720  1
  O  O183  1  0.88919685  0.38568645  0.37765238  1
  O  O184  1  0.87643619  0.38933860  0.88768122  1
  O  O185  1  0.87835996  0.86876652  0.39477534  1
  O  O186  1  0.87878896  0.87443626  0.88090574  1
  O  O187  1  0.25480733  0.00242262  0.36390627  1
  O  O188  1  0.25973840  0.00036447  0.86920583  1
  O  O189  1  0.25836601  0.50339172  0.36995609  1
  O  O190  1  0.25779532  0.50012465  0.86632226  1
  O  O191  1  0.74473970  0.01074745  0.36749365  1
  O  O192  1  0.75281087  0.01015837  0.87015982  1
  O  O193  1  0.77381260  0.49373476  0.36129345  1
  O  O194  1  0.76480239  0.49782224  0.86136015  1
  O  O195  1  0.24835060  0.49790808  0.13317167  1
  O  O196  1  0.24461810  0.49350753  0.63191066  1
  O  O197  1  0.23690952  1.01495778  0.14283785  1
  O  O198  1  0.25981427  0.98530877  0.64473915  1
  O  O199  1  0.76355996  0.50001643  0.14145760  1
  O  O200  1  0.75751206  0.48709834  0.63534088  1
  O  O201  1  0.74637326  0.98901543  0.12797236  1
  O  O202  1  0.73374793  1.00618005  0.63238511  1
  O  O203  1  0.00784049  0.37028555  0.25615042  1
  O  O204  1  0.01023108  0.36746371  0.74595048  1
  O  O205  1  0.01801974  0.86067547  0.23055087  1
  O  O206  1  0.00683881  0.87717354  0.75901969  1
  O  O207  1  0.50438802  0.36969784  0.25680919  1
  O  O208  1  0.50863995  0.37611758  0.75565921  1
  O  O209  1  0.49890007  0.86983127  0.25587650  1
  O  O210  1  0.51092709  0.87510792  0.75770681  1
  O  O211  1  0.50235243  0.13080562  0.24211619  1
  O  O212  1  0.48342902  0.12504504  0.74964642  1
  O  O213  1  0.49246581  0.63836989  0.25112050  1
  O  O214  1  0.49942137  0.62181874  0.73506929  1
  O  O215  1  0.99493128  0.13389170  0.24049440  1
  O  O216  1  0.99315647  0.13050702  0.74476991  1
  O  O217  1  0.99874795  0.62117887  0.23879305  1
  O  O218  1  1.00145917  0.62125025  0.73356691  1
  O  O219  1  0.37027400  0.25399729  0.00455225  1
  O  O220  1  0.35686336  0.25934562  0.49713813  1
  O  O221  1  0.36173199  0.74713601  -0.01221225  1
  O  O222  1  0.38015105  0.75301731  0.51457925  1
  O  O223  1  0.86634203  0.25942593  -0.00609335  1
  O  O224  1  0.86991230  0.25373395  0.50731675  1
  O  O225  1  0.86570061  0.75469681  0.00690927  1
  O  O226  1  0.87986416  0.75943115  0.51530019  1
  O  O227  1  0.14563156  0.24370930  0.51139162  1
  O  O228  1  0.12799296  0.24458054  0.99408324  1
  O  O229  1  0.12424773  0.73920930  0.50138312  1
  O  O230  1  0.12921481  0.74350822  0.99037416  1
  O  O231  1  0.63266075  0.24652889  0.49432238  1
  O  O232  1  0.63334177  0.23808894  0.99558848  1
  O  O233  1  0.61755627  0.75308615  0.48098114  1
  O  O234  1  0.63976826  0.75052056  0.99312154  1
  O  O235  1  0.49265442  0.24071330  0.12900787  1
  O  O236  1  0.49831229  0.24597142  0.62532386  1
  O  O237  1  0.49674107  0.75018623  0.13828388  1
  O  O238  1  0.49494942  0.74267426  0.62650609  1
  O  O239  1  1.00330246  0.24199125  0.13535131  1
  O  O240  1  0.99596599  0.24685120  0.63786842  1
  O  O241  1  0.98900112  0.73979314  0.11380773  1
  O  O242  1  1.00316980  0.74029984  0.62400379  1
  O  O243  1  -0.00222971  0.26265310  0.37018902  1
  O  O244  1  0.00555130  0.24405232  0.86135047  1
  O  O245  1  -0.00556135  0.77217161  0.37050339  1
  O  O246  1  0.00577508  0.76008552  0.88103299  1
  O  O247  1  0.50196903  0.25779848  0.37260964  1
  O  O248  1  0.49875821  0.26128158  0.87062689  1
  O  O249  1  0.49731531  0.75848063  0.36504163  1
  O  O250  1  0.50850156  0.75538066  0.87514874  1
  O  O251  1  0.25985167  0.14341984  0.48431815  1
  O  O252  1  0.24104498  0.12990584  0.99516027  1
  O  O253  1  0.23606800  0.61921222  0.49434961  1
  O  O254  1  0.23972806  0.62990543  0.99897962  1
  O  O255  1  0.74478815  0.13086443  0.49427807  1
  O  O256  1  0.74416652  0.12693491  0.99362114  1
  O  O257  1  0.74151372  0.58187523  0.49328229  1
  O  O258  1  0.75716865  0.63742571  1.00499191  1
  O  O259  1  0.25554644  0.36779534  0.00610029  1
  O  O260  1  0.24741794  0.36828266  0.51355614  1
  O  O261  1  0.24655710  0.85993831  -0.00500406  1
  O  O262  1  0.24684599  0.87416071  0.51370524  1
  O  O263  1  0.75841627  0.36437590  0.00323048  1
  O  O264  1  0.75478415  0.37654633  0.51039975  1
  O  O265  1  0.75918575  0.87060227  0.00519667  1
  O  O266  1  0.75631497  0.87788618  0.49771739  1
  O  O267  1  0.13235358  0.49105469  0.24428396  1
  O  O268  1  0.13122625  0.49359236  0.74747219  1
  O  O269  1  0.13128896  0.99180152  0.25010015  1
  O  O270  1  0.13507003  0.98792727  0.76027059  1
  O  O271  1  0.63739180  0.49266536  0.25759040  1
  O  O272  1  0.63701657  0.48884333  0.74812648  1
  O  O273  1  0.63680157  0.99729737  0.24970537  1
  O  O274  1  0.62585136  0.99519387  0.74242124  1
  O  O275  1  0.36155297  0.00295936  0.25764304  1
  O  O276  1  0.37091754  0.00630201  0.76087527  1
  O  O277  1  0.36423906  0.49476172  0.25970899  1
  O  O278  1  0.36742978  0.49909564  0.76132462  1
  O  O279  1  0.85275228  0.00999083  0.23859318  1
  O  O280  1  0.86511305  0.00199657  0.75474353  1
  O  O281  1  0.87662983  0.50984550  0.25683887  1
  O  O282  1  0.87268753  0.50058852  0.75756560  1
  O  O283  1  0.11750423  0.38370871  0.36586304  1
  O  O284  1  0.13194119  0.36992971  0.86265974  1
  O  O285  1  0.11061477  0.87850641  0.36225834  1
  O  O286  1  0.11512491  0.86815409  0.86923882  1
  O  O287  1  0.61212924  0.36976576  0.36554910  1
  O  O288  1  0.61773879  0.36954959  0.86450591  1
  O  O289  1  0.60910552  0.87098944  0.37241674  1
  O  O290  1  0.61620887  0.86828232  0.86863885  1
  O  O291  1  0.38822861  0.12469345  0.12573207  1
  O  O292  1  0.36803557  0.11559170  0.64085200  1
  O  O293  1  0.39641260  0.62393255  0.12555164  1
  O  O294  1  0.38026175  0.63056786  0.62595449  1
  O  O295  1  0.88558178  0.12707414  0.11863082  1
  O  O296  1  0.87955801  0.13173969  0.63406513  1
  O  O297  1  0.88527690  0.63296012  0.13586629  1
  O  O298  1  0.88867164  0.63810305  0.62427689  1
  O  O299  1  0.25548703  0.25375773  0.12064736  1
  O  O300  1  0.24957622  0.26275679  0.63084402  1
  O  O301  1  0.25397757  0.74863281  0.10574100  1
  O  O302  1  0.25816646  0.75856252  0.63212725  1
  O  O303  1  0.74874744  0.24082813  0.11374638  1
  O  O304  1  0.75625183  0.25920780  0.62053563  1
  O  O305  1  0.75659782  0.75500022  0.11576087  1
  O  O306  1  0.75603795  0.74064956  0.61563942  1
  O  O307  1  0.24395615  0.25848995  0.38065083  1
  O  O308  1  0.24269237  0.24360533  0.88091117  1
  O  O309  1  0.26165806  0.73736799  0.37429786  1
  O  O310  1  0.24187015  0.74653032  0.88216382  1
  O  O311  1  0.74544333  0.24666417  0.38122844  1
  O  O312  1  0.75109985  0.23725565  0.87968034  1
  O  O313  1  0.73223771  0.75546697  0.36800013  1
  O  O314  1  0.74433069  0.75157250  0.88980377  1
  O  O315  1  0.00637530  0.12414592  0.00461977  1
  O  O316  1  -0.00398129  0.12717866  0.52212384  1
  O  O317  1  0.01338151  0.61788953  0.00881779  1
  O  O318  1  0.01127352  0.62173388  0.50568607  1
  O  O319  1  0.50835686  0.11914747  0.00463856  1
  O  O320  1  0.50308257  0.11419468  0.49786134  1
  O  O321  1  0.50478885  0.61704394  0.00937119  1
  O  O322  1  0.49850364  0.61754574  0.51033235  1
  O  O323  1  0.49813675  0.38025081  0.49082917  1
  O  O324  1  0.49483271  0.37547221  0.99173971  1
  O  O325  1  0.49568043  0.88775359  0.49282569  1
  O  O326  1  0.50942768  0.88244998  0.99223578  1
  O  O327  1  1.00671017  0.38174285  0.49488986  1
  O  O328  1  0.99704438  0.38396496  1.00370182  1
  O  O329  1  1.00129935  0.88519850  0.48833363  1
  O  O330  1  0.98758190  0.87393251  0.99546385  1
  O  O331  1  0.49478870  0.49681924  0.37879194  1
  O  O332  1  0.49423120  0.48825188  0.87714565  1
  O  O333  1  0.49333752  0.99433392  0.38070212  1
  O  O334  1  0.49700459  0.99158877  0.88125915  1
  O  O335  1  0.99758416  0.49431462  0.38058156  1
  O  O336  1  1.00115307  0.50045403  0.88837338  1
  O  O337  1  0.97896154  0.96517052  0.33290466  1
  O  O338  1  0.99122271  0.98698979  0.87733248  1
  O  O339  1  0.00184179  0.01101708  0.12509051  1
  O  O340  1  -0.00451652  0.01128741  0.63652260  1
  O  O341  1  0.00888862  0.50880754  0.11646498  1
  O  O342  1  0.00646153  0.50900011  0.61645920  1
  O  O343  1  0.50081769  0.00539665  0.11356102  1
  O  O344  1  0.50512704  0.00358775  0.61664521  1
  O  O345  1  0.50178042  0.50597763  0.12084431  1
  O  O346  1  0.49981824  0.50656471  0.61703028  1
  O  O347  1  0.24406894  0.38288194  0.24624263  1
  O  O348  1  0.24544983  0.38272418  0.74322264  1
  O  O349  1  0.24070832  0.88559710  0.24916882  1
  O  O350  1  0.24041020  0.87870803  0.74904540  1
  O  O351  1  0.74027989  0.38322244  0.25362645  1
  O  O352  1  0.74610969  0.37747118  0.74465065  1
  O  O353  1  0.74889075  0.88261961  0.24074378  1
  O  O354  1  0.73454998  0.88361671  0.75793095  1
  O  O355  1  0.24652889  0.11984928  0.25671896  1
  O  O356  1  0.25471191  0.11534452  0.75646279  1
  O  O357  1  0.24283129  0.61259956  0.26108740  1
  O  O358  1  0.24895304  0.61130452  0.75090137  1
  O  O359  1  0.74824795  0.12200262  0.26051623  1
  O  O360  1  0.75277944  0.12104211  0.75671054  1
  O  O361  1  0.76210951  0.61900892  0.24675419  1
  O  O362  1  0.75613707  0.61242078  0.74273331  1
  O  O363  1  0.38102622  0.11269161  0.37101849  1
  O  O364  1  0.36769456  0.11693172  0.86783734  1
  O  O365  1  0.36718501  0.61244371  0.38431230  1
  O  O366  1  0.37562892  0.61436005  0.87137986  1
  O  O367  1  0.86360498  0.12996172  0.37579423  1
  O  O368  1  0.86824502  0.11836121  0.86992180  1
  O  O369  1  0.88964096  0.62216284  0.36323738  1
  O  O370  1  0.88763883  0.60987621  0.87422080  1
  O  O371  1  0.13344030  0.38124752  0.13151277  1
  O  O372  1  0.13464522  0.38062209  0.63688870  1
  O  O373  1  0.13568002  0.87388780  0.13302281  1
  O  O374  1  0.12999443  0.86707109  0.63861586  1
  O  O375  1  0.61930745  0.36425755  0.14189778  1
  O  O376  1  0.63626542  0.37847715  0.63123333  1
  O  O377  1  0.63800303  0.86660697  0.12360545  1
  O  O378  1  0.61771398  0.88405755  0.63390059  1
  O  O379  1  0.11746188  0.26371414  0.24529180  1
  O  O380  1  0.11887800  0.25671863  0.75551659  1
  O  O381  1  0.13840339  0.75962691  0.25008938  1
  O  O382  1  0.12873303  0.75614352  0.76465473  1
  O  O383  1  0.61892586  0.25565837  0.25918033  1
  O  O384  1  0.62515311  0.26185600  0.75051229  1
  O  O385  1  0.61350084  0.75578159  0.26129602  1
  O  O386  1  0.62499586  0.75778877  0.75783366  1
  O  O387  1  0.38076944  0.24774788  0.24304764  1
  O  O388  1  0.37062145  0.23327519  0.75455295  1
  O  O389  1  0.38345111  0.75674379  0.24835645  1
  O  O390  1  0.37949338  0.74620152  0.73928722  1
  O  O391  1  0.88704348  0.25239295  0.25340678  1
  O  O392  1  0.88184198  0.24647022  0.74845017  1
  O  O393  1  0.86838393  0.74605914  0.23957708  1
  O  O394  1  0.86738158  0.75101240  0.73125479  1
  O  O395  1  0.38450062  0.49415167  0.49305384  1
  O  O396  1  0.36915575  0.49274690  0.98753595  1
  O  O397  1  0.37643758  0.99865348  0.49328599  1
  O  O398  1  0.39092229  1.00935662  0.98176339  1
  O  O399  1  0.89353828  0.50052500  0.49336899  1
  O  O400  1  0.88589558  0.49515209  0.99592956  1
  O  O401  1  0.87116110  0.98247145  0.51145002  1
  O  O402  1  0.87428417  0.98908921  0.99246003  1
  O  O403  1  0.12159982  0.00790416  0.00062972  1
  O  O404  1  0.16673931  0.01530232  0.51417949  1
  O  O405  1  0.12312468  0.50602830  0.00527223  1
  O  O406  1  0.11817832  0.50579257  0.50519894  1
  O  O407  1  0.61822908  0.01193977  -0.00682787  1
  O  O408  1  0.61533848  0.00370590  0.50613884  1
  O  O409  1  0.63910251  0.48565810  0.00307331  1
  O  O410  1  0.60740821  0.49173520  0.50271045  1
  O  O411  1  0.37007426  0.36908414  0.12000668  1
  O  O412  1  0.35871747  0.38142173  0.62756030  1
  O  O413  1  0.35831754  0.91633966  0.10909597  1
  O  O414  1  0.36574407  0.86732849  0.62517543  1
  O  O415  1  0.88176548  0.37959069  0.11146715  1
  O  O416  1  0.87141633  0.36767390  0.62530572  1
  O  O417  1  0.86908563  0.86807618  0.11836209  1
  O  O418  1  0.87263692  0.86144568  0.61612316  1
  O  O419  1  0.10654771  0.12113036  0.38263442  1
  O  O420  1  0.12860263  0.12820649  0.88410932  1
  O  O421  1  0.13250370  0.62297796  0.38820023  1
  O  O422  1  0.12537040  0.63250454  0.88289421  1
  O  O423  1  0.63074658  0.13219902  0.38307323  1
  O  O424  1  0.63171155  0.12634424  0.87973375  1
  O  O425  1  0.62019534  0.64084436  0.37734223  1
  O  O426  1  0.62020088  0.63652302  0.86678157  1
