# generated using pymatgen
data_V85Zn86O256
_symmetry_space_group_name_H-M   'P 1'
_cell_length_a   16.90505184
_cell_length_b   16.90594482
_cell_length_c   16.90970084
_cell_angle_alpha   89.96971701
_cell_angle_beta   90.02102314
_cell_angle_gamma   90.04217684
_symmetry_Int_Tables_number   1
_chemical_formula_structural   V85Zn86O256
_chemical_formula_sum   'V85 Zn86 O256'
_cell_volume   4832.72041493
_cell_formula_units_Z   1
loop_
 _symmetry_equiv_pos_site_id
 _symmetry_equiv_pos_as_xyz
  1  'x, y, z'
loop_
 _atom_site_type_symbol
 _atom_site_label
 _atom_site_symmetry_multiplicity
 _atom_site_fract_x
 _atom_site_fract_y
 _atom_site_fract_z
 _atom_site_occupancy
  V  V0  1  0.12690837  0.87480827  0.75587230  1
  V  V1  1  0.75117769  0.12309959  0.87577304  1
  V  V2  1  0.74667318  0.74950436  0.50034204  1
  V  V3  1  0.00434222  0.50210718  -0.00389587  1
  V  V4  1  0.62673322  -0.00890489  0.12604229  1
  V  V5  1  0.74999532  0.38000744  0.12623321  1
  V  V6  1  0.12885726  0.37798583  0.75224632  1
  V  V7  1  0.12773379  0.12756615  0.00109652  1
  V  V8  1  0.87997979  0.37441617  -0.00171179  1
  V  V9  1  -0.00417514  0.75401733  0.24403023  1
  V  V10  1  0.75671676  0.75179886  0.00202081  1
  V  V11  1  0.74616531  0.23557019  0.49733861  1
  V  V12  1  0.49978622  0.74961926  0.75350627  1
  V  V13  1  -0.00069387  0.25559941  0.75594551  1
  V  V14  1  0.48812123  -0.00386699  -0.00287290  1
  V  V15  1  0.48664339  0.87495061  0.87882376  1
  V  V16  1  0.11724980  0.62425614  0.49612658  1
  V  V17  1  -0.00006570  0.74030582  0.74899620  1
  V  V18  1  0.49347819  0.38117366  0.37459876  1
  V  V19  1  0.25419409  0.00002844  0.75641859  1
  V  V20  1  0.25394349  0.13007896  0.87846527  1
  V  V21  1  0.87754060  0.12105108  0.75171490  1
  V  V22  1  0.62362554  0.63076729  -0.00513685  1
  V  V23  1  0.50598425  0.12609745  0.62113249  1
  V  V24  1  0.62232660  0.50523502  0.61511653  1
  V  V25  1  0.87007220  0.37305257  0.49814731  1
  V  V26  1  0.25866270  0.87648546  0.11888290  1
  V  V27  1  0.36635083  0.62646361  0.74562581  1
  V  V28  1  0.25342276  0.37209742  0.11431034  1
  V  V29  1  -0.00068135  0.13306953  0.13442371  1
  V  V30  1  0.25576280  0.74397351  -0.00004170  1
  V  V31  1  0.49981224  0.62654387  0.12480915  1
  V  V32  1  -0.00520331  0.50110630  0.50220278  1
  V  V33  1  0.74788301  0.50038594  0.74815536  1
  V  V34  1  0.50196482  0.87566200  0.37524140  1
  V  V35  1  0.86810112  0.62896646  0.24520674  1
  V  V36  1  0.37519579  0.62638643  0.25330043  1
  V  V37  1  0.49233039  0.37470751  0.87608813  1
  V  V38  1  0.75849002  0.87163074  0.13565479  1
  V  V39  1  0.25891345  0.13313840  0.38343555  1
  V  V40  1  0.48742886  0.50359995  0.49760923  1
  V  V41  1  0.62860929  0.38018007  0.25170157  1
  V  V42  1  0.49813090  0.25019619  0.24827205  1
  V  V43  1  0.12447067  -0.00059151  0.12547779  1
  V  V44  1  0.74716008  0.00720714  0.26149949  1
  V  V45  1  0.50083336  0.12405140  0.12334740  1
  V  V46  1  0.74665594  0.62941322  0.87216901  1
  V  V47  1  0.62575617  0.50158503  0.12651053  1
  V  V48  1  0.12641187  0.50306976  0.62573464  1
  V  V49  1  0.12365693  0.25515558  0.88098697  1
  V  V50  1  0.89856124  -0.00076392  0.38156011  1
  V  V51  1  0.62650741  0.12225458  -0.00000503  1
  V  V52  1  0.62788288  0.87148677  0.75934823  1
  V  V53  1  0.26186662  0.75072325  0.50070397  1
  V  V54  1  0.62225518  0.37625163  0.74788293  1
  V  V55  1  0.12637739  0.00003005  0.62182937  1
  V  V56  1  0.74259688  0.62040801  0.37377571  1
  V  V57  1  0.24643018  0.62652322  0.37361453  1
  V  V58  1  0.62593508  0.75147836  0.37580050  1
  V  V59  1  0.49731704  0.63421164  0.61971485  1
  V  V60  1  0.62834562  -0.00215975  0.62300325  1
  V  V61  1  0.25409451  0.49797655  0.25366226  1
  V  V62  1  0.75127006  0.25029411  0.00166699  1
  V  V63  1  0.87347161  0.24928991  0.62443110  1
  V  V64  1  0.50204021  0.00358707  0.49909683  1
  V  V65  1  0.87015063  0.49814153  0.36641542  1
  V  V66  1  0.62585294  0.23963387  0.37909624  1
  V  V67  1  -0.00211586  0.62865990  0.12069638  1
  V  V68  1  0.06608467  0.80728317  0.42033370  1
  V  V69  1  0.87674841  0.49639978  0.87300420  1
  V  V70  1  0.37355724  0.25394283  0.11055021  1
  V  V71  1  0.12685575  0.50584583  0.12433146  1
  V  V72  1  0.87803339  0.74395799  0.62265900  1
  V  V73  1  0.50365544  0.75746929  0.24837615  1
  V  V74  1  0.37852344  0.12081662  0.75318802  1
  V  V75  1  0.12698488  0.86897604  0.24788732  1
  V  V76  1  -0.00180499  0.87553165  0.87768498  1
  V  V77  1  0.12034922  0.36920225  0.24984238  1
  V  V78  1  0.12515086  0.74053552  0.88250734  1
  V  V79  1  0.00057610  0.12070711  0.61846180  1
  V  V80  1  0.36805717  0.49995473  0.87082015  1
  V  V81  1  0.49877546  0.24980604  0.74826815  1
  V  V82  1  0.49364662  0.49805687  -0.00060640  1
  V  V83  1  0.12012010  0.24965323  0.38213763  1
  V  V84  1  0.24864274  0.36943964  0.61772947  1
  Zn  Zn85  1  0.13153829  0.12764782  0.50520343  1
  Zn  Zn86  1  0.37325735  0.12346273  0.24832393  1
  Zn  Zn87  1  0.38177352  0.87235133  0.50866104  1
  Zn  Zn88  1  0.25912890  0.86728289  0.63278762  1
  Zn  Zn89  1  0.62429501  0.25033325  0.87489080  1
  Zn  Zn90  1  0.87688053  0.61987904  0.74319042  1
  Zn  Zn91  1  0.36690791  0.24427958  0.61773179  1
  Zn  Zn92  1  0.87413240  0.13294630  0.26256398  1
  Zn  Zn93  1  0.38003633  0.75515938  0.12037679  1
  Zn  Zn94  1  -0.00652856  0.36846773  0.36765090  1
  Zn  Zn95  1  0.88270390  0.87537487  0.49710008  1
  Zn  Zn96  1  0.88069300  0.25475080  0.13435242  1
  Zn  Zn97  1  0.37565646  -0.00115867  0.37393846  1
  Zn  Zn98  1  0.74645471  0.37411433  0.62300444  1
  Zn  Zn99  1  0.75206805  -0.00294039  0.74876626  1
  Zn  Zn100  1  0.87789051  0.87380950  0.00474473  1
  Zn  Zn101  1  0.25308358  0.00066646  0.25327887  1
  Zn  Zn102  1  0.24626097  0.61875875  0.87564240  1
  Zn  Zn103  1  -0.00167182  -0.00035894  0.00182218  1
  Zn  Zn104  1  0.75363077  0.87384778  0.62579646  1
  Zn  Zn105  1  0.87439154  -0.00395941  0.87785725  1
  Zn  Zn106  1  0.36524542  0.37198002  0.48833768  1
  Zn  Zn107  1  0.19082729  0.18917214  0.19293673  1
  Zn  Zn108  1  0.18665668  0.18882615  0.69145717  1
  Zn  Zn109  1  0.18556755  0.68952037  0.18517963  1
  Zn  Zn110  1  0.18383815  0.68478346  0.68424911  1
  Zn  Zn111  1  0.68804597  0.18859271  0.18762006  1
  Zn  Zn112  1  0.68755084  0.18764715  0.68721704  1
  Zn  Zn113  1  0.68602117  0.69019331  0.18838906  1
  Zn  Zn114  1  0.68389579  0.68796673  0.68596388  1
  Zn  Zn115  1  0.31026177  0.30951098  0.30789228  1
  Zn  Zn116  1  0.31028580  0.31064526  0.80751691  1
  Zn  Zn117  1  0.31396516  0.81148110  0.31402427  1
  Zn  Zn118  1  0.31482960  0.80793902  0.81344173  1
  Zn  Zn119  1  0.80895957  0.30902250  0.31058526  1
  Zn  Zn120  1  0.81075384  0.31224127  0.81311911  1
  Zn  Zn121  1  0.81635726  0.81658802  0.31499367  1
  Zn  Zn122  1  0.81318690  0.80902351  0.81180220  1
  Zn  Zn123  1  0.18543150  0.43947689  0.43509025  1
  Zn  Zn124  1  0.18559854  0.43632780  0.93820195  1
  Zn  Zn125  1  0.19575061  0.94356004  0.43990904  1
  Zn  Zn126  1  0.19053142  0.93791212  0.93911844  1
  Zn  Zn127  1  0.68537472  0.43482550  0.43657321  1
  Zn  Zn128  1  0.68498981  0.44041783  0.93696358  1
  Zn  Zn129  1  0.68448263  0.93285126  0.43942226  1
  Zn  Zn130  1  0.68725066  0.93689955  0.93907539  1
  Zn  Zn131  1  0.31094862  0.06642014  0.06455333  1
  Zn  Zn132  1  0.31684217  0.05862687  0.56460845  1
  Zn  Zn133  1  0.31356374  0.56462067  0.06358880  1
  Zn  Zn134  1  0.30895292  0.56115932  0.56454265  1
  Zn  Zn135  1  0.81645726  0.05772108  0.06350527  1
  Zn  Zn136  1  0.81581302  0.05754828  0.55822104  1
  Zn  Zn137  1  0.81338414  0.56231299  0.06126721  1
  Zn  Zn138  1  0.80849899  0.56472972  0.55936341  1
  Zn  Zn139  1  0.43593017  0.43738433  0.18739434  1
  Zn  Zn140  1  0.43414474  0.44183984  0.68616579  1
  Zn  Zn141  1  0.43742801  0.94007932  0.18919343  1
  Zn  Zn142  1  0.43743380  0.93623075  0.68741178  1
  Zn  Zn143  1  0.93783598  0.44011966  0.18605160  1
  Zn  Zn144  1  0.93940458  0.43542820  0.68493013  1
  Zn  Zn145  1  0.93630896  0.94309099  0.19393493  1
  Zn  Zn146  1  0.93866994  0.93330029  0.68673740  1
  Zn  Zn147  1  0.07214534  0.06403447  0.31214270  1
  Zn  Zn148  1  0.06376849  0.06339738  0.81189736  1
  Zn  Zn149  1  0.05966550  0.56177963  0.31225799  1
  Zn  Zn150  1  0.06228258  0.55903083  0.81285193  1
  Zn  Zn151  1  0.56388421  0.06093361  0.30871934  1
  Zn  Zn152  1  0.56447592  0.05707273  0.81275834  1
  Zn  Zn153  1  0.56147878  0.56317888  0.31245637  1
  Zn  Zn154  1  0.55958891  0.56279949  0.80982419  1
  Zn  Zn155  1  0.43912296  0.19222964  0.44175962  1
  Zn  Zn156  1  0.43927156  0.18545754  0.93609249  1
  Zn  Zn157  1  0.43818401  0.68351025  0.43317138  1
  Zn  Zn158  1  0.43587605  0.68894326  0.93300763  1
  Zn  Zn159  1  0.93795559  0.18447405  0.43596929  1
  Zn  Zn160  1  0.94044708  0.18667043  0.94147189  1
  Zn  Zn161  1  0.92818143  0.68163898  0.43814031  1
  Zn  Zn162  1  0.93474914  0.68494372  0.93527554  1
  Zn  Zn163  1  0.06501511  0.31563969  0.06253365  1
  Zn  Zn164  1  0.05874909  0.31302873  0.56180181  1
  Zn  Zn165  1  0.06658866  0.81086836  0.06142437  1
  Zn  Zn166  1  0.06934638  0.80899563  0.58223058  1
  Zn  Zn167  1  0.56267376  0.31282802  0.05999950  1
  Zn  Zn168  1  0.55706037  0.31408300  0.55921796  1
  Zn  Zn169  1  0.56740275  0.81269483  0.05860262  1
  Zn  Zn170  1  0.56577759  0.81347137  0.56244806  1
  O  O171  1  0.12198525  0.12057428  0.12100924  1
  O  O172  1  0.11887530  0.11859251  0.62852847  1
  O  O173  1  0.11667395  0.61268996  0.13058802  1
  O  O174  1  0.12651060  0.61666978  0.60961792  1
  O  O175  1  0.62052723  0.11701464  0.11886427  1
  O  O176  1  0.61361085  0.11488661  0.63491684  1
  O  O177  1  0.62001301  0.61990881  0.11849621  1
  O  O178  1  0.61244424  0.61524058  0.62956736  1
  O  O179  1  0.38899893  0.37275228  0.36759423  1
  O  O180  1  0.38458197  0.38147459  0.86518840  1
  O  O181  1  0.38932154  0.87348319  0.37937250  1
  O  O182  1  0.38772559  0.87651008  0.87337176  1
  O  O183  1  0.87203564  0.38226173  0.37930776  1
  O  O184  1  0.86846280  0.38684982  0.88300691  1
  O  O185  1  0.87443380  0.89253641  0.37713334  1
  O  O186  1  0.88543574  0.87341387  0.87559481  1
  O  O187  1  0.25326594  0.01561040  0.37450926  1
  O  O188  1  0.24289273  0.01247775  0.86473550  1
  O  O189  1  0.24659740  0.51210034  0.36665547  1
  O  O190  1  0.26328359  0.49959543  0.88173365  1
  O  O191  1  0.74070055  -0.00266507  0.36163402  1
  O  O192  1  0.75095914  0.01207750  0.87305464  1
  O  O193  1  0.75669644  0.50825684  0.38075092  1
  O  O194  1  0.75519639  0.50790302  0.86947743  1
  O  O195  1  0.24298500  0.49668112  0.13001371  1
  O  O196  1  0.23328259  0.49144419  0.62167142  1
  O  O197  1  0.24043490  0.99418842  0.12545282  1
  O  O198  1  0.24412903  1.00229607  0.64084767  1
  O  O199  1  0.74269620  0.48798391  0.11709691  1
  O  O200  1  0.74025910  0.50014994  0.62932532  1
  O  O201  1  0.74590423  0.98975242  0.13158386  1
  O  O202  1  0.74289161  0.99750860  0.62617620  1
  O  O203  1  0.01538302  0.38380474  0.25026304  1
  O  O204  1  0.00918704  0.36229475  0.74375768  1
  O  O205  1  0.00561600  0.86169401  0.24123798  1
  O  O206  1  0.00858453  0.86446647  0.75719527  1
  O  O207  1  0.50945298  0.37067654  0.25270736  1
  O  O208  1  0.50403418  0.37129320  0.75358548  1
  O  O209  1  0.49796840  0.86378169  0.25497634  1
  O  O210  1  0.50434158  0.87031379  0.76083865  1
  O  O211  1  0.50115602  0.13400416  0.24121706  1
  O  O212  1  0.49474662  0.12850258  0.74844220  1
  O  O213  1  0.49265069  0.63267649  0.24634762  1
  O  O214  1  0.49404184  0.63337818  0.74419503  1
  O  O215  1  1.00425190  0.12188107  0.23637132  1
  O  O216  1  0.99317398  0.13422972  0.74622208  1
  O  O217  1  0.99298043  0.63368290  0.24384134  1
  O  O218  1  0.99748000  0.63632323  0.75608737  1
  O  O219  1  0.38310647  0.25137168  0.01108839  1
  O  O220  1  0.38572758  0.26252426  0.50845897  1
  O  O221  1  0.36151398  0.74876940  0.00063223  1
  O  O222  1  0.36379565  0.74554685  0.49900669  1
  O  O223  1  0.87121731  0.25922851  0.00425353  1
  O  O224  1  0.86718529  0.25536195  0.50080814  1
  O  O225  1  0.86106943  0.74855721  -0.00015152  1
  O  O226  1  0.86891396  0.75322817  0.50504897  1
  O  O227  1  0.12473419  0.25161103  0.48687039  1
  O  O228  1  0.12124511  0.24585420  0.98906171  1
  O  O229  1  0.12268345  0.74730540  0.48954101  1
  O  O230  1  0.13585744  0.75060415  0.99091848  1
  O  O231  1  0.62987969  0.25625918  0.48695955  1
  O  O232  1  0.63193676  0.24211812  0.99722689  1
  O  O233  1  0.63054748  0.74998601  0.48669994  1
  O  O234  1  0.63579512  0.73672369  1.00238789  1
  O  O235  1  0.49695401  0.24739913  0.13102033  1
  O  O236  1  0.50444632  0.24160828  0.63275458  1
  O  O237  1  0.50280200  0.74642714  0.13116502  1
  O  O238  1  0.50391870  0.73910391  0.62964530  1
  O  O239  1  1.00354655  0.23658579  0.12231998  1
  O  O240  1  0.99390335  0.24255218  0.63302418  1
  O  O241  1  1.00494609  0.73744380  0.12905296  1
  O  O242  1  0.99318217  0.74795991  0.63669714  1
  O  O243  1  0.01473963  0.24951866  0.37586794  1
  O  O244  1  0.00844493  0.24607390  0.86693757  1
  O  O245  1  0.00057751  0.74735867  0.36687873  1
  O  O246  1  0.00712647  0.75621472  0.87217521  1
  O  O247  1  0.50983776  0.25780365  0.36762215  1
  O  O248  1  0.50115395  0.25886229  0.86816112  1
  O  O249  1  0.50641026  0.75372386  0.36918838  1
  O  O250  1  0.50032931  0.76293280  0.86919142  1
  O  O251  1  0.25158919  0.12309217  0.48902065  1
  O  O252  1  0.23803842  0.12247771  0.99329236  1
  O  O253  1  0.24313242  0.63208235  0.49304137  1
  O  O254  1  0.24997250  0.63867170  0.99959112  1
  O  O255  1  0.75124551  0.13640454  0.50388462  1
  O  O256  1  0.74802810  0.12872438  0.99529962  1
  O  O257  1  0.75501798  0.63796149  0.48664809  1
  O  O258  1  0.74359337  0.62911877  0.99473539  1
  O  O259  1  0.24700949  0.37768372  0.01496468  1
  O  O260  1  0.24776960  0.38056971  0.51297027  1
  O  O261  1  0.24510742  0.86389810  0.00814502  1
  O  O262  1  0.25269787  0.85886366  0.49487194  1
  O  O263  1  0.75707173  0.37182607  0.00405284  1
  O  O264  1  0.75921419  0.36937345  0.50080419  1
  O  O265  1  0.75073997  0.86733438  0.00862676  1
  O  O266  1  0.75061160  0.86088780  0.50144275  1
  O  O267  1  0.13458077  0.49606405  0.24388683  1
  O  O268  1  0.11519074  0.49063908  0.73918691  1
  O  O269  1  0.12838968  0.98729267  0.24341179  1
  O  O270  1  0.13277143  0.99222188  0.74744728  1
  O  O271  1  0.61799696  0.49248641  0.23906711  1
  O  O272  1  0.62611557  0.49339803  0.74078256  1
  O  O273  1  0.63656767  1.00287369  0.23991664  1
  O  O274  1  0.62661912  0.99049436  0.74030132  1
  O  O275  1  0.37303912  0.00480732  0.25508711  1
  O  O276  1  0.36955434  0.01220779  0.75020350  1
  O  O277  1  0.36159770  0.50806048  0.24352926  1
  O  O278  1  0.38093589  0.51243116  0.76004625  1
  O  O279  1  0.86494536  0.00415007  0.26327382  1
  O  O280  1  0.87539608  0.01038898  0.75263793  1
  O  O281  1  0.87902633  0.50807382  0.26078361  1
  O  O282  1  0.87063602  0.49815853  0.75541488  1
  O  O283  1  0.12514812  0.36472442  0.36906071  1
  O  O284  1  0.12838880  0.36711509  0.86687376  1
  O  O285  1  0.12716443  0.87442482  0.36900066  1
  O  O286  1  0.12111314  0.86635468  0.86860184  1
  O  O287  1  0.61605294  0.37104456  0.36596287  1
  O  O288  1  0.61410621  0.37867978  0.86353398  1
  O  O289  1  0.61282345  0.86559027  0.37484698  1
  O  O290  1  0.62032704  0.87900697  0.86283125  1
  O  O291  1  0.38231156  0.13495587  0.12582702  1
  O  O292  1  0.38791991  0.12378194  0.63331544  1
  O  O293  1  0.38193411  0.62860864  0.13491968  1
  O  O294  1  0.38364025  0.61768852  0.63366132  1
  O  O295  1  0.89326607  0.12408754  0.12369728  1
  O  O296  1  0.88143321  0.12780489  0.63312124  1
  O  O297  1  0.88320464  0.61735169  0.13517572  1
  O  O298  1  0.87091100  0.63719776  0.62470959  1
  O  O299  1  0.26100078  0.25904383  0.13092853  1
  O  O300  1  0.24597773  0.26448577  0.62693389  1
  O  O301  1  0.24956464  0.75630762  0.11382356  1
  O  O302  1  0.23803592  0.74932077  0.60405649  1
  O  O303  1  0.74860486  0.26294283  0.11795927  1
  O  O304  1  0.75497855  0.25165520  0.61716058  1
  O  O305  1  0.74398850  0.76503939  0.12064867  1
  O  O306  1  0.75489286  0.74880540  0.61617349  1
  O  O307  1  0.24224474  0.24021637  0.37375879  1
  O  O308  1  0.24004542  0.23845497  0.86879462  1
  O  O309  1  0.25133137  0.73712729  0.38454995  1
  O  O310  1  0.24379330  0.74923922  0.88572755  1
  O  O311  1  0.73362618  0.25496665  0.38148849  1
  O  O312  1  0.74935520  0.23951879  0.88194780  1
  O  O313  1  0.74350941  0.74584386  0.37769660  1
  O  O314  1  0.75284931  0.73628627  0.88210363  1
  O  O315  1  0.01304675  0.12268743  0.00878079  1
  O  O316  1  0.00458991  0.12921756  0.51585718  1
  O  O317  1  -0.00714494  0.61608761  0.00910365  1
  O  O318  1  0.00496473  0.61534253  0.49338397  1
  O  O319  1  0.50735990  0.11679628  0.00285729  1
  O  O320  1  0.50189978  0.11741538  0.50937496  1
  O  O321  1  0.50660777  0.62208039  0.00255213  1
  O  O322  1  0.49501077  0.61791331  0.50757515  1
  O  O323  1  0.50002444  0.38617488  0.48947839  1
  O  O324  1  0.50652345  0.38547264  0.98814099  1
  O  O325  1  0.50172379  0.88171009  0.49247553  1
  O  O326  1  0.50539864  0.87941598  0.98695888  1
  O  O327  1  0.98540878  0.37902336  0.49522300  1
  O  O328  1  0.98732692  0.38446188  1.00739216  1
  O  O329  1  1.01220511  0.85905965  0.48910346  1
  O  O330  1  0.99975528  0.87379191  0.99213063  1
  O  O331  1  0.50505215  0.49436185  0.38494629  1
  O  O332  1  0.49170452  0.49417090  0.88032737  1
  O  O333  1  0.50472982  0.99321430  0.38162544  1
  O  O334  1  0.50396941  0.98657464  0.88337251  1
  O  O335  1  0.98918878  0.49673289  0.38383370  1
  O  O336  1  0.99113258  0.50355143  0.88496280  1
  O  O337  1  0.99757812  0.99835484  0.37178944  1
  O  O338  1  1.00381180  0.98514356  0.87346338  1
  O  O339  1  0.01197429  0.00721178  0.12635822  1
  O  O340  1  0.01207364  0.00856551  0.63691957  1
  O  O341  1  0.00696976  0.50847869  0.11894925  1
  O  O342  1  0.00757796  0.49319998  0.60994885  1
  O  O343  1  0.50918873  0.00127430  0.11863078  1
  O  O344  1  0.50735256  0.00611478  0.61895161  1
  O  O345  1  0.50310660  0.50534762  0.11678127  1
  O  O346  1  0.50431690  0.50720498  0.61680917  1
  O  O347  1  0.24214605  0.38372498  0.24511699  1
  O  O348  1  0.23485621  0.37267696  0.74055455  1
  O  O349  1  0.24270106  0.87213660  0.24221249  1
  O  O350  1  0.24461417  0.88147535  0.75611963  1
  O  O351  1  0.73658716  0.37423043  0.24200149  1
  O  O352  1  0.73990862  0.38092654  0.74873743  1
  O  O353  1  0.75200311  0.88351647  0.24000539  1
  O  O354  1  0.74234563  0.87449100  0.74880034  1
  O  O355  1  0.25203754  0.12364991  0.26478078  1
  O  O356  1  0.25727575  0.12021629  0.75719801  1
  O  O357  1  0.25406542  0.62240753  0.25471683  1
  O  O358  1  0.26211989  0.63338850  0.75108714  1
  O  O359  1  0.75301147  0.11021151  0.24264234  1
  O  O360  1  0.76056724  0.12638779  0.75800123  1
  O  O361  1  0.76008103  0.63003770  0.25487445  1
  O  O362  1  0.74954497  0.61961699  0.75701416  1
  O  O363  1  0.36726449  0.12981023  0.37381035  1
  O  O364  1  0.36546868  0.12984316  0.86833749  1
  O  O365  1  0.36747612  0.62595387  0.36056502  1
  O  O366  1  0.37338474  0.61732605  0.86600357  1
  O  O367  1  0.87923562  0.10697266  0.37736383  1
  O  O368  1  0.87023275  0.12465610  0.86843658  1
  O  O369  1  0.86445221  0.61758216  0.36545508  1
  O  O370  1  0.86593033  0.61248326  0.87241708  1
  O  O371  1  0.13122400  0.38328650  0.13225271  1
  O  O372  1  0.13082562  0.37945928  0.62916157  1
  O  O373  1  0.13222647  0.88178237  0.13048883  1
  O  O374  1  0.13363589  0.88182233  0.64059543  1
  O  O375  1  0.63014488  0.38063681  0.12993164  1
  O  O376  1  0.62198621  0.38228868  0.63466030  1
  O  O377  1  0.63537626  0.88566399  0.12072416  1
  O  O378  1  0.62528894  0.88177016  0.63635417  1
  O  O379  1  0.12970004  0.26010484  0.26230882  1
  O  O380  1  0.11719627  0.25543781  0.75934999  1
  O  O381  1  0.11729762  0.76057972  0.24814658  1
  O  O382  1  0.12000938  0.75619720  0.75502404  1
  O  O383  1  0.61732687  0.25724086  0.25626920  1
  O  O384  1  0.61969730  0.25971276  0.75251288  1
  O  O385  1  0.61554843  0.74446377  0.26227982  1
  O  O386  1  0.61172233  0.75771402  0.74610740  1
  O  O387  1  0.38964633  0.25042928  0.24370357  1
  O  O388  1  0.37987927  0.23867635  0.74344531  1
  O  O389  1  0.38374366  0.74331386  0.24631285  1
  O  O390  1  0.38837148  0.74151433  0.75352072  1
  O  O391  1  0.87221934  0.24522231  0.24723987  1
  O  O392  1  0.88100371  0.24384418  0.74705139  1
  O  O393  1  0.88327805  0.74201035  0.25353833  1
  O  O394  1  0.88332973  0.74671756  0.74264948  1
  O  O395  1  0.38379960  0.49416802  0.50269021  1
  O  O396  1  0.38793510  0.50736273  0.99304833  1
  O  O397  1  0.39011209  0.99851619  0.49621887  1
  O  O398  1  0.38893475  1.00424437  1.00594943  1
  O  O399  1  0.87759316  0.49366958  0.49369444  1
  O  O400  1  0.88138479  0.49397103  0.99258985  1
  O  O401  1  0.87977507  0.99455048  0.48805003  1
  O  O402  1  0.88100485  0.99422772  0.99539385  1
  O  O403  1  0.12334336  0.00784823  0.00825280  1
  O  O404  1  0.13187467  0.00000173  0.51819205  1
  O  O405  1  0.11289830  0.49527323  0.00754700  1
  O  O406  1  0.11495531  0.50594822  0.50299271  1
  O  O407  1  0.62063855  0.00566505  0.00783870  1
  O  O408  1  0.61672245  -0.00595361  0.51298767  1
  O  O409  1  0.61503433  0.50943226  0.00511807  1
  O  O410  1  0.61800683  0.49453190  0.51171924  1
  O  O411  1  0.36601310  0.36743618  0.12949170  1
  O  O412  1  0.35365902  0.37901785  0.63204417  1
  O  O413  1  0.36234103  0.87461874  0.12800058  1
  O  O414  1  0.37055344  0.87679525  0.62237493  1
  O  O415  1  0.86676694  0.37774843  0.11819560  1
  O  O416  1  0.87201382  0.36728444  0.61611550  1
  O  O417  1  0.86174279  0.87937802  0.12622339  1
  O  O418  1  0.87557656  0.86245247  0.62041249  1
  O  O419  1  0.13372311  0.13564621  0.37948788  1
  O  O420  1  0.12936636  0.13231205  0.88282819  1
  O  O421  1  0.13106972  0.62038761  0.38536447  1
  O  O422  1  0.12792873  0.63590131  0.86896201  1
  O  O423  1  0.62003766  0.14128313  0.37155046  1
  O  O424  1  0.63384292  0.12535564  0.88004067  1
  O  O425  1  0.63684294  0.62965110  0.36973926  1
  O  O426  1  0.63317800  0.61642680  0.88327885  1
