# generated using pymatgen
data_V85Zn86O256
_symmetry_space_group_name_H-M   'P 1'
_cell_length_a   16.94934818
_cell_length_b   16.93843766
_cell_length_c   16.95908231
_cell_angle_alpha   89.95156960
_cell_angle_beta   89.91633729
_cell_angle_gamma   90.01078731
_symmetry_Int_Tables_number   1
_chemical_formula_structural   V85Zn86O256
_chemical_formula_sum   'V85 Zn86 O256'
_cell_volume   4868.86881876
_cell_formula_units_Z   1
loop_
 _symmetry_equiv_pos_site_id
 _symmetry_equiv_pos_as_xyz
  1  'x, y, z'
loop_
 _atom_site_type_symbol
 _atom_site_label
 _atom_site_symmetry_multiplicity
 _atom_site_fract_x
 _atom_site_fract_y
 _atom_site_fract_z
 _atom_site_occupancy
  V  V0  1  -0.00211239  0.62245266  0.62898699  1
  V  V1  1  0.49963586  0.74792460  0.75244797  1
  V  V2  1  0.74761179  0.49029186  0.24738438  1
  V  V3  1  -0.01529218  0.24412439  0.24655360  1
  V  V4  1  0.49472139  0.87338121  0.88491843  1
  V  V5  1  0.62167843  0.75440382  0.36622921  1
  V  V6  1  0.24962613  0.50010610  0.75275503  1
  V  V7  1  0.87762905  0.50416269  0.88224033  1
  V  V8  1  0.62260939  0.12707417  0.49979498  1
  V  V9  1  0.62329197  0.49843313  0.62916074  1
  V  V10  1  0.62579447  0.36480190  0.75305919  1
  V  V11  1  0.11826738  0.38299558  0.75543087  1
  V  V12  1  -0.00271665  0.37199106  0.36945442  1
  V  V13  1  -0.00077245  0.49776835  0.49790836  1
  V  V14  1  0.01442249  0.86902825  0.86892057  1
  V  V15  1  -0.00103562  0.75216397  0.25844219  1
  V  V16  1  0.00025094  -0.00423353  0.49569344  1
  V  V17  1  0.36688646  0.76154010  0.63181132  1
  V  V18  1  0.75284236  0.12420388  0.37435370  1
  V  V19  1  0.87691402  -0.00474630  0.87294349  1
  V  V20  1  0.44635775  0.16667722  0.19571562  1
  V  V21  1  0.36862167  0.62268626  0.75577718  1
  V  V22  1  0.25351400  0.51844294  0.25506788  1
  V  V23  1  0.74972965  0.62171994  0.37201973  1
  V  V24  1  0.62427126  0.74601472  0.87803072  1
  V  V25  1  0.00267561  -0.00201471  -0.00009547  1
  V  V26  1  0.13045688  0.62693182  -0.01214136  1
  V  V27  1  0.87847516  -0.00006107  0.36568020  1
  V  V28  1  0.00222426  0.25090051  0.74875884  1
  V  V29  1  0.87519174  0.74969921  0.62281578  1
  V  V30  1  0.62380588  0.25002813  0.88558274  1
  V  V31  1  0.74884243  0.24961546  0.50177321  1
  V  V32  1  0.12968293  0.12426740  -0.00063744  1
  V  V33  1  0.36764296  0.50188779  0.88210514  1
  V  V34  1  0.37563672  0.74716260  0.12858204  1
  V  V35  1  0.26358086  0.10984535  0.36659252  1
  V  V36  1  0.62413389  0.49048275  0.12489822  1
  V  V37  1  0.74670242  0.74889258  0.49898895  1
  V  V38  1  0.00090719  0.49551712  0.00053182  1
  V  V39  1  0.75154591  0.49860595  0.75246260  1
  V  V40  1  0.50407999  0.51059095  0.00011874  1
  V  V41  1  0.49787192  0.61903691  0.63120302  1
  V  V42  1  0.49756546  0.37193540  0.87694940  1
  V  V43  1  0.12504673  0.87808255  0.25239580  1
  V  V44  1  0.49358140  0.13170739  0.63587695  1
  V  V45  1  0.37493249  0.00081232  0.87150907  1
  V  V46  1  0.25268352  0.24947553  0.49668300  1
  V  V47  1  -0.01076388  0.12614090  0.12698413  1
  V  V48  1  0.25546611  0.12480577  0.85966814  1
  V  V49  1  0.49372929  -0.00433407  0.49430173  1
  V  V50  1  0.87444631  0.87631798  0.49265540  1
  V  V51  1  0.74460335  0.62351768  0.88057840  1
  V  V52  1  0.75168671  0.87368899  0.12951120  1
  V  V53  1  0.25896730  0.87755246  0.12348400  1
  V  V54  1  0.13210574  0.74840096  0.37304311  1
  V  V55  1  0.12961272  0.62090640  0.49315575  1
  V  V56  1  -0.03446554  0.35043541  0.90399858  1
  V  V57  1  0.62332937  -0.00022975  0.62485207  1
  V  V58  1  0.75533243  0.35581625  0.11395170  1
  V  V59  1  0.37180543  0.37830638  0.49801724  1
  V  V60  1  0.75067619  -0.00134948  0.74986124  1
  V  V61  1  0.61796453  0.12198954  0.00154528  1
  V  V62  1  0.25923599  0.25102201  0.00882191  1
  V  V63  1  0.87677159  0.87300018  -0.00046466  1
  V  V64  1  0.13007002  0.25519622  0.87505853  1
  V  V65  1  0.13254308  0.00045121  0.12850040  1
  V  V66  1  0.61899293  -0.00122574  0.12099108  1
  V  V67  1  0.50214560  0.37498106  0.36301719  1
  V  V68  1  0.49794010  0.49831459  0.50058575  1
  V  V69  1  0.74609218  0.00758851  0.24754010  1
  V  V70  1  0.62401473  0.87333121  0.75179881  1
  V  V71  1  0.24787377  0.75319302  0.50642207  1
  V  V72  1  0.00376564  0.62310945  0.12618739  1
  V  V73  1  0.87746019  0.74882077  0.12641387  1
  V  V74  1  0.50763331  0.63101357  0.13006437  1
  V  V75  1  0.87436004  0.24952058  0.62795472  1
  V  V76  1  0.61689425  0.24720997  0.36016377  1
  V  V77  1  0.25109914  0.75059265  -0.00893925  1
  V  V78  1  0.12878374  -0.01305832  0.63001965  1
  V  V79  1  0.74923277  0.12560608  0.88012048  1
  V  V80  1  0.74695630  0.74564425  0.00254359  1
  V  V81  1  0.12663038  0.24550424  0.36968247  1
  V  V82  1  0.12532202  0.12163143  0.50004694  1
  V  V83  1  0.12665045  0.50077103  0.62450579  1
  V  V84  1  0.87397879  0.37317172  0.49915406  1
  Zn  Zn85  1  0.48240148  0.87619501  0.36578196  1
  Zn  Zn86  1  0.44270083  0.69738295  0.29292154  1
  Zn  Zn87  1  0.74876881  0.37477751  0.62658138  1
  Zn  Zn88  1  -0.00010373  0.12223069  0.62565450  1
  Zn  Zn89  1  0.62516681  0.62408554  0.50198673  1
  Zn  Zn90  1  0.36991374  0.52414463  0.37255451  1
  Zn  Zn91  1  0.25972481  0.37320549  0.13954739  1
  Zn  Zn92  1  0.13149397  0.37413909  0.24856690  1
  Zn  Zn93  1  0.36982498  0.24354975  0.63633158  1
  Zn  Zn94  1  0.87563067  0.62153182  0.24908161  1
  Zn  Zn95  1  0.61220590  0.87486915  0.24583007  1
  Zn  Zn96  1  0.00266530  0.75479674  0.75150306  1
  Zn  Zn97  1  0.87339687  0.49723479  0.37133382  1
  Zn  Zn98  1  0.48611018  0.00000973  0.00253277  1
  Zn  Zn99  1  0.87692387  0.12400702  0.74989564  1
  Zn  Zn100  1  0.87370129  0.62840551  0.74972387  1
  Zn  Zn101  1  0.24827836  0.37284212  0.62500623  1
  Zn  Zn102  1  0.36096389  0.88269767  0.49973716  1
  Zn  Zn103  1  0.25467876  -0.01255588  0.74286291  1
  Zn  Zn104  1  0.37707820  0.37505028  0.00841285  1
  Zn  Zn105  1  0.74995049  0.87478638  0.62423190  1
  Zn  Zn106  1  0.13033719  0.49421900  0.12697065  1
  Zn  Zn107  1  0.18856073  0.18227244  0.19063769  1
  Zn  Zn108  1  0.18357055  0.18821353  0.68225406  1
  Zn  Zn109  1  0.18551582  0.69019883  0.18173569  1
  Zn  Zn110  1  0.18140364  0.80721939  0.69467596  1
  Zn  Zn111  1  0.62423373  0.20460552  0.17907781  1
  Zn  Zn112  1  0.68644721  0.18528662  0.69034355  1
  Zn  Zn113  1  0.68542947  0.67974413  0.18665287  1
  Zn  Zn114  1  0.68810637  0.68451697  0.68986298  1
  Zn  Zn115  1  0.32274139  0.30466177  0.30614449  1
  Zn  Zn116  1  0.31138963  0.31554418  0.81497501  1
  Zn  Zn117  1  0.30622542  0.81926196  0.31349652  1
  Zn  Zn118  1  0.31380077  0.81512917  0.81678936  1
  Zn  Zn119  1  0.80366211  0.30783085  0.30777856  1
  Zn  Zn120  1  0.81252362  0.30773652  0.82356022  1
  Zn  Zn121  1  0.80948466  0.81408855  0.31125607  1
  Zn  Zn122  1  0.81489558  0.81140246  0.81113343  1
  Zn  Zn123  1  0.18868536  0.43586977  0.42601251  1
  Zn  Zn124  1  0.18521631  0.43697651  0.94178223  1
  Zn  Zn125  1  0.18500308  0.93367466  0.43494403  1
  Zn  Zn126  1  0.19511682  0.93814614  0.93741205  1
  Zn  Zn127  1  0.68355122  0.43546475  0.43823935  1
  Zn  Zn128  1  0.68690342  0.43675787  0.94454396  1
  Zn  Zn129  1  0.68600395  0.93733379  0.43751157  1
  Zn  Zn130  1  0.68753425  0.93310292  0.93846266  1
  Zn  Zn131  1  0.31748529  0.06719128  0.06119499  1
  Zn  Zn132  1  0.31161421  0.06540992  0.56261042  1
  Zn  Zn133  1  0.31390433  0.56460927  0.07129406  1
  Zn  Zn134  1  0.31152959  0.56463826  0.56358150  1
  Zn  Zn135  1  0.80771899  0.06233918  0.06051083  1
  Zn  Zn136  1  0.81327464  0.06342465  0.56242022  1
  Zn  Zn137  1  0.81292774  0.55947240  0.06516205  1
  Zn  Zn138  1  0.81112461  0.56018311  0.56083518  1
  Zn  Zn139  1  0.42809487  0.44204644  0.18675436  1
  Zn  Zn140  1  0.42281657  0.40599912  0.70305765  1
  Zn  Zn141  1  0.43663553  0.95304185  0.19609401  1
  Zn  Zn142  1  0.43883135  0.94025487  0.69221859  1
  Zn  Zn143  1  0.93060198  0.43110406  0.18387581  1
  Zn  Zn144  1  0.93599763  0.43597609  0.69151692  1
  Zn  Zn145  1  0.94164667  0.93771388  0.18750348  1
  Zn  Zn146  1  0.94052895  0.93542929  0.68410037  1
  Zn  Zn147  1  0.06328056  0.06369541  0.31108181  1
  Zn  Zn148  1  0.06491544  0.06357397  0.81199454  1
  Zn  Zn149  1  0.06512573  0.55945033  0.30976171  1
  Zn  Zn150  1  0.14002659  0.63283409  0.77628760  1
  Zn  Zn151  1  0.54080973  0.05781643  0.29872641  1
  Zn  Zn152  1  0.56071318  0.06107987  0.81453741  1
  Zn  Zn153  1  0.56656297  0.55847298  0.31413695  1
  Zn  Zn154  1  0.56242795  0.55814207  0.81545124  1
  Zn  Zn155  1  0.43732426  0.18944940  0.43841730  1
  Zn  Zn156  1  0.43717598  0.18447287  0.93355381  1
  Zn  Zn157  1  0.43704584  0.69048977  0.45548720  1
  Zn  Zn158  1  0.43199790  0.68774056  0.94172903  1
  Zn  Zn159  1  0.93728740  0.18473638  0.43686604  1
  Zn  Zn160  1  0.93943700  0.17929394  0.93816054  1
  Zn  Zn161  1  0.93697563  0.68408658  0.43690904  1
  Zn  Zn162  1  0.93959608  0.68552929  0.93870248  1
  Zn  Zn163  1  0.07055641  0.30911424  0.07091782  1
  Zn  Zn164  1  0.06330173  0.31261446  0.56046800  1
  Zn  Zn165  1  0.06650884  0.81127410  0.06217657  1
  Zn  Zn166  1  0.05698035  0.81104345  0.55447256  1
  Zn  Zn167  1  0.54932737  0.31298557  0.06612919  1
  Zn  Zn168  1  0.56212784  0.31294693  0.56116325  1
  Zn  Zn169  1  0.56504849  0.81181936  0.06443838  1
  Zn  Zn170  1  0.56089582  0.81182644  0.56459289  1
  O  O171  1  0.12151454  0.11731641  0.11627360  1
  O  O172  1  0.12142240  0.11937586  0.61063447  1
  O  O173  1  0.11230070  0.62277214  0.11772976  1
  O  O174  1  0.11271415  0.61011066  0.61007385  1
  O  O175  1  0.63791756  0.11084438  0.10967569  1
  O  O176  1  0.62047454  0.11934412  0.61709479  1
  O  O177  1  0.61265317  0.62036332  0.11964765  1
  O  O178  1  0.61565485  0.61757445  0.62837846  1
  O  O179  1  0.38985503  0.37219562  0.38482172  1
  O  O180  1  0.38321701  0.38512919  0.88332530  1
  O  O181  1  0.37246816  0.86413086  0.38864525  1
  O  O182  1  0.38648270  0.88167709  0.87526434  1
  O  O183  1  0.88373760  0.37036800  0.37958221  1
  O  O184  1  0.87293559  0.39889986  0.85910765  1
  O  O185  1  0.86786102  0.88325206  0.38570393  1
  O  O186  1  0.87814185  0.88393822  0.87891346  1
  O  O187  1  0.24770254  0.01115513  0.38153243  1
  O  O188  1  0.25459879  0.00894130  0.86962931  1
  O  O189  1  0.25084870  0.50479299  0.36258092  1
  O  O190  1  0.26018424  0.49409100  0.87082931  1
  O  O191  1  0.75398784  0.00469812  0.36990413  1
  O  O192  1  0.75686224  0.00085519  0.86733151  1
  O  O193  1  0.74608953  0.50534243  0.36746909  1
  O  O194  1  0.75344797  0.50715704  0.87309280  1
  O  O195  1  0.25001852  0.50003926  0.14009109  1
  O  O196  1  0.24100116  0.49924831  0.63197084  1
  O  O197  1  0.24023839  0.99472367  0.11508072  1
  O  O198  1  0.23271085  1.00287879  0.62174386  1
  O  O199  1  0.74145365  0.49734933  0.13049042  1
  O  O200  1  0.74401653  0.49861205  0.63513345  1
  O  O201  1  0.74728172  0.99316446  0.13181593  1
  O  O202  1  0.74021195  1.00093155  0.63162176  1
  O  O203  1  0.00102225  0.36547890  0.25602531  1
  O  O204  1  0.00039936  0.36395985  0.76041346  1
  O  O205  1  0.01232073  0.86356945  0.24179135  1
  O  O206  1  -0.00265547  0.87590379  0.76488726  1
  O  O207  1  0.49892631  0.38575428  0.26544267  1
  O  O208  1  0.51703621  0.39324381  0.76987100  1
  O  O209  1  0.49899919  0.87888545  0.25388866  1
  O  O210  1  0.50596848  0.86597913  0.75793368  1
  O  O211  1  0.54550203  0.16382024  0.26145287  1
  O  O212  1  0.50856847  0.12380750  0.73362035  1
  O  O213  1  0.51035901  0.62482940  0.23468341  1
  O  O214  1  0.49293380  0.62691881  0.74718533  1
  O  O215  1  1.00226528  0.13043748  0.23885859  1
  O  O216  1  0.99970960  0.13806577  0.74957605  1
  O  O217  1  0.99847757  0.63081426  0.24205524  1
  O  O218  1  0.99397417  0.62174444  0.73165554  1
  O  O219  1  0.36050338  0.24924336  -0.00855087  1
  O  O220  1  0.36638930  0.25894460  0.50448762  1
  O  O221  1  0.35896530  0.74604716  0.01029456  1
  O  O222  1  0.36320174  0.74880548  0.51770477  1
  O  O223  1  0.89094462  0.28023390  -0.06465786  1
  O  O224  1  0.87138243  0.25395850  0.50844195  1
  O  O225  1  0.86704397  0.75347061  0.00512208  1
  O  O226  1  0.86523049  0.75636870  0.50071910  1
  O  O227  1  0.12849976  0.24175034  0.49101143  1
  O  O228  1  0.13205454  0.24149144  0.99109225  1
  O  O229  1  0.12650117  0.74105055  0.49376045  1
  O  O230  1  0.13408984  0.73602068  1.00419761  1
  O  O231  1  0.63034847  0.24232164  0.49661609  1
  O  O232  1  0.62029981  0.24125090  0.99005951  1
  O  O233  1  0.63561171  0.74933966  0.49605419  1
  O  O234  1  0.64059169  0.75380104  0.99476310  1
  O  O235  1  0.51525964  0.23065437  0.13360865  1
  O  O236  1  0.50086623  0.23349431  0.61761513  1
  O  O237  1  0.49390329  0.73951682  0.11715457  1
  O  O238  1  0.49407477  0.73772148  0.63101749  1
  O  O239  1  1.00522548  0.23825519  0.13463742  1
  O  O240  1  0.99434381  0.24984404  0.63277342  1
  O  O241  1  0.99740084  0.74233945  0.13200518  1
  O  O242  1  0.98576851  0.74135594  0.61513999  1
  O  O243  1  0.00613920  0.25161202  0.36954273  1
  O  O244  1  0.01707658  0.24921482  0.86828906  1
  O  O245  1  0.00424777  0.74495298  0.36288610  1
  O  O246  1  -0.00527138  0.76554548  0.87548013  1
  O  O247  1  0.50597944  0.26457923  0.38372700  1
  O  O248  1  0.50751180  0.26129602  0.87799320  1
  O  O249  1  0.51591327  0.74930772  0.38116335  1
  O  O250  1  0.50295244  0.75407112  0.87287431  1
  O  O251  1  0.24213399  0.13129679  0.49484337  1
  O  O252  1  0.24315540  0.13441561  0.99036559  1
  O  O253  1  0.23718095  0.63454142  0.50660246  1
  O  O254  1  0.23732377  0.63339710  1.00779946  1
  O  O255  1  0.74189210  0.12794417  0.49681909  1
  O  O256  1  0.74203072  0.11872799  0.98481482  1
  O  O257  1  0.74727766  0.63172182  0.49282170  1
  O  O258  1  0.75613621  0.63159549  0.98966601  1
  O  O259  1  0.24912502  0.35723391  -0.00271371  1
  O  O260  1  0.25471795  0.36662097  0.49397139  1
  O  O261  1  0.23987906  0.85880615  0.00859480  1
  O  O262  1  0.24219077  0.85844675  0.50136665  1
  O  O263  1  0.74684667  0.37160718  0.01374266  1
  O  O264  1  0.75679601  0.36906965  0.50248516  1
  O  O265  1  0.75844504  0.86664414  0.00683859  1
  O  O266  1  0.75552227  0.86697375  0.50276851  1
  O  O267  1  0.13674361  0.49620026  0.24946022  1
  O  O268  1  0.13191269  0.50754987  0.74124180  1
  O  O269  1  0.11822606  0.99157127  0.23906200  1
  O  O270  1  0.12265687  1.00447412  0.73118547  1
  O  O271  1  0.63600907  0.50627644  0.23846243  1
  O  O272  1  0.63703962  0.49398997  0.74945826  1
  O  O273  1  0.63102351  0.99812052  0.23874189  1
  O  O274  1  0.63152138  0.99514469  0.74412433  1
  O  O275  1  0.44104757  0.06092139  0.23689158  1
  O  O276  1  0.37226962  -0.00157003  0.76248693  1
  O  O277  1  0.35993269  0.50383884  0.25592696  1
  O  O278  1  0.36715293  0.50165054  0.75827831  1
  O  O279  1  0.86945929  -0.00671307  0.26112017  1
  O  O280  1  0.86844523  -0.00030029  0.75393415  1
  O  O281  1  0.86485614  0.50214573  0.25126715  1
  O  O282  1  0.86247641  0.50515198  0.75253767  1
  O  O283  1  0.11152011  0.36242265  0.37600778  1
  O  O284  1  0.12281811  0.36643163  0.87140381  1
  O  O285  1  0.12461927  0.86385745  0.36456444  1
  O  O286  1  0.11217503  0.87964029  0.87910349  1
  O  O287  1  0.60829008  0.36566537  0.38593110  1
  O  O288  1  0.62232130  0.36662018  0.87371300  1
  O  O289  1  0.62862130  0.85983510  0.37435826  1
  O  O290  1  0.62072351  0.86646810  0.86871358  1
  O  O291  1  0.38805933  0.13416058  0.11674237  1
  O  O292  1  0.38809168  0.12621993  0.62587936  1
  O  O293  1  0.39081080  0.63483966  0.12386463  1
  O  O294  1  0.38022705  0.62805218  0.63884970  1
  O  O295  1  0.89028070  0.12005445  0.11244138  1
  O  O296  1  0.87772179  0.13645305  0.62698120  1
  O  O297  1  0.88717605  0.63130405  0.12396610  1
  O  O298  1  0.87940164  0.63260967  0.62104687  1
  O  O299  1  0.24495131  0.24344622  0.10984770  1
  O  O300  1  0.24790015  0.25261203  0.61080527  1
  O  O301  1  0.25609366  0.75720329  0.11794138  1
  O  O302  1  0.25783804  0.74899095  0.62085475  1
  O  O303  1  0.72808437  0.26141149  0.13158830  1
  O  O304  1  0.75740333  0.25025096  0.62213040  1
  O  O305  1  0.75494330  0.75119850  0.11961822  1
  O  O306  1  0.75846304  0.74810699  0.61734130  1
  O  O307  1  0.24312542  0.24214584  0.38341130  1
  O  O308  1  0.24366276  0.24422351  0.87726003  1
  O  O309  1  0.23545005  0.74646288  0.38236762  1
  O  O310  1  0.25540887  0.74822990  0.89200345  1
  O  O311  1  0.74784888  0.23982253  0.38555940  1
  O  O312  1  0.73744791  0.23591404  0.86880904  1
  O  O313  1  0.74306549  0.74332698  0.38132564  1
  O  O314  1  0.74815701  0.74270239  0.88157388  1
  O  O315  1  0.01177022  0.11909310  0.00245027  1
  O  O316  1  0.00631651  0.11362275  0.50006956  1
  O  O317  1  0.00936701  0.61801411  0.00493431  1
  O  O318  1  0.00285614  0.61556098  0.50541047  1
  O  O319  1  0.51445623  0.11741583  -0.01225778  1
  O  O320  1  0.50741479  0.11464400  0.50603321  1
  O  O321  1  0.49764989  0.61636324  0.00694072  1
  O  O322  1  0.50363744  0.61398669  0.51354527  1
  O  O323  1  0.49271545  0.38794688  0.50321009  1
  O  O324  1  0.49991516  0.38669268  0.99131200  1
  O  O325  1  0.50405574  0.89033895  0.50225132  1
  O  O326  1  0.50735729  0.87531566  0.98709959  1
  O  O327  1  0.99357919  0.37744293  0.49170879  1
  O  O328  1  1.00619369  0.37856698  1.00057897  1
  O  O329  1  0.99037764  0.88678633  0.49763209  1
  O  O330  1  0.99616219  0.87876968  0.99217936  1
  O  O331  1  0.50400275  0.49099745  0.38580289  1
  O  O332  1  0.49175503  0.49768873  0.88498193  1
  O  O333  1  0.50948825  0.99756172  0.39260343  1
  O  O334  1  0.49379373  0.98979993  0.87400007  1
  O  O335  1  0.99776557  0.48835104  0.37810783  1
  O  O336  1  0.98995467  0.48251759  0.89311488  1
  O  O337  1  0.98922975  1.00604572  0.38137243  1
  O  O338  1  0.99438878  0.99319292  0.87860325  1
  O  O339  1  0.01032518  0.00444443  0.11729337  1
  O  O340  1  0.00875275  0.00128787  0.61571558  1
  O  O341  1  -0.00167042  0.50414260  0.11650355  1
  O  O342  1  0.00275712  0.50276805  0.61865986  1
  O  O343  1  0.51693179  -0.01285579  0.11407539  1
  O  O344  1  0.51016625  0.00770137  0.62055216  1
  O  O345  1  0.50509607  0.51058755  0.11992957  1
  O  O346  1  0.50071711  0.50882175  0.62364401  1
  O  O347  1  0.24957645  0.37448045  0.25756232  1
  O  O348  1  0.23627269  0.38747303  0.74919675  1
  O  O349  1  0.23367598  0.87098334  0.23807858  1
  O  O350  1  0.25027147  0.87395776  0.74903078  1
  O  O351  1  0.75178231  0.38798799  0.24452168  1
  O  O352  1  0.74254399  0.38205545  0.75236737  1
  O  O353  1  0.74749099  0.88507504  0.24328208  1
  O  O354  1  0.74586938  0.88473037  0.74837011  1
  O  O355  1  0.24710166  0.12384655  0.26753827  1
  O  O356  1  0.24267070  0.12524287  0.75800662  1
  O  O357  1  0.24327652  0.61758172  0.24846463  1
  O  O358  1  0.25585898  0.60968850  0.75316386  1
  O  O359  1  0.74783440  0.11041093  0.26237130  1
  O  O360  1  0.74997817  0.11228186  0.75889736  1
  O  O361  1  0.75295363  0.61684863  0.25699341  1
  O  O362  1  0.75175915  0.61806638  0.76208993  1
  O  O363  1  0.36162389  0.12441534  0.38507347  1
  O  O364  1  0.36553564  0.11928462  0.87121288  1
  O  O365  1  0.39430727  0.63421998  0.37154414  1
  O  O366  1  0.38016496  0.61675055  0.86331319  1
  O  O367  1  0.86104844  0.11405395  0.38457214  1
  O  O368  1  0.86844653  0.11040141  0.87351746  1
  O  O369  1  0.86051979  0.62252520  0.37498325  1
  O  O370  1  0.87012010  0.61733956  0.87215873  1
  O  O371  1  0.13728276  0.37634106  0.12998231  1
  O  O372  1  0.12104792  0.38766681  0.63145689  1
  O  O373  1  0.13149371  0.88341166  0.12863858  1
  O  O374  1  0.11794336  0.88365880  0.62199918  1
  O  O375  1  0.62547528  0.38769626  0.12183140  1
  O  O376  1  0.62409888  0.37968342  0.63624649  1
  O  O377  1  0.63717481  0.87938474  0.12459616  1
  O  O378  1  0.62630681  0.88289628  0.63228790  1
  O  O379  1  0.11827933  0.24532001  0.26293475  1
  O  O380  1  0.11960651  0.25806924  0.75421763  1
  O  O381  1  0.11859363  0.75329462  0.25672695  1
  O  O382  1  0.11221226  0.73233776  0.73730259  1
  O  O383  1  0.65446428  0.27006425  0.27148554  1
  O  O384  1  0.62787627  0.26096061  0.75758372  1
  O  O385  1  0.63289082  0.75101026  0.26386536  1
  O  O386  1  0.61994043  0.75314853  0.75635524  1
  O  O387  1  0.38839279  0.22887533  0.24988911  1
  O  O388  1  0.38251760  0.29907660  0.73265709  1
  O  O389  1  0.36775587  0.75777344  0.23305777  1
  O  O390  1  0.37906859  0.73946322  0.74858488  1
  O  O391  1  0.88597653  0.24541688  0.25824392  1
  O  O392  1  0.88238625  0.24868236  0.74477827  1
  O  O393  1  0.88212413  0.74951387  0.24510938  1
  O  O394  1  0.87878933  0.74932563  0.73721001  1
  O  O395  1  0.38034908  0.49932357  0.49190518  1
  O  O396  1  0.37994855  0.50372438  0.99380683  1
  O  O397  1  0.39040281  0.99832800  0.51020892  1
  O  O398  1  0.37200291  1.00349212  0.98141489  1
  O  O399  1  0.87866019  0.48917521  0.49664044  1
  O  O400  1  0.88452472  0.50480664  0.99334973  1
  O  O401  1  0.87973901  0.99344743  0.49414850  1
  O  O402  1  0.88029101  0.99315262  0.99101249  1
  O  O403  1  0.12316265  0.00848973  0.00390561  1
  O  O404  1  0.11711482  0.00287689  0.50468170  1
  O  O405  1  0.11963828  0.50966218  0.00403556  1
  O  O406  1  0.12140698  0.50251055  0.50260556  1
  O  O407  1  0.62897631  0.00529955  0.00475882  1
  O  O408  1  0.62132371  0.00663507  0.50893373  1
  O  O409  1  0.61496550  0.50143033  0.00854019  1
  O  O410  1  0.61656193  0.49991915  0.51117340  1
  O  O411  1  0.37316465  0.37304618  0.12039288  1
  O  O412  1  0.36658923  0.38831863  0.60367571  1
  O  O413  1  0.36212118  0.87929941  0.12989927  1
  O  O414  1  0.38372225  0.86308651  0.62421322  1
  O  O415  1  0.85597633  0.36456416  0.12907670  1
  O  O416  1  0.87410852  0.36346612  0.62116269  1
  O  O417  1  0.87104937  0.86925534  0.12027320  1
  O  O418  1  0.87374568  0.86781753  0.61251964  1
  O  O419  1  0.12918309  0.12856006  0.38536808  1
  O  O420  1  0.13216524  0.13088823  0.88182200  1
  O  O421  1  0.11405374  0.63149740  0.38720819  1
  O  O422  1  0.12233067  0.62004368  0.89010625  1
  O  O423  1  0.63521815  0.13038437  0.38932967  1
  O  O424  1  0.63093731  0.12974717  0.87796040  1
  O  O425  1  0.63444676  0.63456800  0.37802947  1
  O  O426  1  0.63451275  0.63114151  0.87215119  1
