# generated using pymatgen
data_V85Zn86O256
_symmetry_space_group_name_H-M   'P 1'
_cell_length_a   16.95047922
_cell_length_b   16.94344723
_cell_length_c   16.94175612
_cell_angle_alpha   90.09293207
_cell_angle_beta   90.03764387
_cell_angle_gamma   90.04718820
_symmetry_Int_Tables_number   1
_chemical_formula_structural   V85Zn86O256
_chemical_formula_sum   'V85 Zn86 O256'
_cell_volume   4865.65563208
_cell_formula_units_Z   1
loop_
 _symmetry_equiv_pos_site_id
 _symmetry_equiv_pos_as_xyz
  1  'x, y, z'
loop_
 _atom_site_type_symbol
 _atom_site_label
 _atom_site_symmetry_multiplicity
 _atom_site_fract_x
 _atom_site_fract_y
 _atom_site_fract_z
 _atom_site_occupancy
  V  V0  1  0.00027807  0.63474364  0.12711318  1
  V  V1  1  0.74995314  0.25273097  0.00407741  1
  V  V2  1  0.86930479  0.37745828  0.00483941  1
  V  V3  1  0.62684452  0.36902630  0.74284656  1
  V  V4  1  0.00180691  0.12648074  0.12021725  1
  V  V5  1  0.62461768  0.87754326  0.74633730  1
  V  V6  1  0.61876025  0.00284997  0.61088400  1
  V  V7  1  0.00406187  0.00005671  0.49866794  1
  V  V8  1  0.00674591  0.61770479  0.61307592  1
  V  V9  1  0.50024437  0.36941031  0.87033511  1
  V  V10  1  0.62417995  0.74783887  0.37262212  1
  V  V11  1  0.49979760  0.25283023  0.25362867  1
  V  V12  1  0.37350746  0.25474070  0.62908838  1
  V  V13  1  0.24289164  0.24264557  -0.00159414  1
  V  V14  1  0.25308933  0.25052873  0.49108853  1
  V  V15  1  0.62134324  0.50455582  0.62341148  1
  V  V16  1  -0.00353993  0.12400361  0.63257216  1
  V  V17  1  0.75201561  0.49526263  0.74417746  1
  V  V18  1  0.75278079  0.62849140  0.87556092  1
  V  V19  1  0.74879099  0.87626984  0.62450848  1
  V  V20  1  0.37097207  0.49838596  0.87079304  1
  V  V21  1  0.24891529  0.62617352  0.37860938  1
  V  V22  1  0.13048629  0.12748264  0.48966919  1
  V  V23  1  0.12585132  0.75970302  0.87160444  1
  V  V24  1  0.12422134  0.62484738  -0.00127404  1
  V  V25  1  0.87569174  0.12416417  0.25345957  1
  V  V26  1  0.49919292  0.00004853  0.00267951  1
  V  V27  1  0.50128186  0.49841855  -0.00065110  1
  V  V28  1  0.38903221  0.12607128  0.75112489  1
  V  V29  1  0.24645673  0.12164330  0.86633980  1
  V  V30  1  0.74913324  0.74665562  0.49951270  1
  V  V31  1  -0.00124990  0.49989558  0.00035192  1
  V  V32  1  0.37597352  0.87550333  0.00167210  1
  V  V33  1  0.00084894  0.25329509  0.26551931  1
  V  V34  1  0.49785264  0.74557238  0.74578505  1
  V  V35  1  0.75508764  0.61659738  0.37486091  1
  V  V36  1  0.63292890  0.49458315  0.12448953  1
  V  V37  1  0.87203121  0.25592050  0.12977180  1
  V  V38  1  0.24715958  0.62051965  0.87022114  1
  V  V39  1  0.62277131  0.24952321  0.87246800  1
  V  V40  1  0.25228044  0.87333131  0.63707552  1
  V  V41  1  0.37658899  0.75233650  0.12483024  1
  V  V42  1  0.37167437  -0.00065996  0.86886485  1
  V  V43  1  0.00540498  0.75321844  0.74774754  1
  V  V44  1  0.37403354  0.25108116  0.12129227  1
  V  V45  1  0.24763008  0.37466233  0.12355372  1
  V  V46  1  0.25840242  0.75456310  0.50302805  1
  V  V47  1  0.12243070  0.24698528  0.87202153  1
  V  V48  1  0.62725093  0.12622001  -0.00003853  1
  V  V49  1  0.25054068  0.74962802  0.00165447  1
  V  V50  1  0.12827591  0.38676403  0.74867807  1
  V  V51  1  0.50064846  0.12691101  0.12542952  1
  V  V52  1  0.62857641  0.75032433  0.87694769  1
  V  V53  1  0.49945158  0.74779821  0.25075396  1
  V  V54  1  0.12969158  -0.00365526  0.63848697  1
  V  V55  1  0.75515294  0.00637829  0.74731843  1
  V  V56  1  0.62819071  0.37320791  0.25149396  1
  V  V57  1  0.75854478  0.12762864  0.87173651  1
  V  V58  1  0.12470882  0.00214377  0.12062961  1
  V  V59  1  0.48751314  0.39035336  0.38634836  1
  V  V60  1  0.87662642  0.74649933  0.62631697  1
  V  V61  1  0.25751974  0.50105026  0.25168047  1
  V  V62  1  -0.00226354  0.87165946  0.36542285  1
  V  V63  1  0.12039847  0.74964662  0.38386607  1
  V  V64  1  0.12022695  0.37267911  0.25346640  1
  V  V65  1  0.50136127  0.87565311  0.87468560  1
  V  V66  1  0.87556517  0.87107801  -0.00806709  1
  V  V67  1  0.62863951  0.00033502  0.12412553  1
  V  V68  1  0.12628888  0.86816940  0.24765714  1
  V  V69  1  0.62907737  0.87525903  0.24921651  1
  V  V70  1  0.87499269  0.49893041  0.87436231  1
  V  V71  1  0.63030823  0.62865066  0.00033149  1
  V  V72  1  0.37559865  0.62734961  0.74740298  1
  V  V73  1  0.50044322  0.12490074  0.60333828  1
  V  V74  1  0.87195564  0.25395694  0.62997951  1
  V  V75  1  0.75087935  0.86584449  0.11686186  1
  V  V76  1  0.74059657  0.12324552  0.37726754  1
  V  V77  1  0.04829501  0.43294088  0.43042320  1
  V  V78  1  0.12467469  0.50004432  0.12455876  1
  V  V79  1  0.36179358  0.12665214  0.25660320  1
  V  V80  1  0.87726679  0.87549631  0.49868004  1
  V  V81  1  0.87075631  0.38069841  0.48872732  1
  V  V82  1  0.74529320  0.24775633  0.50357751  1
  V  V83  1  0.87803233  0.63100126  0.25119338  1
  V  V84  1  0.75876653  0.49261270  0.25114361  1
  Zn  Zn85  1  0.50062959  0.62227755  0.12441317  1
  Zn  Zn86  1  0.87467316  0.75048309  0.12140551  1
  Zn  Zn87  1  0.62235039  0.61251232  0.49494716  1
  Zn  Zn88  1  0.00546582  0.88288023  0.86760296  1
  Zn  Zn89  1  0.46346468  0.58802446  0.58285483  1
  Zn  Zn90  1  0.38486989  0.88380211  0.50656432  1
  Zn  Zn91  1  -0.00328287  0.24932352  0.75206365  1
  Zn  Zn92  1  0.37002816  0.00005443  0.38891830  1
  Zn  Zn93  1  0.50276503  0.88930870  0.39470276  1
  Zn  Zn94  1  0.25269142  0.87993724  0.12755984  1
  Zn  Zn95  1  0.37546076  0.62209874  0.24566457  1
  Zn  Zn96  1  0.00025153  0.00308837  -0.00498459  1
  Zn  Zn97  1  -0.00082636  0.37357756  0.87360887  1
  Zn  Zn98  1  0.87721778  0.62074200  0.74762385  1
  Zn  Zn99  1  0.24377617  0.00209078  0.25770249  1
  Zn  Zn100  1  0.37215333  0.37464237  -0.00399550  1
  Zn  Zn101  1  0.61790708  0.25006742  0.38569208  1
  Zn  Zn102  1  0.12417242  0.50063493  0.61163707  1
  Zn  Zn103  1  0.87366351  0.00054689  0.37538762  1
  Zn  Zn104  1  0.75313640  -0.00110041  0.24990597  1
  Zn  Zn105  1  0.25426663  0.38178347  0.62734280  1
  Zn  Zn106  1  0.87896659  0.00413317  0.87109196  1
  Zn  Zn107  1  0.18173685  0.19091428  0.18705609  1
  Zn  Zn108  1  0.18884130  0.18480213  0.68803969  1
  Zn  Zn109  1  0.18629740  0.69031165  0.18976193  1
  Zn  Zn110  1  0.18737129  0.68562601  0.68617310  1
  Zn  Zn111  1  0.68949429  0.18894214  0.19024408  1
  Zn  Zn112  1  0.68387845  0.18616656  0.68458802  1
  Zn  Zn113  1  0.69049243  0.68344261  0.18661819  1
  Zn  Zn114  1  0.68787932  0.68578182  0.69034045  1
  Zn  Zn115  1  0.31388130  0.31492718  0.31236685  1
  Zn  Zn116  1  0.30973325  0.31029059  0.80862733  1
  Zn  Zn117  1  0.31332288  0.81918478  0.31767699  1
  Zn  Zn118  1  0.31161604  0.81093154  0.81404194  1
  Zn  Zn119  1  0.81099774  0.31017503  0.31838204  1
  Zn  Zn120  1  0.81102084  0.31353116  0.81385617  1
  Zn  Zn121  1  0.81253191  0.80954232  0.31085201  1
  Zn  Zn122  1  0.81251504  0.81184207  0.81003196  1
  Zn  Zn123  1  0.21291083  0.43463560  0.43795020  1
  Zn  Zn124  1  0.18686219  0.43343350  0.93579430  1
  Zn  Zn125  1  0.19257105  0.93821749  0.43705833  1
  Zn  Zn126  1  0.18952185  0.93972997  0.94177104  1
  Zn  Zn127  1  0.68652906  0.43113781  0.43698476  1
  Zn  Zn128  1  0.68927671  0.43791083  0.93404610  1
  Zn  Zn129  1  0.68919554  0.93483374  0.43610788  1
  Zn  Zn130  1  0.69194166  0.93984243  0.93605662  1
  Zn  Zn131  1  0.30984624  0.06380839  0.06331589  1
  Zn  Zn132  1  0.30978443  0.06039455  0.56212495  1
  Zn  Zn133  1  0.31365373  0.56350671  0.06089448  1
  Zn  Zn134  1  0.29872513  0.55762480  0.55429105  1
  Zn  Zn135  1  0.81534809  0.05949563  0.06205252  1
  Zn  Zn136  1  0.81387290  0.06569675  0.56259955  1
  Zn  Zn137  1  0.81138276  0.56328023  0.06478041  1
  Zn  Zn138  1  0.81227660  0.56014004  0.56430605  1
  Zn  Zn139  1  0.44045068  0.43481510  0.18680690  1
  Zn  Zn140  1  0.43871125  0.43554052  0.69316644  1
  Zn  Zn141  1  0.45402914  0.95314777  0.22222017  1
  Zn  Zn142  1  0.43772939  0.93865243  0.68170264  1
  Zn  Zn143  1  0.93981489  0.43934614  0.18943445  1
  Zn  Zn144  1  0.94151968  0.43194636  0.68496869  1
  Zn  Zn145  1  0.93639222  0.93898357  0.18419151  1
  Zn  Zn146  1  0.93844447  0.93650385  0.68633142  1
  Zn  Zn147  1  0.06189627  0.05896597  0.30964076  1
  Zn  Zn148  1  0.06216429  0.06512657  0.81346949  1
  Zn  Zn149  1  0.06717142  0.56672584  0.30795676  1
  Zn  Zn150  1  0.05776969  0.56761799  0.80973251  1
  Zn  Zn151  1  0.56073053  0.06476279  0.31480381  1
  Zn  Zn152  1  0.56666470  0.06062355  0.81263924  1
  Zn  Zn153  1  0.56607700  0.56210438  0.31037055  1
  Zn  Zn154  1  0.56298215  0.55897507  0.81150074  1
  Zn  Zn155  1  0.43238327  0.19379658  0.43609164  1
  Zn  Zn156  1  0.43579288  0.18699483  0.93828903  1
  Zn  Zn157  1  0.42354610  0.65357110  0.44376513  1
  Zn  Zn158  1  0.43985751  0.68597385  0.93415736  1
  Zn  Zn159  1  0.93397149  0.18571240  0.44444365  1
  Zn  Zn160  1  0.93751020  0.19053874  0.93984474  1
  Zn  Zn161  1  0.93688960  0.68570163  0.43614455  1
  Zn  Zn162  1  0.93822088  0.69043619  0.93696183  1
  Zn  Zn163  1  0.05874305  0.31107818  0.06252992  1
  Zn  Zn164  1  0.06393327  0.30629335  0.56665694  1
  Zn  Zn165  1  0.06131240  0.81610963  0.05839507  1
  Zn  Zn166  1  0.06395544  0.81480204  0.56274292  1
  Zn  Zn167  1  0.56308401  0.31522922  0.06277253  1
  Zn  Zn168  1  0.55719958  0.31344912  0.56484789  1
  Zn  Zn169  1  0.56195948  0.81077451  0.06397452  1
  Zn  Zn170  1  0.53269136  0.77084669  0.53907621  1
  O  O171  1  0.11309121  0.11740843  0.13218424  1
  O  O172  1  0.12024501  0.11258608  0.61992642  1
  O  O173  1  0.11845968  0.62089021  0.12036008  1
  O  O174  1  0.11064024  0.62405189  0.62543945  1
  O  O175  1  0.62222078  0.12112315  0.11961250  1
  O  O176  1  0.60765830  0.11969916  0.62708061  1
  O  O177  1  0.62534014  0.61606660  0.11594167  1
  O  O178  1  0.63040769  0.60830237  0.62667090  1
  O  O179  1  0.38779002  0.37765472  0.37164290  1
  O  O180  1  0.38163408  0.37971872  0.87290300  1
  O  O181  1  0.38309069  0.87657810  0.38248504  1
  O  O182  1  0.37831944  0.88284471  0.88083418  1
  O  O183  1  0.87768403  0.37190673  0.38885539  1
  O  O184  1  0.87624366  0.38145429  0.88449942  1
  O  O185  1  0.88074564  0.87453822  0.37949140  1
  O  O186  1  0.87295298  0.87653390  0.88353366  1
  O  O187  1  0.25498378  -0.00010592  0.37007565  1
  O  O188  1  0.25984142  0.00924771  0.88305075  1
  O  O189  1  0.24724308  0.51407276  0.36601295  1
  O  O190  1  0.25939461  0.50775518  0.88267689  1
  O  O191  1  0.75290050  0.00827768  0.37368913  1
  O  O192  1  0.75069458  0.01117818  0.86594380  1
  O  O193  1  0.74374823  0.50692701  0.36557622  1
  O  O194  1  0.75564303  0.50850766  0.86702898  1
  O  O195  1  0.24345939  0.49468724  0.12797850  1
  O  O196  1  0.23694631  0.49394119  0.61562846  1
  O  O197  1  0.23852799  1.00126131  0.12788638  1
  O  O198  1  0.23751205  0.98847864  0.62500240  1
  O  O199  1  0.73923123  0.50103018  0.13235071  1
  O  O200  1  0.74295114  0.50034735  0.63866942  1
  O  O201  1  0.74293860  0.99088207  0.12562399  1
  O  O202  1  0.74246739  0.99922747  0.62962837  1
  O  O203  1  0.00792067  0.36769240  0.24780094  1
  O  O204  1  0.01130489  0.36960441  0.75425082  1
  O  O205  1  0.00286428  0.87924829  0.26058471  1
  O  O206  1  -0.00595043  0.85925593  0.75006814  1
  O  O207  1  0.50505876  0.36570090  0.25421527  1
  O  O208  1  0.51043438  0.37697620  0.76359906  1
  O  O209  1  0.51874391  0.85858110  0.23806567  1
  O  O210  1  0.50712119  0.87130203  0.75587127  1
  O  O211  1  0.49488351  0.13960228  0.24233151  1
  O  O212  1  0.49057327  0.12569583  0.75574474  1
  O  O213  1  0.50040240  0.63551765  0.24709373  1
  O  O214  1  0.49068107  0.63354951  0.76362690  1
  O  O215  1  0.99274943  0.13243552  0.24482027  1
  O  O216  1  1.00126838  0.12699437  0.73635303  1
  O  O217  1  0.98979721  0.61715743  0.23909241  1
  O  O218  1  0.99506345  0.63677918  0.74047335  1
  O  O219  1  0.36740977  0.25308732  0.00662733  1
  O  O220  1  0.36079046  0.23828636  0.51374896  1
  O  O221  1  0.37241129  0.75350245  0.00429349  1
  O  O222  1  0.35855929  0.74809971  0.50000066  1
  O  O223  1  0.87069066  0.25870481  0.00898384  1
  O  O224  1  0.86621879  0.25617771  0.50749947  1
  O  O225  1  0.87657027  0.76498150  0.00089751  1
  O  O226  1  0.86625837  0.75262552  0.50785559  1
  O  O227  1  0.13550651  0.23548511  0.50664705  1
  O  O228  1  0.13171136  0.25622559  0.98745800  1
  O  O229  1  0.12987126  0.75663922  0.48733769  1
  O  O230  1  0.12951859  0.74349763  0.99321099  1
  O  O231  1  0.64125117  0.25674239  0.50547863  1
  O  O232  1  0.63200111  0.24698543  0.99703279  1
  O  O233  1  0.64249051  0.75403716  0.48967708  1
  O  O234  1  0.62054374  0.73621559  0.99466018  1
  O  O235  1  0.49150267  0.24873753  0.12911182  1
  O  O236  1  0.48802574  0.23581395  0.61903844  1
  O  O237  1  0.49395422  0.74444775  0.12987128  1
  O  O238  1  0.50204194  0.74762713  0.64703683  1
  O  O239  1  0.98988270  0.24417824  0.13283566  1
  O  O240  1  0.98961469  0.24043373  0.62579776  1
  O  O241  1  1.00065852  0.73756343  0.12080424  1
  O  O242  1  0.99419443  0.74458684  0.62771699  1
  O  O243  1  -0.00493441  0.24338728  0.36406851  1
  O  O244  1  0.00826837  0.24904573  0.87344840  1
  O  O245  1  0.00581373  0.75963426  0.37956635  1
  O  O246  1  0.00960024  0.74962507  0.86611330  1
  O  O247  1  0.50062273  0.25684665  0.36688359  1
  O  O248  1  0.50807686  0.25966697  0.88455828  1
  O  O249  1  0.51685725  0.74866150  0.36527773  1
  O  O250  1  0.50986178  0.75852852  0.87271496  1
  O  O251  1  0.23656505  0.13268702  0.50620863  1
  O  O252  1  0.25577823  0.13778630  0.98998977  1
  O  O253  1  0.24070403  0.64072754  0.48685293  1
  O  O254  1  0.24450201  0.63010891  0.99159682  1
  O  O255  1  0.75579708  0.13688618  0.49076264  1
  O  O256  1  0.74592864  0.13045590  0.99401540  1
  O  O257  1  0.74976621  0.62997323  0.49230501  1
  O  O258  1  0.74051144  0.61776551  0.99045353  1
  O  O259  1  0.25113377  0.36414836  0.00606417  1
  O  O260  1  0.24674182  0.35467756  0.50901702  1
  O  O261  1  0.25889863  0.86738035  0.00352105  1
  O  O262  1  0.24999154  0.86422443  0.50894586  1
  O  O263  1  0.76123287  0.37092617  -0.00290711  1
  O  O264  1  0.76039885  0.36097486  0.49518940  1
  O  O265  1  0.76120722  0.87817886  0.00504153  1
  O  O266  1  0.75782986  0.86750653  0.50492536  1
  O  O267  1  0.13333782  0.49018781  0.24332985  1
  O  O268  1  0.12137257  0.48773626  0.75522512  1
  O  O269  1  0.12307485  0.98925266  0.24024080  1
  O  O270  1  0.12222968  1.00036019  0.73679211  1
  O  O271  1  0.63433684  0.49362801  0.24192352  1
  O  O272  1  0.63266770  0.49295765  0.74420159  1
  O  O273  1  0.62856874  0.99052339  0.24212031  1
  O  O274  1  0.63408466  0.99291237  0.74570400  1
  O  O275  1  0.36454643  0.02377696  0.23182540  1
  O  O276  1  0.38000878  0.00510608  0.76377589  1
  O  O277  1  0.36095205  0.50036098  0.23893545  1
  O  O278  1  0.38085344  0.50757466  0.76483319  1
  O  O279  1  0.87354881  0.01070247  0.25162173  1
  O  O280  1  0.85923264  -0.00561793  0.74816287  1
  O  O281  1  0.86255038  0.50719474  0.24232444  1
  O  O282  1  0.86852053  0.49595157  0.75475995  1
  O  O283  1  0.11986368  0.38288400  0.37028637  1
  O  O284  1  0.12300168  0.36733959  0.86566553  1
  O  O285  1  0.11631113  0.86958511  0.36804956  1
  O  O286  1  0.12628366  0.86312740  0.88063085  1
  O  O287  1  0.61683555  0.37213834  0.36297785  1
  O  O288  1  0.61848590  0.36983380  0.86917016  1
  O  O289  1  0.62606606  0.86755882  0.36422278  1
  O  O290  1  0.62416850  0.87272705  0.86562761  1
  O  O291  1  0.37900279  0.13854300  0.12769091  1
  O  O292  1  0.38561089  0.12776253  0.63363225  1
  O  O293  1  0.37778437  0.63702004  0.12467878  1
  O  O294  1  0.36812305  0.62430836  0.64653592  1
  O  O295  1  0.87901041  0.13127818  0.13655520  1
  O  O296  1  0.88524014  0.13773849  0.61777625  1
  O  O297  1  0.88245226  0.62712359  0.12999372  1
  O  O298  1  0.88220696  0.63189845  0.62509313  1
  O  O299  1  0.25363980  0.25320500  0.11672619  1
  O  O300  1  0.26257951  0.24807314  0.62223341  1
  O  O301  1  0.25822709  0.75008491  0.11807826  1
  O  O302  1  0.23778075  0.76097675  0.61242866  1
  O  O303  1  0.76435483  0.24574163  0.12125597  1
  O  O304  1  0.76142544  0.24112320  0.61573075  1
  O  O305  1  0.74914816  0.76214190  0.12490694  1
  O  O306  1  0.75575629  0.75218426  0.61817866  1
  O  O307  1  0.25748482  0.25190290  0.39161126  1
  O  O308  1  0.24411794  0.24313203  0.88064238  1
  O  O309  1  0.24040401  0.75083880  0.38474511  1
  O  O310  1  0.24330128  0.74286960  0.88268304  1
  O  O311  1  0.74564440  0.24218863  0.38645034  1
  O  O312  1  0.74345185  0.24463289  0.88218161  1
  O  O313  1  0.74422613  0.74206579  0.37953238  1
  O  O314  1  0.74557929  0.73603129  0.86859091  1
  O  O315  1  -0.00791296  0.12530974  0.01656010  1
  O  O316  1  0.00896103  0.11876546  0.50871812  1
  O  O317  1  0.00405174  0.61932793  0.00623344  1
  O  O318  1  -0.00381869  0.62780251  0.51441414  1
  O  O319  1  0.50582239  0.12052498  0.00647087  1
  O  O320  1  0.50016271  0.12668894  0.50506101  1
  O  O321  1  0.50986526  0.61170114  -0.00317201  1
  O  O322  1  0.51754745  0.65932784  0.50880524  1
  O  O323  1  0.50321661  0.37358826  0.48469485  1
  O  O324  1  0.49995684  0.38528217  0.99182734  1
  O  O325  1  0.50167357  0.86956028  0.50638614  1
  O  O326  1  0.49625792  0.88024651  0.99455628  1
  O  O327  1  0.99329269  0.36993588  0.49494278  1
  O  O328  1  0.98892301  0.38196285  0.99883951  1
  O  O329  1  0.99581805  0.88253529  0.49252101  1
  O  O330  1  0.98698146  0.87743584  0.99484511  1
  O  O331  1  0.50401532  0.48908453  0.36980931  1
  O  O332  1  0.49514155  0.49133105  0.88223441  1
  O  O333  1  0.48430750  0.98752836  0.33569779  1
  O  O334  1  0.49407330  0.99450807  0.88229545  1
  O  O335  1  0.99972744  0.49981945  0.37497730  1
  O  O336  1  0.99059615  0.50235034  0.88253157  1
  O  O337  1  0.99774684  0.99203591  0.38314532  1
  O  O338  1  0.99638821  0.99949875  0.87596584  1
  O  O339  1  0.00539103  0.01035128  0.12517793  1
  O  O340  1  0.00750186  0.00337748  0.61878577  1
  O  O341  1  0.00612741  0.50808012  0.11825657  1
  O  O342  1  0.00240545  0.51384289  0.62832501  1
  O  O343  1  0.50879718  0.00714847  0.12436803  1
  O  O344  1  0.50668010  0.01561678  0.63114431  1
  O  O345  1  0.50976380  0.50014961  0.11701831  1
  O  O346  1  0.51598353  0.50089205  0.63588853  1
  O  O347  1  0.24232803  0.37985127  0.24526124  1
  O  O348  1  0.23332563  0.37103738  0.74836341  1
  O  O349  1  0.23967732  0.87565916  0.24590895  1
  O  O350  1  0.24679901  0.86422166  0.73612190  1
  O  O351  1  0.74228023  0.38072881  0.25632506  1
  O  O352  1  0.73883445  0.38433921  0.75861804  1
  O  O353  1  0.74213350  0.87441512  0.24172909  1
  O  O354  1  0.74274202  0.88031893  0.74381944  1
  O  O355  1  0.26025482  0.13503702  0.24883392  1
  O  O356  1  0.26202185  0.12711976  0.76246052  1
  O  O357  1  0.24717384  0.61478805  0.25211968  1
  O  O358  1  0.25625835  0.63206695  0.76472718  1
  O  O359  1  0.75862605  0.12533023  0.25845284  1
  O  O360  1  0.74231571  0.11765808  0.75883236  1
  O  O361  1  0.75698113  0.61566422  0.25568278  1
  O  O362  1  0.75369454  0.61549813  0.75826167  1
  O  O363  1  0.38060869  0.12612325  0.35707267  1
  O  O364  1  0.37096253  0.11861552  0.86987154  1
  O  O365  1  0.35143105  0.64228413  0.35769521  1
  O  O366  1  0.36611322  0.61607641  0.87445695  1
  O  O367  1  0.86734638  0.12587287  0.36577081  1
  O  O368  1  0.86198171  0.12791242  0.87780634  1
  O  O369  1  0.86436286  0.62801678  0.36703085  1
  O  O370  1  0.86823030  0.61873448  0.87457408  1
  O  O371  1  0.12825845  0.37909564  0.13202352  1
  O  O372  1  0.12052225  0.37503662  0.63996781  1
  O  O373  1  0.12342223  0.88041936  0.13242909  1
  O  O374  1  0.13085368  0.88936149  0.62085885  1
  O  O375  1  0.62063501  0.38263015  0.13814520  1
  O  O376  1  0.61918291  0.38219276  0.63771347  1
  O  O377  1  0.63325012  0.87956827  0.12669386  1
  O  O378  1  0.63131223  0.88465974  0.63785114  1
  O  O379  1  0.11713613  0.26419322  0.24855529  1
  O  O380  1  0.12467844  0.25323420  0.76108803  1
  O  O381  1  0.12553423  0.76278424  0.25784368  1
  O  O382  1  0.11746594  0.74443217  0.75976060  1
  O  O383  1  0.61622476  0.25750040  0.24873223  1
  O  O384  1  0.63093122  0.25908589  0.75742060  1
  O  O385  1  0.62445329  0.75303516  0.25474632  1
  O  O386  1  0.62164545  0.75753382  0.75696112  1
  O  O387  1  0.37967579  0.24453415  0.24184123  1
  O  O388  1  0.37313100  0.24036555  0.73899263  1
  O  O389  1  0.38583354  0.75392805  0.24130156  1
  O  O390  1  0.38647454  0.73977980  0.76576640  1
  O  O391  1  0.87956789  0.24616476  0.24565668  1
  O  O392  1  0.87283751  0.25628180  0.73476519  1
  O  O393  1  0.87026398  0.73506982  0.24389993  1
  O  O394  1  0.87794587  0.74800975  0.73655738  1
  O  O395  1  0.39330196  0.55533762  0.49912855  1
  O  O396  1  0.38449013  0.49772771  0.99208473  1
  O  O397  1  0.37946112  1.00043200  0.50347357  1
  O  O398  1  0.38163106  0.99686771  0.99456874  1
  O  O399  1  0.86799059  0.47918424  0.50688361  1
  O  O400  1  0.87719220  0.49367434  0.99720796  1
  O  O401  1  0.88824837  0.99643566  0.50070657  1
  O  O402  1  0.87714810  0.98765175  0.99666249  1
  O  O403  1  0.11956118  -0.00604065  0.01557594  1
  O  O404  1  0.11681718  0.00729972  0.50607082  1
  O  O405  1  0.11970003  0.50460553  0.00405352  1
  O  O406  1  0.11495283  0.48361629  0.48975054  1
  O  O407  1  0.61957320  0.00547013  0.00451593  1
  O  O408  1  0.62905923  -0.00427740  0.51215647  1
  O  O409  1  0.62106347  0.50307192  0.00576301  1
  O  O410  1  0.63401723  0.49581284  0.51905297  1
  O  O411  1  0.36921238  0.36381974  0.12396244  1
  O  O412  1  0.37787041  0.35884322  0.63311413  1
  O  O413  1  0.37710036  0.86265269  0.11867668  1
  O  O414  1  0.35667016  0.87861006  0.62752452  1
  O  O415  1  0.87921342  0.36742227  0.11826188  1
  O  O416  1  0.88233579  0.35820560  0.61425508  1
  O  O417  1  0.86826752  0.87347223  0.11513604  1
  O  O418  1  0.86948019  0.86655769  0.61797626  1
  O  O419  1  0.11889706  0.12063321  0.39145316  1
  O  O420  1  0.13507031  0.13222011  0.87223660  1
  O  O421  1  0.13528892  0.63952559  0.36342508  1
  O  O422  1  0.13121480  0.63014562  0.87966365  1
  O  O423  1  0.63605307  0.12963735  0.36895482  1
  O  O424  1  0.63221129  0.13095746  0.88204972  1
  O  O425  1  0.63726611  0.63082210  0.37459397  1
  O  O426  1  0.63335895  0.62674672  0.88124706  1
