# generated using pymatgen
data_V85Zn86O256
_symmetry_space_group_name_H-M   'P 1'
_cell_length_a   16.92426284
_cell_length_b   16.91342889
_cell_length_c   16.92401054
_cell_angle_alpha   90.05360434
_cell_angle_beta   89.97657557
_cell_angle_gamma   90.04929904
_symmetry_Int_Tables_number   1
_chemical_formula_structural   V85Zn86O256
_chemical_formula_sum   'V85 Zn86 O256'
_cell_volume   4844.44827412
_cell_formula_units_Z   1
loop_
 _symmetry_equiv_pos_site_id
 _symmetry_equiv_pos_as_xyz
  1  'x, y, z'
loop_
 _atom_site_type_symbol
 _atom_site_label
 _atom_site_symmetry_multiplicity
 _atom_site_fract_x
 _atom_site_fract_y
 _atom_site_fract_z
 _atom_site_occupancy
  V  V0  1  0.74869701  -0.00013388  0.25094463  1
  V  V1  1  0.62476129  0.86049786  0.24617244  1
  V  V2  1  0.25272631  0.87166509  0.12284508  1
  V  V3  1  0.37785741  -0.00125312  0.87760305  1
  V  V4  1  0.37327888  0.00447653  0.37579257  1
  V  V5  1  0.74842615  0.62597707  0.38875235  1
  V  V6  1  0.50058155  0.12810138  0.62959550  1
  V  V7  1  -0.00340972  0.12912199  0.12784669  1
  V  V8  1  0.86406090  0.62592164  0.75480895  1
  V  V9  1  -0.00035042  0.25179147  0.25947199  1
  V  V10  1  0.62495057  0.00018339  0.62493327  1
  V  V11  1  0.75636135  0.00247667  0.74977718  1
  V  V12  1  -0.01148941  0.87184598  0.37862062  1
  V  V13  1  0.87248808  0.75187120  0.61265235  1
  V  V14  1  0.75443109  0.87303064  0.61125786  1
  V  V15  1  0.49940632  0.86989718  0.36999080  1
  V  V16  1  0.37769237  0.24508121  0.12580051  1
  V  V17  1  0.74491341  0.49238445  0.25199798  1
  V  V18  1  -0.00694233  -0.00446238  0.50167010  1
  V  V19  1  0.00438143  0.87901061  0.86956538  1
  V  V20  1  0.11882553  0.37430402  0.74825424  1
  V  V21  1  0.62867901  0.87279577  0.74987857  1
  V  V22  1  -0.00582389  0.24841267  0.75540302  1
  V  V23  1  0.37522697  0.74747690  0.62730735  1
  V  V24  1  0.62705172  0.74494102  0.39281318  1
  V  V25  1  0.37180744  0.50447398  0.35867833  1
  V  V26  1  0.24845095  0.24859784  0.00303330  1
  V  V27  1  0.86939532  0.25108778  0.12006687  1
  V  V28  1  0.50766465  0.24960850  0.24594139  1
  V  V29  1  0.49967695  0.50651532  0.00222512  1
  V  V30  1  0.75123290  0.87439782  0.12306658  1
  V  V31  1  0.86835041  0.36637438  0.49382455  1
  V  V32  1  0.25303810  0.24713384  0.49051689  1
  V  V33  1  -0.00175497  0.62122372  0.62426423  1
  V  V34  1  0.00228545  0.60624182  0.11746362  1
  V  V35  1  0.12422652  0.49776989  0.62323451  1
  V  V36  1  0.13082669  0.25262154  0.87110926  1
  V  V37  1  0.86813140  0.24930964  0.62772127  1
  V  V38  1  0.24760152  -0.00490653  0.75244976  1
  V  V39  1  0.62042132  0.50363967  0.12978042  1
  V  V40  1  -0.00370117  0.12597342  0.62875169  1
  V  V41  1  0.50337949  0.00052707  0.00825169  1
  V  V42  1  0.63329293  0.62396171  -0.00822203  1
  V  V43  1  0.12876851  0.12407436  0.49352332  1
  V  V44  1  0.12157230  0.87746074  0.25237047  1
  V  V45  1  0.49915537  0.00197014  0.49983421  1
  V  V46  1  0.62930459  0.49717973  0.61577443  1
  V  V47  1  0.50477851  0.37835982  0.36797148  1
  V  V48  1  0.25144335  0.49992742  0.74719808  1
  V  V49  1  -0.00087105  0.48963429  0.49264846  1
  V  V50  1  0.50697828  0.62586913  0.61885727  1
  V  V51  1  0.12431417  -0.00345458  0.62904591  1
  V  V52  1  0.12305235  0.00386450  0.12541996  1
  V  V53  1  0.24875839  0.74675200  0.49966128  1
  V  V54  1  0.12328266  0.74919412  0.37623257  1
  V  V55  1  0.87031790  0.62322164  0.24919726  1
  V  V56  1  0.37898028  0.12675828  0.25320286  1
  V  V57  1  0.25424610  0.12487001  0.87500315  1
  V  V58  1  0.00396708  0.75232660  0.74814198  1
  V  V59  1  0.24726809  0.87369270  0.62805167  1
  V  V60  1  0.62261882  0.13510268  0.00833288  1
  V  V61  1  0.37721610  0.50232915  0.87332009  1
  V  V62  1  0.62710859  0.25374751  0.38269035  1
  V  V63  1  0.25206818  0.62337054  0.36025075  1
  V  V64  1  0.43459455  0.69309219  0.18735683  1
  V  V65  1  0.74111413  0.49178482  0.75928920  1
  V  V66  1  0.37900111  0.25300699  0.62730131  1
  V  V67  1  0.50325067  0.87133218  0.87597597  1
  V  V68  1  0.24236953  0.38700173  0.12881790  1
  V  V69  1  0.37371487  0.87530014  0.49978921  1
  V  V70  1  0.24897685  0.00782755  0.25610100  1
  V  V71  1  0.87571713  0.87786154  -0.00492551  1
  V  V72  1  0.89038518  0.49436703  0.87685388  1
  V  V73  1  0.74424614  0.37277483  0.11743658  1
  V  V74  1  0.12502610  0.74929270  0.88126729  1
  V  V75  1  0.87867598  0.74932129  0.12160855  1
  V  V76  1  0.50305586  0.37210092  0.86273075  1
  V  V77  1  0.37830542  0.12876100  0.75078599  1
  V  V78  1  0.37532929  0.38159026  0.49733513  1
  V  V79  1  0.74897099  0.12722077  0.38280416  1
  V  V80  1  0.87759949  0.01418084  0.87233994  1
  V  V81  1  0.74950611  0.13031163  0.87811457  1
  V  V82  1  0.12172040  0.38651246  0.25404006  1
  V  V83  1  0.37751368  0.37469291  0.00127033  1
  V  V84  1  0.62203230  0.25276556  0.86061792  1
  Zn  Zn85  1  0.63575618  0.74387556  0.86848896  1
  Zn  Zn86  1  0.50507526  0.50776010  0.49240428  1
  Zn  Zn87  1  0.86934113  -0.00351719  0.38012438  1
  Zn  Zn88  1  -0.00103663  0.00864006  -0.00134688  1
  Zn  Zn89  1  0.87525260  0.49567623  0.37434108  1
  Zn  Zn90  1  0.24833282  0.62526633  0.87814279  1
  Zn  Zn91  1  0.87254311  0.12583937  0.25398391  1
  Zn  Zn92  1  0.12571890  0.61912393  0.49734054  1
  Zn  Zn93  1  0.38283089  0.86733773  0.00851350  1
  Zn  Zn94  1  0.12665574  0.25066035  0.37333320  1
  Zn  Zn95  1  0.12662214  0.12514712  0.00044531  1
  Zn  Zn96  1  0.25456207  0.74045458  0.00687471  1
  Zn  Zn97  1  0.62314224  0.00176742  0.12741785  1
  Zn  Zn98  1  0.87704571  0.37985612  -0.00187329  1
  Zn  Zn99  1  0.62697115  0.13058600  0.50364833  1
  Zn  Zn100  1  0.50176882  0.74759351  0.75050845  1
  Zn  Zn101  1  0.25015696  0.37362823  0.62205587  1
  Zn  Zn102  1  -0.00185722  0.74789776  0.24882255  1
  Zn  Zn103  1  0.74302884  0.36741355  0.62626332  1
  Zn  Zn104  1  0.37643861  0.62451674  0.74880548  1
  Zn  Zn105  1  0.12354583  0.60410503  0.00056493  1
  Zn  Zn106  1  0.75626681  0.74369614  -0.01079033  1
  Zn  Zn107  1  0.18715148  0.19053122  0.19031506  1
  Zn  Zn108  1  0.19126927  0.18516901  0.68213984  1
  Zn  Zn109  1  0.18146171  0.68734823  0.18730846  1
  Zn  Zn110  1  0.18513130  0.68462784  0.69061901  1
  Zn  Zn111  1  0.68806650  0.18754502  0.19208994  1
  Zn  Zn112  1  0.68774414  0.18395676  0.69177780  1
  Zn  Zn113  1  0.68842615  0.68338835  0.18174745  1
  Zn  Zn114  1  0.68905888  0.68661255  0.68099349  1
  Zn  Zn115  1  0.31159672  0.31620466  0.30977023  1
  Zn  Zn116  1  0.31435094  0.31706308  0.80954636  1
  Zn  Zn117  1  0.30923216  0.81468162  0.30858003  1
  Zn  Zn118  1  0.31403623  0.81231107  0.81727948  1
  Zn  Zn119  1  0.81004252  0.31071781  0.30975361  1
  Zn  Zn120  1  0.81088062  0.31310433  0.81458851  1
  Zn  Zn121  1  0.80828939  0.80767884  0.31219764  1
  Zn  Zn122  1  0.81515085  0.81397715  0.80942397  1
  Zn  Zn123  1  0.18994193  0.43683262  0.43383173  1
  Zn  Zn124  1  0.19180346  0.43589877  0.93468976  1
  Zn  Zn125  1  0.18375531  0.93666262  0.43870902  1
  Zn  Zn126  1  0.18362129  0.93772074  0.93960830  1
  Zn  Zn127  1  0.69014838  0.43538190  0.43762986  1
  Zn  Zn128  1  0.68721954  0.43583423  0.93773554  1
  Zn  Zn129  1  0.68253740  0.93861243  0.43529692  1
  Zn  Zn130  1  0.68834413  0.93886425  0.93759192  1
  Zn  Zn131  1  0.31514309  0.06061240  0.06515981  1
  Zn  Zn132  1  0.31186049  0.06439003  0.56344050  1
  Zn  Zn133  1  0.31309770  0.56843811  0.06273094  1
  Zn  Zn134  1  0.31240124  0.56449988  0.55859958  1
  Zn  Zn135  1  0.81069537  0.06462756  0.06125178  1
  Zn  Zn136  1  0.81307035  0.06447234  0.56375093  1
  Zn  Zn137  1  0.81233429  0.55810198  0.06110496  1
  Zn  Zn138  1  0.81554110  0.55619444  0.56623059  1
  Zn  Zn139  1  0.43762231  0.43478225  0.18444486  1
  Zn  Zn140  1  0.44203221  0.43990703  0.68399192  1
  Zn  Zn141  1  0.43795596  0.93328823  0.18967521  1
  Zn  Zn142  1  0.43676879  0.93732486  0.69036514  1
  Zn  Zn143  1  0.93228001  0.43163064  0.19326149  1
  Zn  Zn144  1  0.93297065  0.43499338  0.68827106  1
  Zn  Zn145  1  0.93552024  0.93880701  0.18957817  1
  Zn  Zn146  1  0.93540948  0.93559710  0.68765612  1
  Zn  Zn147  1  0.05852231  0.06262985  0.31522603  1
  Zn  Zn148  1  0.06468109  0.06715959  0.81159826  1
  Zn  Zn149  1  0.05874576  0.56581434  0.31058389  1
  Zn  Zn150  1  0.06216174  0.56553472  0.81108055  1
  Zn  Zn151  1  0.56399843  0.06310810  0.31152399  1
  Zn  Zn152  1  0.56467655  0.06126280  0.81468420  1
  Zn  Zn153  1  0.55992042  0.57040218  0.30861528  1
  Zn  Zn154  1  0.56143728  0.56280216  0.80830375  1
  Zn  Zn155  1  0.43960705  0.18961361  0.43731406  1
  Zn  Zn156  1  0.44262341  0.18775738  0.93951867  1
  Zn  Zn157  1  0.43776943  0.68701271  0.43361776  1
  Zn  Zn158  1  0.43799797  0.68799661  0.94294859  1
  Zn  Zn159  1  0.93620681  0.18445562  0.43966291  1
  Zn  Zn160  1  0.97747275  0.23919776  0.97298181  1
  Zn  Zn161  1  0.93756297  0.68106318  0.43707684  1
  Zn  Zn162  1  0.93741533  0.68524020  0.93509232  1
  Zn  Zn163  1  0.05687803  0.41766350  0.05163683  1
  Zn  Zn164  1  0.06015981  0.31065183  0.56214164  1
  Zn  Zn165  1  0.06002462  0.81517513  0.06073129  1
  Zn  Zn166  1  0.06145799  0.81243539  0.56248385  1
  Zn  Zn167  1  0.56217742  0.31796164  0.06103401  1
  Zn  Zn168  1  0.55900283  0.31802153  0.56082727  1
  Zn  Zn169  1  0.56261272  0.80647417  0.06278554  1
  Zn  Zn170  1  0.56059001  0.81539152  0.56359508  1
  O  O171  1  0.11898593  0.11589014  0.12894863  1
  O  O172  1  0.12015538  0.11496551  0.61706492  1
  O  O173  1  0.10418098  0.62577707  0.12761910  1
  O  O174  1  0.11572678  0.61672380  0.62303958  1
  O  O175  1  0.63105646  0.12423604  0.11152995  1
  O  O176  1  0.61758383  0.12034818  0.62435984  1
  O  O177  1  0.62842688  0.61136823  0.11230046  1
  O  O178  1  0.61922329  0.61330018  0.62598846  1
  O  O179  1  0.37860602  0.38638485  0.37840101  1
  O  O180  1  0.38132143  0.38291374  0.88048173  1
  O  O181  1  0.38249243  0.88076427  0.37811407  1
  O  O182  1  0.38741060  0.88437493  0.87129490  1
  O  O183  1  0.86990097  0.37331395  0.38958882  1
  O  O184  1  0.87063756  0.38996411  0.87484084  1
  O  O185  1  0.88521819  0.87166343  0.37262930  1
  O  O186  1  0.88469907  0.88504450  0.87920329  1
  O  O187  1  0.25491353  -0.00736700  0.36341308  1
  O  O188  1  0.25439742  0.00293933  0.86967454  1
  O  O189  1  0.26327971  0.50816049  0.37775523  1
  O  O190  1  0.26140267  0.49763681  0.86512467  1
  O  O191  1  0.74834194  0.00577148  0.36895590  1
  O  O192  1  0.75741853  0.00438704  0.86791368  1
  O  O193  1  0.74843355  0.50804980  0.36741583  1
  O  O194  1  0.74977395  0.49857334  0.86120710  1
  O  O195  1  0.25769448  0.48420232  0.12263870  1
  O  O196  1  0.24380681  0.49921299  0.62992324  1
  O  O197  1  0.24133039  0.99634348  0.13504164  1
  O  O198  1  0.24357566  0.99637587  0.63218317  1
  O  O199  1  0.74375882  0.49342743  0.13238015  1
  O  O200  1  0.74003407  0.49837022  0.63261434  1
  O  O201  1  0.74856294  0.99268431  0.13267686  1
  O  O202  1  0.74663871  0.99712321  0.63241719  1
  O  O203  1  0.01280231  0.36627904  0.24495491  1
  O  O204  1  0.01189317  0.36549072  0.74451217  1
  O  O205  1  0.00492508  0.87492603  0.25985402  1
  O  O206  1  -0.00461209  0.86539232  0.75732455  1
  O  O207  1  0.49357993  0.36574847  0.26103387  1
  O  O208  1  0.49610013  0.37760489  0.76337230  1
  O  O209  1  0.50951787  0.88164803  0.26309423  1
  O  O210  1  0.51096993  0.87594268  0.75608618  1
  O  O211  1  0.48869343  0.13217573  0.25181612  1
  O  O212  1  0.49550453  0.11795509  0.73758567  1
  O  O213  1  0.49801773  0.63409609  0.24148488  1
  O  O214  1  0.49726895  0.62768641  0.73636602  1
  O  O215  1  0.99676011  0.12998782  0.24600502  1
  O  O216  1  1.00560979  0.13283060  0.73689556  1
  O  O217  1  0.98638366  0.62391468  0.23896403  1
  O  O218  1  0.99196186  0.62844007  0.73808318  1
  O  O219  1  0.36963952  0.25254440  0.00659384  1
  O  O220  1  0.37116696  0.25957987  0.50333942  1
  O  O221  1  0.36481689  0.75870499  -0.01444798  1
  O  O222  1  0.36952075  0.75539031  0.50904244  1
  O  O223  1  0.86636481  0.24280110  0.01871539  1
  O  O224  1  0.88188251  0.26023773  0.50967895  1
  O  O225  1  0.87680119  0.75849243  0.00389078  1
  O  O226  1  0.88225871  0.74605819  0.51367871  1
  O  O227  1  0.13388327  0.24295005  0.50010473  1
  O  O228  1  0.14135948  0.24800149  0.98787118  1
  O  O229  1  0.12895527  0.74858352  0.48984734  1
  O  O230  1  0.12535800  0.75376038  0.98835658  1
  O  O231  1  0.61866726  0.24985589  0.48760290  1
  O  O232  1  0.61955464  0.23735667  0.99579104  1
  O  O233  1  0.62736894  0.75426602  0.49111929  1
  O  O234  1  0.62600678  0.73251080  1.00103996  1
  O  O235  1  0.49119450  0.25890807  0.13395972  1
  O  O236  1  0.48843290  0.24336967  0.61903164  1
  O  O237  1  0.48789625  0.76304300  0.13302991  1
  O  O238  1  0.49211946  0.74566474  0.62545721  1
  O  O239  1  0.98917724  0.23640716  0.13935240  1
  O  O240  1  0.99395935  0.24243924  0.63407494  1
  O  O241  1  0.98798293  0.75007831  0.12695408  1
  O  O242  1  0.99674811  0.74293181  0.63050732  1
  O  O243  1  0.00102195  0.24382782  0.36352575  1
  O  O244  1  0.01587623  0.24047015  0.86175036  1
  O  O245  1  0.00604421  0.75381445  0.37513296  1
  O  O246  1  0.00371938  0.75842648  0.86798993  1
  O  O247  1  0.50502163  0.25848366  0.36770416  1
  O  O248  1  0.51161658  0.25709586  0.87787514  1
  O  O249  1  0.51285403  0.75797987  0.38086130  1
  O  O250  1  0.50655960  0.76185327  0.87200342  1
  O  O251  1  0.24132428  0.13300340  0.50545615  1
  O  O252  1  0.25185038  0.13133831  0.99482585  1
  O  O253  1  0.24684282  0.63300329  0.49115137  1
  O  O254  1  0.24037076  0.62478882  0.99654969  1
  O  O255  1  0.74601611  0.11959608  0.48781665  1
  O  O256  1  0.73516632  0.11793067  0.98695916  1
  O  O257  1  0.75964048  0.61858515  0.48737751  1
  O  O258  1  0.73693742  0.62212590  1.00011103  1
  O  O259  1  0.25757272  0.36648499  0.00957538  1
  O  O260  1  0.25871039  0.36764635  0.50081017  1
  O  O261  1  0.24764485  0.88143726  0.01738388  1
  O  O262  1  0.25446743  0.86837929  0.50604659  1
  O  O263  1  0.75434173  0.37975580  0.01340224  1
  O  O264  1  0.76436801  0.37618385  0.50636986  1
  O  O265  1  0.76302519  0.87790849  0.00420760  1
  O  O266  1  0.74776478  0.88399641  0.51240464  1
  O  O267  1  0.11856102  0.48588898  0.25318588  1
  O  O268  1  0.12985428  0.49191119  0.74576086  1
  O  O269  1  0.13151688  0.99915584  0.24690844  1
  O  O270  1  0.13493570  1.00546667  0.74123984  1
  O  O271  1  0.63160106  0.50731452  0.24146480  1
  O  O272  1  0.63745343  0.50437707  0.74182388  1
  O  O273  1  0.63384421  0.99048431  0.24954326  1
  O  O274  1  0.63197619  0.99118351  0.74493072  1
  O  O275  1  0.36946408  0.00768554  0.25415716  1
  O  O276  1  0.36854828  0.00808613  0.75598148  1
  O  O277  1  0.37444167  0.49564175  0.26051018  1
  O  O278  1  0.36767128  0.49781751  0.75447417  1
  O  O279  1  0.85957347  -0.00179820  0.25452849  1
  O  O280  1  0.86607108  -0.00204600  0.75732626  1
  O  O281  1  0.86602576  0.50540005  0.25395687  1
  O  O282  1  0.86523998  0.50540060  0.75630818  1
  O  O283  1  0.13275451  0.37068660  0.35869842  1
  O  O284  1  0.13570916  0.36000828  0.86254582  1
  O  O285  1  0.11669777  0.86746941  0.37139000  1
  O  O286  1  0.11063140  0.87180621  0.87782415  1
  O  O287  1  0.61655821  0.36937422  0.37660590  1
  O  O288  1  0.61930802  0.36004105  0.88091599  1
  O  O289  1  0.61978675  0.86337810  0.36935173  1
  O  O290  1  0.61971577  0.87685084  0.86581198  1
  O  O291  1  0.37250171  0.13771477  0.13230032  1
  O  O292  1  0.38194132  0.13205962  0.62958502  1
  O  O293  1  0.37827080  0.63401802  0.12530162  1
  O  O294  1  0.37968615  0.63325226  0.62594036  1
  O  O295  1  0.87914797  0.12801925  0.13075691  1
  O  O296  1  0.88551691  0.13387932  0.62040136  1
  O  O297  1  0.88190926  0.62934011  0.12776637  1
  O  O298  1  0.88094672  0.62947175  0.63223628  1
  O  O299  1  0.25539761  0.25430207  0.11714072  1
  O  O300  1  0.26358246  0.25034985  0.61426686  1
  O  O301  1  0.23587260  0.76859192  0.12535451  1
  O  O302  1  0.25373560  0.75273301  0.62161010  1
  O  O303  1  0.75503245  0.26239371  0.13833145  1
  O  O304  1  0.76300705  0.24661034  0.63313483  1
  O  O305  1  0.76275058  0.75469561  0.11856742  1
  O  O306  1  0.76017499  0.76018677  0.62834181  1
  O  O307  1  0.25300265  0.25056167  0.38681351  1
  O  O308  1  0.25111743  0.24543555  0.87992123  1
  O  O309  1  0.24250191  0.74573699  0.37953146  1
  O  O310  1  0.23521396  0.74905522  0.86867304  1
  O  O311  1  0.73789560  0.24147110  0.36737916  1
  O  O312  1  0.73736553  0.24217572  0.86969400  1
  O  O313  1  0.73661469  0.74191356  0.37380992  1
  O  O314  1  0.74871916  0.75560178  0.87639199  1
  O  O315  1  0.00659859  0.13170951  0.01334602  1
  O  O316  1  0.00806255  0.11886797  0.51057820  1
  O  O317  1  -0.00075240  0.62707666  0.01583729  1
  O  O318  1  0.00013362  0.61492303  0.51157934  1
  O  O319  1  0.51423313  0.11639391  -0.00377246  1
  O  O320  1  0.49850528  0.11915934  0.51203271  1
  O  O321  1  0.50922566  0.61200820  -0.00416298  1
  O  O322  1  0.49428603  0.62426759  0.51317602  1
  O  O323  1  0.49123268  0.37877609  0.48528569  1
  O  O324  1  0.49374662  0.38451948  0.99147443  1
  O  O325  1  0.49361760  0.88129593  0.49152976  1
  O  O326  1  0.50404990  0.88222153  0.99156876  1
  O  O327  1  0.98834989  0.38068749  0.50488508  1
  O  O328  1  0.98656919  0.34784146  1.00442042  1
  O  O329  1  1.00625372  0.88393736  0.49149836  1
  O  O330  1  0.98894876  0.88075681  0.99211548  1
  O  O331  1  0.49117027  0.49694005  0.37279595  1
  O  O332  1  0.49542425  0.49298356  0.87894826  1
  O  O333  1  0.49599338  0.99297222  0.38157580  1
  O  O334  1  0.49822117  0.99176989  0.88316332  1
  O  O335  1  0.99604758  0.50736058  0.38952809  1
  O  O336  1  0.98891451  0.49477270  0.86516843  1
  O  O337  1  0.99757854  0.99043877  0.38446778  1
  O  O338  1  0.99466165  0.99764613  0.87285812  1
  O  O339  1  0.00502844  0.01073933  0.12711632  1
  O  O340  1  0.00592971  0.00439688  0.62232384  1
  O  O341  1  -0.00677775  0.50386422  0.12290286  1
  O  O342  1  0.00291258  0.50492384  0.61986418  1
  O  O343  1  0.50154169  -0.00628498  0.11256880  1
  O  O344  1  0.50267008  0.00590572  0.61940256  1
  O  O345  1  0.50783436  0.49146653  0.11445759  1
  O  O346  1  0.51273206  0.50656645  0.62177246  1
  O  O347  1  0.23877860  0.36890779  0.23686706  1
  O  O348  1  0.24187274  0.38460700  0.74459589  1
  O  O349  1  0.24157553  0.88462419  0.24142386  1
  O  O350  1  0.25573394  0.88831238  0.74501797  1
  O  O351  1  0.75129788  0.38846199  0.24455571  1
  O  O352  1  0.75190686  0.38913165  0.74549208  1
  O  O353  1  0.74284367  0.87919581  0.24487055  1
  O  O354  1  0.74433254  0.88567623  0.74283873  1
  O  O355  1  0.26194788  0.11808844  0.24715350  1
  O  O356  1  0.25739486  0.11527906  0.75337213  1
  O  O357  1  0.24402685  0.62713680  0.26091237  1
  O  O358  1  0.25065174  0.61081325  0.75297710  1
  O  O359  1  0.74747132  0.11514455  0.26107037  1
  O  O360  1  0.74287565  0.11184278  0.76384833  1
  O  O361  1  0.75880231  0.61702492  0.25115911  1
  O  O362  1  0.76032916  0.61486885  0.74308811  1
  O  O363  1  0.37999937  0.11630799  0.36802854  1
  O  O364  1  0.37367350  0.11977973  0.87084039  1
  O  O365  1  0.36883311  0.61181192  0.37840592  1
  O  O366  1  0.37756831  0.61152876  0.87079226  1
  O  O367  1  0.86453117  0.12146101  0.37469245  1
  O  O368  1  0.86494442  0.11525227  0.87962707  1
  O  O369  1  0.86657701  0.62452713  0.36494531  1
  O  O370  1  0.88251223  0.61377004  0.86267906  1
  O  O371  1  0.13658844  0.37531608  0.13454870  1
  O  O372  1  0.12740035  0.37909055  0.63147986  1
  O  O373  1  0.12577767  0.88812193  0.13139277  1
  O  O374  1  0.13052849  0.88797955  0.62094745  1
  O  O375  1  0.63192529  0.38855521  0.12032265  1
  O  O376  1  0.62399577  0.38988993  0.62318571  1
  O  O377  1  0.63257442  0.87475276  0.13078283  1
  O  O378  1  0.63123104  0.88110421  0.63101615  1
  O  O379  1  0.11612120  0.25574721  0.25213868  1
  O  O380  1  0.12360769  0.25523960  0.75111945  1
  O  O381  1  0.12045934  0.75660120  0.26191759  1
  O  O382  1  0.10984100  0.74389032  0.75686215  1
  O  O383  1  0.61119583  0.24427410  0.25860612  1
  O  O384  1  0.62065249  0.24746629  0.76163391  1
  O  O385  1  0.63186134  0.75853965  0.25293825  1
  O  O386  1  0.62545109  0.76221037  0.74650970  1
  O  O387  1  0.38122432  0.24418680  0.24584820  1
  O  O388  1  0.36953312  0.24307954  0.73925468  1
  O  O389  1  0.37515696  0.74472090  0.25347578  1
  O  O390  1  0.37516338  0.75047504  0.73741656  1
  O  O391  1  0.88295803  0.24957446  0.24478299  1
  O  O392  1  0.88611790  0.25605306  0.74464117  1
  O  O393  1  0.87402878  0.74103850  0.24074748  1
  O  O394  1  0.88528660  0.74097749  0.74411528  1
  O  O395  1  0.37713702  0.48966899  0.49538036  1
  O  O396  1  0.38158318  0.49642516  0.99207007  1
  O  O397  1  0.37858045  0.99528957  0.49571841  1
  O  O398  1  0.38465043  0.99707967  0.99483371  1
  O  O399  1  0.88208087  0.48508224  0.50104739  1
  O  O400  1  0.87370760  0.50309242  0.98079897  1
  O  O401  1  0.88936223  1.00204688  0.50174476  1
  O  O402  1  0.87785669  0.99565038  0.99111827  1
  O  O403  1  0.12048861  0.00492885  0.01100319  1
  O  O404  1  0.11819542  0.00629846  0.50750463  1
  O  O405  1  0.12065595  0.49048530  -0.00250890  1
  O  O406  1  0.11725641  0.49557966  0.50507902  1
  O  O407  1  0.61849243  0.00987442  0.00034122  1
  O  O408  1  0.61423486  0.00191029  0.50683484  1
  O  O409  1  0.61930852  0.50744860  0.00318456  1
  O  O410  1  0.62587048  0.50021511  0.51130364  1
  O  O411  1  0.36514888  0.36345933  0.12282291  1
  O  O412  1  0.37760879  0.36947393  0.61555305  1
  O  O413  1  0.35624820  0.88244289  0.12711148  1
  O  O414  1  0.36916577  0.86868241  0.62002114  1
  O  O415  1  0.86343321  0.36774549  0.12599918  1
  O  O416  1  0.87247834  0.36504576  0.61759810  1
  O  O417  1  0.87302896  0.86926010  0.11661405  1
  O  O418  1  0.86656605  0.86493096  0.62834868  1
  O  O419  1  0.12189505  0.12512834  0.38994560  1
  O  O420  1  0.13720958  0.13494121  0.87353998  1
  O  O421  1  0.12964634  0.63261607  0.37573223  1
  O  O422  1  0.12119999  0.63527241  0.87884337  1
  O  O423  1  0.62909819  0.13374231  0.37838647  1
  O  O424  1  0.62810865  0.13580598  0.88127088  1
  O  O425  1  0.63016264  0.63799507  0.37512074  1
  O  O426  1  0.62098197  0.62393043  0.88742018  1
