# generated using pymatgen
data_V85Zn86O256
_symmetry_space_group_name_H-M   'P 1'
_cell_length_a   16.96081695
_cell_length_b   16.96856441
_cell_length_c   16.96021138
_cell_angle_alpha   89.93679156
_cell_angle_beta   90.05773631
_cell_angle_gamma   90.04581892
_symmetry_Int_Tables_number   1
_chemical_formula_structural   V85Zn86O256
_chemical_formula_sum   'V85 Zn86 O256'
_cell_volume   4881.15395773
_cell_formula_units_Z   1
loop_
 _symmetry_equiv_pos_site_id
 _symmetry_equiv_pos_as_xyz
  1  'x, y, z'
loop_
 _atom_site_type_symbol
 _atom_site_label
 _atom_site_symmetry_multiplicity
 _atom_site_fract_x
 _atom_site_fract_y
 _atom_site_fract_z
 _atom_site_occupancy
  V  V0  1  0.25210280  0.12923743  0.88957693  1
  V  V1  1  0.62508395  0.75154535  0.87703099  1
  V  V2  1  0.11611815  -0.01086788  0.12471460  1
  V  V3  1  0.49972578  0.12827047  0.12489892  1
  V  V4  1  0.74888735  0.37637519  0.62316566  1
  V  V5  1  0.74898324  0.12973771  0.87611091  1
  V  V6  1  0.76030210  0.87017999  0.62562794  1
  V  V7  1  0.11846025  0.24639721  0.37351203  1
  V  V8  1  0.12388901  0.37752648  0.25326352  1
  V  V9  1  0.36817618  0.87821259  0.50919889  1
  V  V10  1  0.49760859  -0.00146476  0.00304436  1
  V  V11  1  0.87828121  0.50436240  0.37973611  1
  V  V12  1  0.36666275  0.26206245  0.62532185  1
  V  V13  1  0.87916682  0.87316385  0.00666551  1
  V  V14  1  0.26216880  0.62698770  0.37745317  1
  V  V15  1  0.24680760  0.26312625  0.50579089  1
  V  V16  1  0.49822061  0.37507112  0.87648206  1
  V  V17  1  0.87595610  0.12437253  0.74961560  1
  V  V18  1  0.37222934  0.49928682  0.87466828  1
  V  V19  1  0.49858048  0.75164918  0.74973114  1
  V  V20  1  0.12638837  0.62644241  0.49549890  1
  V  V21  1  0.75475245  0.74815538  0.00275236  1
  V  V22  1  0.49696874  0.24841812  0.74959326  1
  V  V23  1  -0.00318997  0.37476098  0.87097773  1
  V  V24  1  0.74413582  0.23603534  0.50136848  1
  V  V25  1  0.87387945  0.63170672  0.24244926  1
  V  V26  1  -0.00483203  0.50525066  0.00168645  1
  V  V27  1  0.87261271  0.37774172  0.49999623  1
  V  V28  1  -0.00357248  0.62509818  0.61237771  1
  V  V29  1  0.74085065  0.37416854  0.11114098  1
  V  V30  1  0.00249447  0.87606898  0.37086974  1
  V  V31  1  0.62158173  0.76150474  0.37341349  1
  V  V32  1  0.49704780  0.50516255  0.00465413  1
  V  V33  1  0.87513096  0.50002437  0.87449224  1
  V  V34  1  0.24811885  0.49911862  0.74396616  1
  V  V35  1  0.49668763  0.62883150  0.62463106  1
  V  V36  1  0.50487958  0.75699798  0.24730089  1
  V  V37  1  0.12488116  0.75170999  0.87312679  1
  V  V38  1  -0.00085780  0.75267084  0.74177044  1
  V  V39  1  0.87477428  0.25029332  0.62126556  1
  V  V40  1  0.61969200  0.50573359  0.12986805  1
  V  V41  1  0.25042940  0.12547942  0.37729763  1
  V  V42  1  0.62527093  0.12580900  0.00085438  1
  V  V43  1  0.50531126  0.25625531  0.25032688  1
  V  V44  1  0.74874711  0.62555868  0.87407676  1
  V  V45  1  0.38074185  0.75969107  0.12318452  1
  V  V46  1  0.50011724  0.12931919  0.61502102  1
  V  V47  1  0.62211412  0.62545948  0.49642121  1
  V  V48  1  0.38553182  0.61854571  0.24173016  1
  V  V49  1  0.12833345  0.37327605  0.74425452  1
  V  V50  1  0.36245476  0.36825680  -0.00005396  1
  V  V51  1  0.12589081  0.62664323  0.00221226  1
  V  V52  1  0.13878529  0.87644208  0.74544268  1
  V  V53  1  0.87527454  0.63124119  0.74355819  1
  V  V54  1  0.62399326  0.88001338  0.74677907  1
  V  V55  1  0.62601415  0.25096431  0.87857991  1
  V  V56  1  0.50644292  -0.00304381  0.49844682  1
  V  V57  1  0.36853111  -0.00526953  0.87428122  1
  V  V58  1  0.10801214  0.11631925  0.00402177  1
  V  V59  1  0.49874589  0.87728712  0.88130303  1
  V  V60  1  0.37272883  0.12799033  0.24968241  1
  V  V61  1  0.25264061  0.50158030  0.25629235  1
  V  V62  1  0.74611131  0.49196384  0.25178990  1
  V  V63  1  0.93722100  0.32452861  0.05697008  1
  V  V64  1  0.62269398  0.50103990  0.62432740  1
  V  V65  1  0.74064433  0.87091637  0.13412660  1
  V  V66  1  0.00124465  0.24839825  0.74709455  1
  V  V67  1  -0.00859794  -0.00299098  0.49776837  1
  V  V68  1  0.74854741  0.62634345  0.37348812  1
  V  V69  1  0.13881536  -0.00579985  0.62478702  1
  V  V70  1  0.36476290  0.12070419  0.74887219  1
  V  V71  1  0.62416035  0.37552483  0.75125526  1
  V  V72  1  0.24889143  0.62362709  0.87506595  1
  V  V73  1  0.37662478  -0.00552557  0.37601628  1
  V  V74  1  0.74989237  0.50139069  0.74904238  1
  V  V75  1  0.11960550  0.49774566  0.61848755  1
  V  V76  1  0.75089969  0.00139959  0.75160681  1
  V  V77  1  0.25623696  0.75889090  0.00065562  1
  V  V78  1  -0.00241420  0.88073358  0.87288366  1
  V  V79  1  -0.00082491  0.38086583  0.38234398  1
  V  V80  1  0.00881001  0.75063389  0.24416326  1
  V  V81  1  0.74971018  0.09529975  0.34551106  1
  V  V82  1  0.48341326  0.49516148  0.49717673  1
  V  V83  1  0.62832844  0.26157902  0.37641205  1
  V  V84  1  0.11989783  0.12131873  0.50128436  1
  Zn  Zn85  1  0.13404128  0.75530222  0.36814855  1
  Zn  Zn86  1  0.62022131  0.62770985  0.00347233  1
  Zn  Zn87  1  0.25382024  0.37675347  0.13417660  1
  Zn  Zn88  1  0.64422372  0.00786176  0.15604150  1
  Zn  Zn89  1  0.87674742  0.86700385  0.49625833  1
  Zn  Zn90  1  0.34957473  0.24056545  0.11616983  1
  Zn  Zn91  1  0.36790683  0.75862031  0.63008826  1
  Zn  Zn92  1  0.87852508  0.00314857  0.88190527  1
  Zn  Zn93  1  0.24195679  -0.00811815  0.25089980  1
  Zn  Zn94  1  0.25169297  0.87437566  0.13840297  1
  Zn  Zn95  1  0.37195063  0.62664209  0.74938662  1
  Zn  Zn96  1  -0.00478144  0.25121207  0.22933399  1
  Zn  Zn97  1  -0.00590361  0.62973232  0.12143321  1
  Zn  Zn98  1  0.62963334  0.01019184  0.62177811  1
  Zn  Zn99  1  0.12409804  0.50181942  0.12718648  1
  Zn  Zn100  1  0.88411301  0.12791977  0.21623161  1
  Zn  Zn101  1  0.12921069  0.24954114  0.87525680  1
  Zn  Zn102  1  0.24693120  0.75582180  0.50530818  1
  Zn  Zn103  1  0.00097500  0.12080681  0.62553450  1
  Zn  Zn104  1  0.48837884  0.38630871  0.36934972  1
  Zn  Zn105  1  0.75476897  0.74745333  0.50362492  1
  Zn  Zn106  1  0.79914755  0.20208500  0.05283671  1
  Zn  Zn107  1  0.18312663  0.17698337  0.19027122  1
  Zn  Zn108  1  0.18797133  0.18280866  0.68758283  1
  Zn  Zn109  1  0.19299987  0.68671467  0.18533919  1
  Zn  Zn110  1  0.18670929  0.68801374  0.68357896  1
  Zn  Zn111  1  0.68336673  0.19167599  0.19157932  1
  Zn  Zn112  1  0.68559823  0.18958130  0.68807967  1
  Zn  Zn113  1  0.68731906  0.68701710  0.18752113  1
  Zn  Zn114  1  0.68343642  0.68976185  0.68799665  1
  Zn  Zn115  1  0.31314054  0.31238351  0.31607538  1
  Zn  Zn116  1  0.31009168  0.31074201  0.81111702  1
  Zn  Zn117  1  0.31851313  0.81125199  0.31371006  1
  Zn  Zn118  1  0.31500833  0.81149185  0.81631006  1
  Zn  Zn119  1  0.81090453  0.31408367  0.30791834  1
  Zn  Zn120  1  0.81338519  0.31162760  0.81228740  1
  Zn  Zn121  1  0.81728679  0.81226860  0.31598951  1
  Zn  Zn122  1  0.81369035  0.81241544  0.81329081  1
  Zn  Zn123  1  0.18865719  0.44302492  0.43584475  1
  Zn  Zn124  1  0.18164700  0.43940014  0.93376097  1
  Zn  Zn125  1  0.18585823  0.93768239  0.43282865  1
  Zn  Zn126  1  0.18677719  0.93818736  0.93733963  1
  Zn  Zn127  1  0.68230258  0.43694062  0.43748256  1
  Zn  Zn128  1  0.68419467  0.44157685  0.93937728  1
  Zn  Zn129  1  0.68693150  0.93855270  0.44013158  1
  Zn  Zn130  1  0.69013222  0.94105757  0.94273696  1
  Zn  Zn131  1  0.31481577  0.05009641  0.06646790  1
  Zn  Zn132  1  0.31416970  0.06967632  0.55953433  1
  Zn  Zn133  1  0.31062373  0.56141037  0.06639757  1
  Zn  Zn134  1  0.30939689  0.56719321  0.56724110  1
  Zn  Zn135  1  0.84377940  0.03378481  0.09846524  1
  Zn  Zn136  1  0.81449466  0.06029596  0.56452859  1
  Zn  Zn137  1  0.80951895  0.56050026  0.06241975  1
  Zn  Zn138  1  0.81081249  0.56607369  0.56067329  1
  Zn  Zn139  1  0.43409912  0.43534612  0.18351643  1
  Zn  Zn140  1  0.43722014  0.43961390  0.68637087  1
  Zn  Zn141  1  0.48568575  0.96250244  0.22014790  1
  Zn  Zn142  1  0.43820165  0.94288478  0.68758120  1
  Zn  Zn143  1  0.93959125  0.44524788  0.19564679  1
  Zn  Zn144  1  0.93851356  0.44083383  0.68648276  1
  Zn  Zn145  1  0.94131524  0.92914547  0.18911154  1
  Zn  Zn146  1  0.94244517  0.94208526  0.68711234  1
  Zn  Zn147  1  0.05692886  0.05776649  0.30614558  1
  Zn  Zn148  1  0.06841712  0.05987748  0.80993184  1
  Zn  Zn149  1  0.06276757  0.56662423  0.31437678  1
  Zn  Zn150  1  0.06173353  0.56374404  0.80992904  1
  Zn  Zn151  1  0.56504782  0.08135938  0.32512480  1
  Zn  Zn152  1  0.55869851  0.06386270  0.81055342  1
  Zn  Zn153  1  0.56171685  0.56108062  0.31485242  1
  Zn  Zn154  1  0.56081088  0.56341884  0.81495085  1
  Zn  Zn155  1  0.42391137  0.22068471  0.42609722  1
  Zn  Zn156  1  0.43630672  0.18733189  0.93681162  1
  Zn  Zn157  1  0.43828507  0.69164780  0.43538493  1
  Zn  Zn158  1  0.43523080  0.68661355  0.93666166  1
  Zn  Zn159  1  0.92813618  0.18414584  0.36533542  1
  Zn  Zn160  1  0.94194727  0.18399142  0.93407161  1
  Zn  Zn161  1  0.93540880  0.69653680  0.43234101  1
  Zn  Zn162  1  0.93748796  0.69031289  0.93133688  1
  Zn  Zn163  1  0.12623342  0.28683388  0.07834123  1
  Zn  Zn164  1  0.05999950  0.31231077  0.55966862  1
  Zn  Zn165  1  0.06271716  0.81325154  0.06315974  1
  Zn  Zn166  1  0.06392231  0.81320400  0.56020759  1
  Zn  Zn167  1  0.55917535  0.31439421  0.06154698  1
  Zn  Zn168  1  0.56145636  0.31242461  0.56090208  1
  Zn  Zn169  1  0.56451325  0.81092233  0.06576990  1
  Zn  Zn170  1  0.56317765  0.81566458  0.56149266  1
  O  O171  1  0.12104774  0.11612296  0.10996139  1
  O  O172  1  0.12312101  0.11376087  0.61873977  1
  O  O173  1  0.12479513  0.62425075  0.11058324  1
  O  O174  1  0.11543480  0.61663447  0.61860448  1
  O  O175  1  0.61982364  0.12299243  0.11692583  1
  O  O176  1  0.60433606  0.12754047  0.63458626  1
  O  O177  1  0.63089603  0.60976296  0.12145583  1
  O  O178  1  0.61421563  0.62367799  0.61857173  1
  O  O179  1  0.39434266  0.32870692  0.38888743  1
  O  O180  1  0.37599732  0.37914144  0.88300030  1
  O  O181  1  0.37782465  0.89144409  0.38594864  1
  O  O182  1  0.38702331  0.88310443  0.87075752  1
  O  O183  1  0.88122823  0.38437855  0.37940417  1
  O  O184  1  0.88839974  0.38369644  0.86352594  1
  O  O185  1  0.89414253  0.87102521  0.37677886  1
  O  O186  1  0.88219340  0.87599120  0.87984865  1
  O  O187  1  0.25845930  0.01032640  0.37536949  1
  O  O188  1  0.26350577  0.00701889  0.87955492  1
  O  O189  1  0.25067737  0.50916594  0.36471509  1
  O  O190  1  0.25122413  0.50433642  0.86488386  1
  O  O191  1  0.74331872  -0.00323963  0.36194213  1
  O  O192  1  0.75000998  0.01239641  0.86858878  1
  O  O193  1  0.75189259  0.50386110  0.36748410  1
  O  O194  1  0.75346920  0.50518150  0.86822186  1
  O  O195  1  0.24616137  0.49892671  0.14068977  1
  O  O196  1  0.23889944  0.50633273  0.63759582  1
  O  O197  1  0.24213584  0.99453662  0.12888906  1
  O  O198  1  0.23725708  1.00506003  0.61995852  1
  O  O199  1  0.74364975  0.49126070  0.13060302  1
  O  O200  1  0.74237329  0.49736946  0.63093565  1
  O  O201  1  0.74333885  0.97610452  0.11052390  1
  O  O202  1  0.74695068  0.99127280  0.63382672  1
  O  O203  1  0.00674795  0.37447182  0.26279955  1
  O  O204  1  0.00848718  0.37132028  0.75402325  1
  O  O205  1  0.00110482  0.85952212  0.25579398  1
  O  O206  1  0.00552167  0.86699341  0.75316116  1
  O  O207  1  0.49068974  0.35967414  0.24946686  1
  O  O208  1  0.50377285  0.36999376  0.75624228  1
  O  O209  1  0.49109379  0.85398679  0.25508187  1
  O  O210  1  0.50663304  0.87150480  0.75631203  1
  O  O211  1  0.49226911  0.13680172  0.24128064  1
  O  O212  1  0.48804874  0.13258673  0.74544910  1
  O  O213  1  0.48778225  0.62692974  0.25329436  1
  O  O214  1  0.50122904  0.63489517  0.74304043  1
  O  O215  1  0.99024490  0.13995740  0.27311465  1
  O  O216  1  0.99542580  0.13128744  0.75138119  1
  O  O217  1  0.99201558  0.63259371  0.24866872  1
  O  O218  1  0.99308738  0.63195784  0.74198639  1
  O  O219  1  0.37751126  0.26447149  -0.00000416  1
  O  O220  1  0.35658296  0.23646978  0.51696692  1
  O  O221  1  0.36751386  0.73929002  0.01056910  1
  O  O222  1  0.38387702  0.77195817  0.49920138  1
  O  O223  1  0.88206281  0.26585945  -0.00710738  1
  O  O224  1  0.86071829  0.26119549  0.50979894  1
  O  O225  1  0.86198624  0.75524088  -0.01058684  1
  O  O226  1  0.86806960  0.75211235  0.49992878  1
  O  O227  1  0.12888410  0.23994600  0.49790836  1
  O  O228  1  0.12173360  0.22349559  0.98810124  1
  O  O229  1  0.12600044  0.73555290  0.50039201  1
  O  O230  1  0.13199776  0.74298833  0.99331184  1
  O  O231  1  0.62968117  0.25375989  0.48941256  1
  O  O232  1  0.61533095  0.23822205  0.99111921  1
  O  O233  1  0.62198265  0.74014887  0.49208781  1
  O  O234  1  0.63228131  0.74774900  0.99272773  1
  O  O235  1  0.50367910  0.23958592  0.13136969  1
  O  O236  1  0.49086298  0.24331633  0.62776246  1
  O  O237  1  0.49797646  0.74752165  0.13678208  1
  O  O238  1  0.49913281  0.74594052  0.63332479  1
  O  O239  1  1.00538707  0.27099216  0.11151466  1
  O  O240  1  0.99281773  0.24754396  0.63014857  1
  O  O241  1  1.00241462  0.74803743  0.13882653  1
  O  O242  1  1.00607606  0.74157734  0.63550305  1
  O  O243  1  0.01311214  0.26057209  0.38836152  1
  O  O244  1  0.00132271  0.25890959  0.86438934  1
  O  O245  1  0.00821186  0.75457947  0.36320855  1
  O  O246  1  0.00562723  0.75617492  0.86087288  1
  O  O247  1  0.52151527  0.22699292  0.36491548  1
  O  O248  1  0.50359506  0.25597696  0.86878998  1
  O  O249  1  0.51279009  0.74109025  0.36326710  1
  O  O250  1  0.50362007  0.75809669  0.87062032  1
  O  O251  1  0.23824893  0.12931680  0.49242929  1
  O  O252  1  0.25647561  0.12331394  0.98966334  1
  O  O253  1  0.24410254  0.62268848  0.49086582  1
  O  O254  1  0.24232173  0.62704897  0.99379123  1
  O  O255  1  0.74166992  0.13815624  0.52097715  1
  O  O256  1  0.73770160  0.12759341  0.98845214  1
  O  O257  1  0.73746812  0.62642854  0.49502446  1
  O  O258  1  0.74918721  0.63143550  0.99248453  1
  O  O259  1  0.26001925  0.38198764  -0.00201646  1
  O  O260  1  0.24102778  0.36211172  0.49700569  1
  O  O261  1  0.25162026  0.85953647  -0.00652152  1
  O  O262  1  0.26563958  0.87792079  0.49652454  1
  O  O263  1  0.75352397  0.38344817  0.01246220  1
  O  O264  1  0.75090042  0.37470269  0.50998513  1
  O  O265  1  0.75801450  0.86356586  -0.00074706  1
  O  O266  1  0.75011061  0.87801993  0.51671482  1
  O  O267  1  0.13216118  0.49396903  0.25329282  1
  O  O268  1  0.12890327  0.49327081  0.74276083  1
  O  O269  1  0.12414487  1.00748587  0.22987334  1
  O  O270  1  0.12265218  0.99116011  0.73387612  1
  O  O271  1  0.63281440  0.50276371  0.24392353  1
  O  O272  1  0.62844561  0.49547179  0.74467744  1
  O  O273  1  0.58926393  1.00099404  0.25118026  1
  O  O274  1  0.63048212  0.99436068  0.74930386  1
  O  O275  1  0.38736760  0.01542633  0.26355966  1
  O  O276  1  0.38212661  0.00956004  0.76121304  1
  O  O277  1  0.37085672  0.51015888  0.24720423  1
  O  O278  1  0.36412131  0.49959862  0.75443046  1
  O  O279  1  0.87583690  0.01300960  0.21044823  1
  O  O280  1  0.86993422  0.00923658  0.75224444  1
  O  O281  1  0.86718414  0.50813911  0.26177410  1
  O  O282  1  0.86990734  0.51047748  0.75394230  1
  O  O283  1  0.11803977  0.37137099  0.37061698  1
  O  O284  1  0.11288668  0.37337013  0.86671979  1
  O  O285  1  0.11135421  0.86899411  0.38189661  1
  O  O286  1  0.11835204  0.87015568  0.86842512  1
  O  O287  1  0.61085393  0.36461474  0.37862855  1
  O  O288  1  0.62017023  0.37088232  0.87150972  1
  O  O289  1  0.62434290  0.85949942  0.38379033  1
  O  O290  1  0.61976376  0.87331568  0.86484694  1
  O  O291  1  0.38015318  0.12657350  0.13143480  1
  O  O292  1  0.38226023  0.12931602  0.63454525  1
  O  O293  1  0.37109692  0.63034711  0.13938903  1
  O  O294  1  0.38821992  0.62693525  0.62938022  1
  O  O295  1  0.87804910  0.14074955  0.10063215  1
  O  O296  1  0.87832388  0.13206770  0.63226574  1
  O  O297  1  0.87380056  0.61873860  0.13865057  1
  O  O298  1  0.88360318  0.61833443  0.63272578  1
  O  O299  1  0.23403832  0.25858524  0.12659784  1
  O  O300  1  0.25391392  0.24767919  0.61932803  1
  O  O301  1  0.25929852  0.75082267  0.11654151  1
  O  O302  1  0.25772505  0.74012465  0.61742683  1
  O  O303  1  0.74088216  0.26902364  0.12539340  1
  O  O304  1  0.75219259  0.25917591  0.62170236  1
  O  O305  1  0.74353006  0.75565405  0.11175217  1
  O  O306  1  0.74160286  0.76696146  0.62672481  1
  O  O307  1  0.23527456  0.24302281  0.38210581  1
  O  O308  1  0.24887430  0.23311775  0.87156344  1
  O  O309  1  0.25157744  0.74152176  0.38284415  1
  O  O310  1  0.24701708  0.74117676  0.88076532  1
  O  O311  1  0.73668084  0.26658040  0.38622827  1
  O  O312  1  0.74323460  0.23879310  0.86800897  1
  O  O313  1  0.73702157  0.74352497  0.37357909  1
  O  O314  1  0.74323287  0.74483261  0.87881187  1
  O  O315  1  0.01098601  0.11045711  -0.01408594  1
  O  O316  1  0.01423515  0.11487983  0.49664854  1
  O  O317  1  0.00655225  0.62236134  -0.00165797  1
  O  O318  1  0.00500294  0.62898360  0.50857568  1
  O  O319  1  0.50341542  0.12089928  0.00586900  1
  O  O320  1  0.49126955  0.12247522  0.51484322  1
  O  O321  1  0.49927158  0.60907178  -0.00714381  1
  O  O322  1  0.50279053  0.61947752  0.50669454  1
  O  O323  1  0.50169877  0.39499731  0.50804444  1
  O  O324  1  0.48934701  0.38390580  0.99405443  1
  O  O325  1  0.49298504  0.89314163  0.50526045  1
  O  O326  1  0.50969667  0.88326575  0.98911368  1
  O  O327  1  0.99205053  0.37667933  0.48980945  1
  O  O328  1  0.99603884  0.38480207  0.99260140  1
  O  O329  1  0.99899848  0.88124544  0.49421391  1
  O  O330  1  0.98563293  0.85830070  0.98825967  1
  O  O331  1  0.49878689  0.50094141  0.39143386  1
  O  O332  1  0.49215713  0.49292908  0.87948965  1
  O  O333  1  0.49009745  1.01976141  0.39592938  1
  O  O334  1  0.49326853  0.99390648  0.88026859  1
  O  O335  1  0.98956095  0.49452770  0.37154877  1
  O  O336  1  0.99692585  0.49420305  0.87965440  1
  O  O337  1  1.00862018  0.98794224  0.38485473  1
  O  O338  1  1.00011795  0.98392423  0.86704966  1
  O  O339  1  0.01718133  -0.01709905  0.11518179  1
  O  O340  1  0.01032545  0.00088354  0.61423229  1
  O  O341  1  0.00184681  0.50463049  0.11565185  1
  O  O342  1  0.00999334  0.51155888  0.62955526  1
  O  O343  1  0.49585804  0.01470778  0.11451745  1
  O  O344  1  0.50012809  0.01300611  0.61566130  1
  O  O345  1  0.50744471  0.49375815  0.11710657  1
  O  O346  1  0.50460907  0.50988286  0.62030767  1
  O  O347  1  0.24402072  0.38396043  0.25820061  1
  O  O348  1  0.23532827  0.38195410  0.75615079  1
  O  O349  1  0.25573966  0.87872193  0.25369448  1
  O  O350  1  0.23756902  0.86999045  0.75602063  1
  O  O351  1  0.75650763  0.38888091  0.23747125  1
  O  O352  1  0.74497168  0.38142320  0.74369533  1
  O  O353  1  0.75761587  0.86305381  0.23153135  1
  O  O354  1  0.74344850  0.88012181  0.74452232  1
  O  O355  1  0.25653105  0.12008763  0.25959502  1
  O  O356  1  0.26104387  0.12477430  0.75866003  1
  O  O357  1  0.26038256  0.62037450  0.25709651  1
  O  O358  1  0.24707259  0.61598637  0.75791493  1
  O  O359  1  0.75608790  0.12058401  0.24458249  1
  O  O360  1  0.75471984  0.12063047  0.75402946  1
  O  O361  1  0.75685079  0.61778478  0.25437831  1
  O  O362  1  0.75645707  0.62240913  0.75104708  1
  O  O363  1  0.36296303  0.12693818  0.37135413  1
  O  O364  1  0.36672474  0.11957219  0.87023525  1
  O  O365  1  0.36746704  0.62977392  0.36475579  1
  O  O366  1  0.36772916  0.61633034  0.87095107  1
  O  O367  1  0.83520972  0.12630654  0.39204071  1
  O  O368  1  0.86591444  0.12434916  0.86927735  1
  O  O369  1  0.86790012  0.61917041  0.36878255  1
  O  O370  1  0.86959501  0.61972024  0.86332494  1
  O  O371  1  0.12630270  0.38114217  0.14361290  1
  O  O372  1  0.11605721  0.38543306  0.63239294  1
  O  O373  1  0.13417042  0.88498591  0.11425825  1
  O  O374  1  0.12533918  0.88548805  0.63001173  1
  O  O375  1  0.63470131  0.38648629  0.11737352  1
  O  O376  1  0.62874829  0.38012544  0.63195143  1
  O  O377  1  0.63693825  0.87541288  0.12618054  1
  O  O378  1  0.62840149  0.87920277  0.63739529  1
  O  O379  1  0.11909461  0.25722988  0.25949792  1
  O  O380  1  0.11976370  0.25669125  0.74957083  1
  O  O381  1  0.11240047  0.73752089  0.25036511  1
  O  O382  1  0.11818134  0.75556122  0.75393073  1
  O  O383  1  0.61911722  0.25399370  0.26166757  1
  O  O384  1  0.61765580  0.25733352  0.75730262  1
  O  O385  1  0.61297179  0.74245109  0.25751840  1
  O  O386  1  0.61471306  0.75823445  0.75580963  1
  O  O387  1  0.37753737  0.23751994  0.24350047  1
  O  O388  1  0.37743597  0.24257462  0.74422745  1
  O  O389  1  0.38646244  0.73770151  0.24463959  1
  O  O390  1  0.38810820  0.74989927  0.75107022  1
  O  O391  1  0.88355747  0.24234271  0.26632441  1
  O  O392  1  0.88037068  0.24439487  0.74211564  1
  O  O393  1  0.88770159  0.73801341  0.25700830  1
  O  O394  1  0.88232789  0.73903808  0.75236077  1
  O  O395  1  0.38523221  0.50332768  0.50725358  1
  O  O396  1  0.37819671  0.49198395  0.99643986  1
  O  O397  1  0.38118986  0.99486471  0.49791894  1
  O  O398  1  0.38971341  1.00344086  0.98952512  1
  O  O399  1  0.86624043  0.49623188  0.48645758  1
  O  O400  1  0.88735363  0.50909863  0.99115759  1
  O  O401  1  0.88871895  0.99582119  0.50592392  1
  O  O402  1  0.87247348  0.97653498  0.99708421  1
  O  O403  1  0.13420143  0.01010653  0.00790359  1
  O  O404  1  0.12188791  0.00319458  0.50914111  1
  O  O405  1  0.11284723  0.50836414  -0.00148913  1
  O  O406  1  0.12862445  0.51100182  0.50933973  1
  O  O407  1  0.61267989  0.01433227  -0.00706952  1
  O  O408  1  0.61039345  0.00043397  0.50295492  1
  O  O409  1  0.61340740  0.50219579  0.00691085  1
  O  O410  1  0.61917349  0.51207995  0.50635107  1
  O  O411  1  0.37040938  0.36962277  0.11135290  1
  O  O412  1  0.37584062  0.36113688  0.63156647  1
  O  O413  1  0.37656952  0.85855296  0.12434405  1
  O  O414  1  0.37763746  0.87909839  0.61330907  1
  O  O415  1  0.87489292  0.37665790  0.12022080  1
  O  O416  1  0.86927375  0.37286912  0.62141938  1
  O  O417  1  0.86828520  0.86516239  0.10855774  1
  O  O418  1  0.86136314  0.87745184  0.63164731  1
  O  O419  1  0.13166918  0.13024447  0.38007777  1
  O  O420  1  0.14086836  0.11551602  0.88129846  1
  O  O421  1  0.13611853  0.62513226  0.38286460  1
  O  O422  1  0.12783773  0.63067365  0.88279021  1
  O  O423  1  0.65426629  0.13708508  0.37268769  1
  O  O424  1  0.62912511  0.13124276  0.87810115  1
  O  O425  1  0.62985620  0.62787807  0.38291534  1
  O  O426  1  0.63197770  0.63198068  0.87520916  1
