# generated using pymatgen
data_V85Zn86O256
_symmetry_space_group_name_H-M   'P 1'
_cell_length_a   16.94252015
_cell_length_b   16.93823593
_cell_length_c   16.94244714
_cell_angle_alpha   90.02900840
_cell_angle_beta   90.03738401
_cell_angle_gamma   89.97383013
_symmetry_Int_Tables_number   1
_chemical_formula_structural   V85Zn86O256
_chemical_formula_sum   'V85 Zn86 O256'
_cell_volume   4862.08038344
_cell_formula_units_Z   1
loop_
 _symmetry_equiv_pos_site_id
 _symmetry_equiv_pos_as_xyz
  1  'x, y, z'
loop_
 _atom_site_type_symbol
 _atom_site_label
 _atom_site_symmetry_multiplicity
 _atom_site_fract_x
 _atom_site_fract_y
 _atom_site_fract_z
 _atom_site_occupancy
  V  V0  1  0.00147152  0.37413755  0.35961608  1
  V  V1  1  0.25029760  0.24410815  0.00180122  1
  V  V2  1  0.25233624  0.62462137  0.87438998  1
  V  V3  1  0.12945613  0.86521818  0.26232255  1
  V  V4  1  0.61169650  0.86842253  0.75017135  1
  V  V5  1  0.25195317  0.01087096  0.75550602  1
  V  V6  1  0.12383071  0.24583281  0.37299310  1
  V  V7  1  0.13078698  0.48287649  0.12893899  1
  V  V8  1  0.38025349  0.38033182  0.49872206  1
  V  V9  1  0.00264631  0.37243703  0.87416881  1
  V  V10  1  0.00227700  0.87853723  0.87986589  1
  V  V11  1  0.75520954  0.36552500  0.62255845  1
  V  V12  1  0.25518223  0.75433437  0.00077107  1
  V  V13  1  0.74654148  0.75306301  0.00035079  1
  V  V14  1  -0.00073758  0.00931756  0.50458631  1
  V  V15  1  0.13062899  0.24026652  0.87529821  1
  V  V16  1  0.12596431  0.87793905  0.74975986  1
  V  V17  1  0.87643021  0.23555092  0.12693672  1
  V  V18  1  0.74930451  -0.00133213  0.75093169  1
  V  V19  1  0.00206874  0.23114446  0.24328553  1
  V  V20  1  0.50377351  0.38321295  0.37458585  1
  V  V21  1  0.12461033  0.50144139  0.62376111  1
  V  V22  1  0.75122901  0.49948364  0.74613123  1
  V  V23  1  0.62533489  0.37775781  0.23974212  1
  V  V24  1  0.36885757  0.24939284  0.12764995  1
  V  V25  1  0.25110236  0.48387835  0.25100027  1
  V  V26  1  0.62607557  0.63746691  0.49663348  1
  V  V27  1  0.24713304  0.87651249  0.62729797  1
  V  V28  1  0.00048646  0.49881707  0.49525807  1
  V  V29  1  0.87210323  0.74635623  0.62214717  1
  V  V30  1  0.87265415  0.62611679  0.25114881  1
  V  V31  1  -0.00154756  0.24693597  0.73792490  1
  V  V32  1  0.49973056  0.62089101  0.61790978  1
  V  V33  1  0.38032251  0.75223462  0.12313209  1
  V  V34  1  0.62279920  0.25007288  0.87830306  1
  V  V35  1  0.50298727  0.24610503  0.24788135  1
  V  V36  1  0.11378646  0.11919563  0.00435102  1
  V  V37  1  0.62396195  0.49743048  0.61250090  1
  V  V38  1  0.24508957  0.24479560  0.49916601  1
  V  V39  1  0.74830681  0.86969448  0.62439412  1
  V  V40  1  0.24686209  0.00305013  0.25143767  1
  V  V41  1  0.66995127  0.80028481  0.32432921  1
  V  V42  1  0.49791823  0.86779066  0.37941009  1
  V  V43  1  0.37531286  0.38167225  0.00554737  1
  V  V44  1  0.37562774  0.00533940  0.88937453  1
  V  V45  1  0.87656345  0.87486238  0.50298362  1
  V  V46  1  0.74613627  0.50234989  0.24213252  1
  V  V47  1  0.37911287  0.75111419  0.62861913  1
  V  V48  1  0.00432722  0.49978475  -0.00031368  1
  V  V49  1  0.88011421  0.00098800  0.87784928  1
  V  V50  1  0.00035995  0.62560580  0.62246114  1
  V  V51  1  0.61509296  0.11124685  0.00202774  1
  V  V52  1  0.12644654  0.37500623  0.75244184  1
  V  V53  1  0.00642744  0.74600784  0.25418712  1
  V  V54  1  0.25287262  0.50180656  0.75102487  1
  V  V55  1  0.00227051  0.75004812  0.74810336  1
  V  V56  1  0.74569823  0.62168290  0.37805916  1
  V  V57  1  0.87742008  0.12892736  0.73925642  1
  V  V58  1  0.76581394  0.11621519  0.35907130  1
  V  V59  1  0.74911581  0.62574318  0.87330527  1
  V  V60  1  0.87630247  0.49896319  0.87486504  1
  V  V61  1  0.87911139  0.36420632  0.50014857  1
  V  V62  1  0.25104879  0.37633629  0.62319686  1
  V  V63  1  -0.02490596  0.89362999  0.35540899  1
  V  V64  1  0.10391105  -0.00023719  0.12595458  1
  V  V65  1  0.12231558  0.01491971  0.62427000  1
  V  V66  1  0.12638701  0.75083912  0.87586763  1
  V  V67  1  0.24287228  0.74927582  0.49413477  1
  V  V68  1  0.49247389  0.75139739  0.25472785  1
  V  V69  1  0.62441216  0.00130384  0.62765265  1
  V  V70  1  0.62109410  0.61387932  0.00114337  1
  V  V71  1  0.87571618  0.87314389  0.00278995  1
  V  V72  1  0.37255405  0.87634854  0.50307004  1
  V  V73  1  0.37716921  0.24873257  0.62689230  1
  V  V74  1  0.62940590  0.12901029  0.49829153  1
  V  V75  1  0.50216967  0.61424184  0.12124399  1
  V  V76  1  0.62196806  0.37535545  0.74983012  1
  V  V77  1  0.25066351  0.87719685  0.12259093  1
  V  V78  1  0.12780924  0.62404326  0.00483722  1
  V  V79  1  0.75075320  0.12559229  0.87632583  1
  V  V80  1  0.87480755  0.37502631  0.00487176  1
  V  V81  1  0.37740735  0.12309206  0.24938763  1
  V  V82  1  0.49806140  0.00425726  0.50194925  1
  V  V83  1  0.49001945  0.86979847  0.88817548  1
  V  V84  1  0.38587409  0.62721416  0.75267968  1
  Zn  Zn85  1  0.61378325  0.74491185  0.86965753  1
  Zn  Zn86  1  0.69545397  0.94648363  0.18093044  1
  Zn  Zn87  1  0.74837567  0.37753334  0.12253418  1
  Zn  Zn88  1  0.74900317  0.25023441  0.00276736  1
  Zn  Zn89  1  0.24588855  0.12416558  0.37767729  1
  Zn  Zn90  1  0.37724130  0.12820917  0.75789358  1
  Zn  Zn91  1  0.50109473  0.12821790  0.62833543  1
  Zn  Zn92  1  0.75629952  0.24480804  0.49716461  1
  Zn  Zn93  1  0.49855775  0.24801174  0.75260408  1
  Zn  Zn94  1  0.87808256  0.74748447  0.12210297  1
  Zn  Zn95  1  0.63090546  0.25016696  0.37313237  1
  Zn  Zn96  1  0.11963363  0.63271617  0.49180534  1
  Zn  Zn97  1  0.37487796  0.50290328  0.37803961  1
  Zn  Zn98  1  0.50212278  0.38075131  0.88539622  1
  Zn  Zn99  1  0.87447070  0.49720587  0.37306625  1
  Zn  Zn100  1  0.37168710  0.62084837  0.25245742  1
  Zn  Zn101  1  0.24461596  0.62610256  0.36698558  1
  Zn  Zn102  1  0.87636902  0.62363372  0.74948507  1
  Zn  Zn103  1  0.38235724  0.50177358  0.88235454  1
  Zn  Zn104  1  0.00209598  0.62388964  0.12801979  1
  Zn  Zn105  1  0.37236791  0.00366610  0.37810800  1
  Zn  Zn106  1  0.54490154  0.07240891  0.15991860  1
  Zn  Zn107  1  0.18447952  0.18555059  0.18555381  1
  Zn  Zn108  1  0.18925556  0.19040990  0.68808665  1
  Zn  Zn109  1  0.19203325  0.68256768  0.18825372  1
  Zn  Zn110  1  0.18927520  0.68749932  0.68383152  1
  Zn  Zn111  1  0.69195413  0.18818336  0.18633506  1
  Zn  Zn112  1  0.68714513  0.18736330  0.68885762  1
  Zn  Zn113  1  0.63929910  0.75521430  0.13828622  1
  Zn  Zn114  1  0.68607703  0.68676548  0.68653549  1
  Zn  Zn115  1  0.31351982  0.31268528  0.31451765  1
  Zn  Zn116  1  0.31306197  0.31378834  0.81747446  1
  Zn  Zn117  1  0.31526659  0.81490535  0.31361502  1
  Zn  Zn118  1  0.31430923  0.81478226  0.81162478  1
  Zn  Zn119  1  0.81273306  0.30706344  0.31139282  1
  Zn  Zn120  1  0.81235486  0.31127902  0.81250852  1
  Zn  Zn121  1  0.83690917  0.83743745  0.28849494  1
  Zn  Zn122  1  0.81354492  0.81159718  0.80956839  1
  Zn  Zn123  1  0.18401931  0.43197783  0.43380531  1
  Zn  Zn124  1  0.19579542  0.43271806  0.94016144  1
  Zn  Zn125  1  0.18339354  0.94022666  0.44027017  1
  Zn  Zn126  1  0.18957506  0.94284472  0.93989238  1
  Zn  Zn127  1  0.68948363  0.43586277  0.43312496  1
  Zn  Zn128  1  0.68918203  0.43781168  0.93725091  1
  Zn  Zn129  1  0.69231290  0.94364115  0.44329327  1
  Zn  Zn130  1  0.68646373  0.93414366  0.93319618  1
  Zn  Zn131  1  0.30946860  0.06580355  0.06714970  1
  Zn  Zn132  1  0.31018773  0.06503533  0.56580531  1
  Zn  Zn133  1  0.31023295  0.56420839  0.07019597  1
  Zn  Zn134  1  0.31155508  0.56441397  0.56145624  1
  Zn  Zn135  1  0.80435437  0.05882383  0.05846356  1
  Zn  Zn136  1  0.81190880  0.05940240  0.55937081  1
  Zn  Zn137  1  0.81268933  0.56556977  0.06341609  1
  Zn  Zn138  1  0.81362722  0.55855112  0.55867110  1
  Zn  Zn139  1  0.43536367  0.43292030  0.18638700  1
  Zn  Zn140  1  0.43941935  0.43922588  0.68801280  1
  Zn  Zn141  1  0.43386859  0.93418467  0.19278459  1
  Zn  Zn142  1  0.43407337  0.94275370  0.68927239  1
  Zn  Zn143  1  0.93752707  0.44287406  0.18504563  1
  Zn  Zn144  1  0.93792967  0.43529844  0.68561622  1
  Zn  Zn145  1  0.89903674  0.96931036  0.17536065  1
  Zn  Zn146  1  0.93798780  0.93988389  0.68859303  1
  Zn  Zn147  1  0.06318337  0.06087093  0.31403724  1
  Zn  Zn148  1  0.06195530  0.06526228  0.81238492  1
  Zn  Zn149  1  0.06985002  0.56246955  0.31361008  1
  Zn  Zn150  1  0.06410464  0.56369245  0.81275511  1
  Zn  Zn151  1  0.57627129  0.05052990  0.32216998  1
  Zn  Zn152  1  0.55609678  0.05943972  0.81526075  1
  Zn  Zn153  1  0.56358511  0.56471929  0.30792457  1
  Zn  Zn154  1  0.56274751  0.55745092  0.81183776  1
  Zn  Zn155  1  0.43736120  0.19176668  0.43426932  1
  Zn  Zn156  1  0.43904776  0.18974415  0.93778528  1
  Zn  Zn157  1  0.43038734  0.68370538  0.44002160  1
  Zn  Zn158  1  0.43980231  0.69088784  0.93898908  1
  Zn  Zn159  1  0.93695535  0.18572518  0.43175659  1
  Zn  Zn160  1  0.93868848  0.18965386  0.93477953  1
  Zn  Zn161  1  0.93745860  0.69349325  0.43230397  1
  Zn  Zn162  1  0.93859382  0.68646306  0.93539512  1
  Zn  Zn163  1  0.05985646  0.30703305  0.06118646  1
  Zn  Zn164  1  0.06528974  0.31336910  0.55862078  1
  Zn  Zn165  1  0.06341679  0.81282419  0.06773496  1
  Zn  Zn166  1  0.05986038  0.82095222  0.56022978  1
  Zn  Zn167  1  0.55710248  0.30622492  0.06446657  1
  Zn  Zn168  1  0.56194627  0.31200295  0.56048280  1
  Zn  Zn169  1  0.55851274  0.92112582  0.06990613  1
  Zn  Zn170  1  0.55966031  0.81148744  0.56496658  1
  O  O171  1  0.12501232  0.11026064  0.11952742  1
  O  O172  1  0.12728315  0.11437081  0.62871132  1
  O  O173  1  0.12659526  0.61870987  0.11263361  1
  O  O174  1  0.11741176  0.61919123  0.61929682  1
  O  O175  1  0.62723642  0.13544302  0.10501746  1
  O  O176  1  0.62507829  0.12006885  0.61641506  1
  O  O177  1  0.60802377  0.64058857  0.11548369  1
  O  O178  1  0.61889874  0.61767873  0.62000760  1
  O  O179  1  0.38352446  0.37623333  0.38302773  1
  O  O180  1  0.37548621  0.37515549  0.89160351  1
  O  O181  1  0.38246991  0.87972610  0.38496177  1
  O  O182  1  0.38476971  0.88237405  0.87092986  1
  O  O183  1  0.88385541  0.37390489  0.38208961  1
  O  O184  1  0.88068800  0.37833961  0.88455730  1
  O  O185  1  0.87049133  0.85719213  0.40063269  1
  O  O186  1  0.88429706  0.88081031  0.87599107  1
  O  O187  1  0.24724260  0.00136335  0.36494441  1
  O  O188  1  0.26312839  -0.00849349  0.86569270  1
  O  O189  1  0.24776022  0.49435790  0.36059324  1
  O  O190  1  0.25487098  0.50709512  0.86835428  1
  O  O191  1  0.74174785  0.01726565  0.37539437  1
  O  O192  1  0.75577945  0.00582766  0.86854209  1
  O  O193  1  0.75383669  0.50618994  0.36641369  1
  O  O194  1  0.75492682  0.50859316  0.86788467  1
  O  O195  1  0.23822659  0.49847985  0.13301325  1
  O  O196  1  0.24416277  0.49643873  0.63001617  1
  O  O197  1  0.24653166  0.99175277  0.13691162  1
  O  O198  1  0.24277787  0.99552153  0.63200065  1
  O  O199  1  0.75505092  0.49863016  0.13807410  1
  O  O200  1  0.74432266  0.49221915  0.62875098  1
  O  O201  1  0.79185305  0.99275072  0.14527327  1
  O  O202  1  0.74353310  0.99208890  0.63266240  1
  O  O203  1  -0.00546230  0.37228104  0.25808927  1
  O  O204  1  0.00633391  0.37007632  0.75596802  1
  O  O205  1  0.02150221  0.86496170  0.25068044  1
  O  O206  1  0.00581444  0.86966001  0.75821486  1
  O  O207  1  0.50724506  0.36883745  0.25388415  1
  O  O208  1  0.51574804  0.37311977  0.74635620  1
  O  O209  1  0.49305794  0.86141538  0.26373319  1
  O  O210  1  0.51013014  0.87795577  0.74803308  1
  O  O211  1  0.49338056  0.13057165  0.25332275  1
  O  O212  1  0.49727331  0.12830071  0.74660203  1
  O  O213  1  0.49701631  0.63525342  0.24102737  1
  O  O214  1  0.49010033  0.62288638  0.73931342  1
  O  O215  1  0.99682816  0.13268058  0.25028121  1
  O  O216  1  0.99009899  0.13471998  0.75445542  1
  O  O217  1  0.99377368  0.63056943  0.25371465  1
  O  O218  1  1.00058401  0.63146747  0.74230197  1
  O  O219  1  0.36838244  0.24935297  0.00872116  1
  O  O220  1  0.36912782  0.26027245  0.50637645  1
  O  O221  1  0.36316179  0.74678373  0.00799058  1
  O  O222  1  0.36503729  0.75668632  0.51006775  1
  O  O223  1  0.87791656  0.25800705  0.00930129  1
  O  O224  1  0.87955091  0.26054301  0.49992952  1
  O  O225  1  0.86706206  0.75426687  -0.00479806  1
  O  O226  1  0.88353669  0.75455264  0.51723910  1
  O  O227  1  0.13381738  0.25319472  0.49018304  1
  O  O228  1  0.13074421  0.24404814  0.99479791  1
  O  O229  1  0.13981649  0.75464914  0.50876176  1
  O  O230  1  0.13293607  0.74194008  0.99670155  1
  O  O231  1  0.62882777  0.24173504  0.49855412  1
  O  O232  1  0.62719552  0.24778234  0.98858962  1
  O  O233  1  0.62675326  0.73653628  0.50957447  1
  O  O234  1  0.64252355  0.73973355  0.98817331  1
  O  O235  1  0.48730572  0.25041661  0.13947898  1
  O  O236  1  0.49013838  0.25070844  0.62738804  1
  O  O237  1  0.48677901  0.75061544  0.13601100  1
  O  O238  1  0.48602341  0.74260293  0.62330985  1
  O  O239  1  0.99236175  0.25136943  0.13577398  1
  O  O240  1  1.00718254  0.25617435  0.63899963  1
  O  O241  1  1.00299896  0.74447880  0.13819724  1
  O  O242  1  0.99685754  0.74575378  0.63019510  1
  O  O243  1  0.00237553  0.25321962  0.36076899  1
  O  O244  1  0.01144550  0.25695527  0.86898819  1
  O  O245  1  -0.00706454  0.76756888  0.35921950  1
  O  O246  1  0.00793796  0.75427470  0.86696599  1
  O  O247  1  0.50021867  0.26006951  0.36183004  1
  O  O248  1  0.50922645  0.25715207  0.87233031  1
  O  O249  1  0.49207529  0.75895833  0.37297375  1
  O  O250  1  0.49582475  0.76394398  0.86951098  1
  O  O251  1  0.25560985  0.14039676  0.49773297  1
  O  O252  1  0.23938878  0.13749766  1.00509795  1
  O  O253  1  0.24855853  0.64218620  0.50418064  1
  O  O254  1  0.24527429  0.63198664  0.99596369  1
  O  O255  1  0.74295560  0.12592931  0.49818318  1
  O  O256  1  0.74179809  0.12554915  0.98830152  1
  O  O257  1  0.74476801  0.61947420  0.48688268  1
  O  O258  1  0.74732262  0.63012823  0.99041277  1
  O  O259  1  0.26176209  0.35850637  -0.00069642  1
  O  O260  1  0.25549475  0.36621084  0.50520092  1
  O  O261  1  0.24154911  0.86451049  0.00979497  1
  O  O262  1  0.25325033  0.86994079  0.50718273  1
  O  O263  1  0.76049852  0.37315573  0.00110330  1
  O  O264  1  0.76032867  0.37366600  0.50520145  1
  O  O265  1  0.76005123  0.85902792  -0.01742360  1
  O  O266  1  0.75639683  0.88146253  0.51790642  1
  O  O267  1  0.13234644  0.49806803  0.23556465  1
  O  O268  1  0.13322051  0.49650679  0.74533232  1
  O  O269  1  0.12970729  0.99032336  0.24420993  1
  O  O270  1  0.13133187  0.99662538  0.74606480  1
  O  O271  1  0.63454231  0.49142424  0.25240274  1
  O  O272  1  0.63385003  0.49242930  0.74012251  1
  O  O273  1  0.61334819  1.00906316  0.22870269  1
  O  O274  1  0.62853398  0.99051103  0.74651665  1
  O  O275  1  0.36509148  0.00660785  0.25533473  1
  O  O276  1  0.36528757  0.00362975  0.75631313  1
  O  O277  1  0.36083160  0.49683432  0.24796035  1
  O  O278  1  0.36654860  0.50999269  0.74666091  1
  O  O279  1  0.90065845  -0.06541333  0.28418052  1
  O  O280  1  0.87029722  0.00579695  0.75935549  1
  O  O281  1  0.87050717  0.50912542  0.25292117  1
  O  O282  1  0.86847461  0.49801381  0.75641425  1
  O  O283  1  0.11132812  0.36093950  0.37694271  1
  O  O284  1  0.12223337  0.36904021  0.86987353  1
  O  O285  1  0.12346728  0.87677661  0.36244608  1
  O  O286  1  0.11976701  0.87242183  0.87027810  1
  O  O287  1  0.61917699  0.37177438  0.36584320  1
  O  O288  1  0.62803893  0.36786322  0.86702411  1
  O  O289  1  0.61866469  0.86548265  0.38943770  1
  O  O290  1  0.60998871  0.87513969  0.86488263  1
  O  O291  1  0.37114605  0.13131611  0.14043099  1
  O  O292  1  0.37461867  0.14021656  0.62548972  1
  O  O293  1  0.38637209  0.63319039  0.12466016  1
  O  O294  1  0.38233224  0.63035518  0.62847028  1
  O  O295  1  0.87671325  0.13839243  0.11379114  1
  O  O296  1  0.86646020  0.12104036  0.64089859  1
  O  O297  1  0.87962582  0.62487872  0.13763151  1
  O  O298  1  0.88100823  0.62963563  0.62595616  1
  O  O299  1  0.26042576  0.24628754  0.12058194  1
  O  O300  1  0.25470405  0.25769995  0.61861878  1
  O  O301  1  0.25642922  0.75450212  0.11848772  1
  O  O302  1  0.25838917  0.75718947  0.61893935  1
  O  O303  1  0.76615586  0.25471137  0.12344095  1
  O  O304  1  0.74738802  0.26292688  0.62360606  1
  O  O305  1  0.75569701  0.74247872  0.10194359  1
  O  O306  1  0.75977968  0.75710238  0.63145893  1
  O  O307  1  0.24065723  0.25197384  0.38124573  1
  O  O308  1  0.23773286  0.25216859  0.88233455  1
  O  O309  1  0.25504161  0.75499269  0.39227168  1
  O  O310  1  0.24579473  0.74716342  0.88276745  1
  O  O311  1  0.75049036  0.23575802  0.37718643  1
  O  O312  1  0.74430721  0.24063601  0.87691493  1
  O  O313  1  0.73805024  0.74176093  0.36941272  1
  O  O314  1  0.75414007  0.73526452  0.87563097  1
  O  O315  1  0.01424759  0.13027710  -0.00303190  1
  O  O316  1  -0.00611731  0.10808493  0.49644757  1
  O  O317  1  0.01098690  0.61803706  -0.00160778  1
  O  O318  1  -0.00151896  0.61762546  0.50326132  1
  O  O319  1  0.51700620  0.12516786  -0.00594341  1
  O  O320  1  0.50508255  0.11809363  0.50058045  1
  O  O321  1  0.50573604  0.62898756  0.01111018  1
  O  O322  1  0.50662537  0.62745349  0.51065938  1
  O  O323  1  0.49259547  0.37045354  0.48863479  1
  O  O324  1  0.48108599  0.36813982  1.00354458  1
  O  O325  1  0.49291817  0.88033873  0.49855943  1
  O  O326  1  0.49824566  0.86648020  0.98568539  1
  O  O327  1  0.99474341  0.38057512  0.49290131  1
  O  O328  1  0.99536013  0.37976193  0.99301665  1
  O  O329  1  0.99135314  0.88257420  0.49141537  1
  O  O330  1  0.99621583  0.86490785  0.98500749  1
  O  O331  1  0.49682801  0.48684127  0.36564101  1
  O  O332  1  0.49461792  0.49332034  0.86966366  1
  O  O333  1  0.50128815  0.98712932  0.38913547  1
  O  O334  1  0.48456094  0.98699222  0.87341474  1
  O  O335  1  1.00086006  0.49057964  0.37984390  1
  O  O336  1  0.99769408  0.49309624  0.87965318  1
  O  O337  1  1.00970038  0.99032744  0.38821091  1
  O  O338  1  0.99245559  0.99034573  0.86924285  1
  O  O339  1  0.00531284  -0.00696283  0.13180072  1
  O  O340  1  0.00847512  -0.00410471  0.61557883  1
  O  O341  1  0.01450594  0.50230207  0.11855424  1
  O  O342  1  0.00445965  0.50538225  0.61760424  1
  O  O343  1  0.48257098  -0.00759991  0.11208381  1
  O  O344  1  0.50379707  0.00109525  0.61481184  1
  O  O345  1  0.49859781  0.51620798  0.13184274  1
  O  O346  1  0.51072001  0.50894765  0.62782260  1
  O  O347  1  0.25008977  0.38413755  0.24821206  1
  O  O348  1  0.24629453  0.38264113  0.74502165  1
  O  O349  1  0.24281085  0.87964497  0.24635074  1
  O  O350  1  0.24434142  0.88317816  0.74483476  1
  O  O351  1  0.74299286  0.38236829  0.25021839  1
  O  O352  1  0.74325027  0.37884771  0.74263745  1
  O  O353  1  0.72789117  0.86240465  0.26683735  1
  O  O354  1  0.74297997  0.87967284  0.74309394  1
  O  O355  1  0.25415386  0.11663184  0.25199242  1
  O  O356  1  0.25154452  0.11395498  0.74953067  1
  O  O357  1  0.25288320  0.60928311  0.24771841  1
  O  O358  1  0.25668095  0.61954482  0.75380812  1
  O  O359  1  0.75139209  0.12713963  0.26002552  1
  O  O360  1  0.75393891  0.12090465  0.76083499  1
  O  O361  1  0.75800124  0.61700612  0.26199217  1
  O  O362  1  0.75097311  0.61739203  0.75536484  1
  O  O363  1  0.37116199  0.12520088  0.36366497  1
  O  O364  1  0.37978562  0.11037101  0.87677849  1
  O  O365  1  0.36560528  0.61902486  0.37366660  1
  O  O366  1  0.37096401  0.62615625  0.86720905  1
  O  O367  1  0.86548315  0.12002746  0.37345519  1
  O  O368  1  0.86803339  0.11826627  0.87215679  1
  O  O369  1  0.86698822  0.62659285  0.36724263  1
  O  O370  1  0.86897226  0.61599505  0.87205441  1
  O  O371  1  0.12441150  0.38529241  0.11731223  1
  O  O372  1  0.13118343  0.38160783  0.63223955  1
  O  O373  1  0.13408023  0.88092598  0.13387643  1
  O  O374  1  0.12894804  0.88241312  0.63413432  1
  O  O375  1  0.62642432  0.36814092  0.13579176  1
  O  O376  1  0.63185588  0.38083322  0.62897044  1
  O  O377  1  0.64011363  0.86537907  0.11765808  1
  O  O378  1  0.62965946  0.87774134  0.63346188  1
  O  O379  1  0.10929402  0.24721072  0.25139441  1
  O  O380  1  0.12135326  0.25382310  0.75840086  1
  O  O381  1  0.12553766  0.75852234  0.24704392  1
  O  O382  1  0.12300803  0.75597169  0.75566507  1
  O  O383  1  0.61781318  0.25551404  0.24993969  1
  O  O384  1  0.62740051  0.25741095  0.76095791  1
  O  O385  1  0.61201436  0.74674201  0.25631484  1
  O  O386  1  0.62951545  0.76444062  0.75187936  1
  O  O387  1  0.37875923  0.24389292  0.24550350  1
  O  O388  1  0.37358572  0.25066058  0.74199527  1
  O  O389  1  0.37713870  0.74600054  0.24358987  1
  O  O390  1  0.36535188  0.73835737  0.74014627  1
  O  O391  1  0.88655242  0.25317937  0.23479059  1
  O  O392  1  0.88584870  0.24181338  0.75648621  1
  O  O393  1  0.88469410  0.74327773  0.24362705  1
  O  O394  1  0.88412471  0.74865262  0.73968016  1
  O  O395  1  0.36778867  0.48460517  0.50108724  1
  O  O396  1  0.36446032  0.48485508  1.00486128  1
  O  O397  1  0.38084137  0.99629043  0.50130849  1
  O  O398  1  0.36112622  1.00027323  0.98708706  1
  O  O399  1  0.88819173  0.49154998  0.49668774  1
  O  O400  1  0.88225037  0.49464183  0.99530687  1
  O  O401  1  0.88880004  0.98909778  0.51054981  1
  O  O402  1  0.86919240  0.98966099  0.98388732  1
  O  O403  1  0.12758619  0.00632171  0.01248240  1
  O  O404  1  0.11233122  -0.00477870  0.51199249  1
  O  O405  1  0.12697201  0.50493235  0.00735741  1
  O  O406  1  0.11307029  0.49597211  0.50534082  1
  O  O407  1  0.62705519  0.00709302  0.00007974  1
  O  O408  1  0.61675607  0.00663664  0.50916164  1
  O  O409  1  0.63287971  0.51444511  0.00079326  1
  O  O410  1  0.63080916  0.50507146  0.51038325  1
  O  O411  1  0.37446840  0.36443782  0.11578397  1
  O  O412  1  0.37166416  0.36768230  0.61997410  1
  O  O413  1  0.35793912  0.86507234  0.13255224  1
  O  O414  1  0.36924556  0.86875868  0.62308779  1
  O  O415  1  0.87822467  0.37324717  0.11246233  1
  O  O416  1  0.86631457  0.38055694  0.61450530  1
  O  O417  1  0.88745867  0.86783946  0.10373115  1
  O  O418  1  0.86849122  0.86750664  0.62322010  1
  O  O419  1  0.12543533  0.13940436  0.37112646  1
  O  O420  1  0.12419955  0.13254158  0.88293154  1
  O  O421  1  0.13131892  0.62585705  0.38034208  1
  O  O422  1  0.13237490  0.62916542  0.88486087  1
  O  O423  1  0.62590360  0.12814763  0.38978114  1
  O  O424  1  0.63094645  0.12907612  0.88217144  1
  O  O425  1  0.63129628  0.61900701  0.38507432  1
  O  O426  1  0.63179592  0.62581442  0.87849849  1
