# generated using pymatgen
data_V85Zn86O256
_symmetry_space_group_name_H-M   'P 1'
_cell_length_a   16.91485468
_cell_length_b   16.91613412
_cell_length_c   16.91724805
_cell_angle_alpha   90.02543833
_cell_angle_beta   89.99718894
_cell_angle_gamma   90.01683320
_symmetry_Int_Tables_number   1
_chemical_formula_structural   V85Zn86O256
_chemical_formula_sum   'V85 Zn86 O256'
_cell_volume   4840.59832297
_cell_formula_units_Z   1
loop_
 _symmetry_equiv_pos_site_id
 _symmetry_equiv_pos_as_xyz
  1  'x, y, z'
loop_
 _atom_site_type_symbol
 _atom_site_label
 _atom_site_symmetry_multiplicity
 _atom_site_fract_x
 _atom_site_fract_y
 _atom_site_fract_z
 _atom_site_occupancy
  V  V0  1  0.74415203  0.48635617  0.24645644  1
  V  V1  1  0.61503948  0.50360128  0.62401513  1
  V  V2  1  0.87222958  0.49490991  0.38030947  1
  V  V3  1  0.24912774  0.87926287  0.12369284  1
  V  V4  1  0.87664219  0.49877308  0.87504952  1
  V  V5  1  0.25054758  0.25832862  -0.00089574  1
  V  V6  1  0.00198512  0.36981077  0.86927837  1
  V  V7  1  0.49697407  0.87666343  0.37740390  1
  V  V8  1  0.74542243  0.25636227  0.00342584  1
  V  V9  1  0.00167530  0.49219927  0.50272499  1
  V  V10  1  0.00092788  0.74990831  0.74956047  1
  V  V11  1  0.37862696  0.87630928  -0.00331148  1
  V  V12  1  0.62460573  0.48073438  0.12728151  1
  V  V13  1  0.75028070  0.49768624  0.74862681  1
  V  V14  1  0.49637963  0.74786054  0.25523617  1
  V  V15  1  0.87001787  0.62439633  0.25239045  1
  V  V16  1  -0.00166786  0.37318530  0.37094125  1
  V  V17  1  0.25325641  0.62597155  0.87096342  1
  V  V18  1  0.62798641  0.12964133  0.00178235  1
  V  V19  1  0.38437675  0.62352110  0.74507997  1
  V  V20  1  0.12558996  0.62553902  -0.00050283  1
  V  V21  1  0.24920447  0.00407923  0.23929041  1
  V  V22  1  0.25747136  0.00616579  0.75173906  1
  V  V23  1  0.00117782  0.50084611  -0.00042232  1
  V  V24  1  0.75292649  0.87651931  0.62786762  1
  V  V25  1  0.87877060  0.00534444  0.38023584  1
  V  V26  1  0.88502944  0.13005528  0.75366031  1
  V  V27  1  0.75665523  0.00386039  0.75778633  1
  V  V28  1  0.49783655  0.00484062  0.50160333  1
  V  V29  1  0.62518618  0.13198215  0.49997161  1
  V  V30  1  0.26285275  0.25090583  0.49927981  1
  V  V31  1  0.61908385  0.36788044  0.76198517  1
  V  V32  1  0.12414574  0.86924325  0.25337021  1
  V  V33  1  0.12668002  0.75252409  0.87172734  1
  V  V34  1  0.62530469  0.00327733  0.62593249  1
  V  V35  1  0.51031012  -0.00112693  0.00072825  1
  V  V36  1  0.37876882  0.24988804  0.64072582  1
  V  V37  1  0.00071765  0.24130714  0.24406175  1
  V  V38  1  0.75100450  0.37402347  0.61699002  1
  V  V39  1  -0.00279138  0.88733130  0.87533446  1
  V  V40  1  0.36920673  0.61524918  0.25143957  1
  V  V41  1  0.12923429  -0.00931708  0.62022293  1
  V  V42  1  0.87412104  0.37563671  0.00949483  1
  V  V43  1  0.36243359  0.27230717  0.13024843  1
  V  V44  1  0.25434933  0.37794066  0.61856699  1
  V  V45  1  0.50046230  0.62350571  0.12712770  1
  V  V46  1  0.50347397  0.87352907  0.87085283  1
  V  V47  1  0.87645587  0.23796711  0.12216076  1
  V  V48  1  0.12629750  0.23911507  0.87292145  1
  V  V49  1  0.62422622  0.74708750  0.87240829  1
  V  V50  1  0.49589995  0.37341935  0.38283885  1
  V  V51  1  0.88480290  0.25391785  0.62052713  1
  V  V52  1  0.37488787  0.75001248  0.12599347  1
  V  V53  1  0.12451354  0.37018650  0.74377591  1
  V  V54  1  0.62433913  0.62332983  0.00398380  1
  V  V55  1  0.75130419  0.62396382  0.87597558  1
  V  V56  1  0.87961795  0.87920821  0.50407504  1
  V  V57  1  0.49308299  0.49358517  -0.00228302  1
  V  V58  1  0.00476792  0.61948378  0.62568118  1
  V  V59  1  0.24399972  0.75263487  0.49741520  1
  V  V60  1  0.37741481  0.74593991  0.62078428  1
  V  V61  1  0.24144822  0.62377332  0.36960646  1
  V  V62  1  0.50358065  0.25727544  0.23905361  1
  V  V63  1  0.49769541  0.13002939  0.64184183  1
  V  V64  1  0.74806116  0.87552088  0.12639903  1
  V  V65  1  0.12300760  0.62322534  0.49787119  1
  V  V66  1  0.24544922  0.50044545  0.74451382  1
  V  V67  1  0.62652749  0.87609396  0.75047969  1
  V  V68  1  0.25237757  0.75297033  -0.00346498  1
  V  V69  1  0.48355110  0.12713309  0.12545216  1
  V  V70  1  0.12089040  0.12421106  0.50095931  1
  V  V71  1  0.36664276  0.49242357  0.38140451  1
  V  V72  1  0.11501421  0.12021279  0.01283900  1
  V  V73  1  0.00160019  0.86902409  0.37916206  1
  V  V74  1  -0.00140145  0.62676690  0.12618258  1
  V  V75  1  0.37376310  0.00467113  0.36824201  1
  V  V76  1  0.74735639  0.13850958  0.87386642  1
  V  V77  1  0.36732067  0.87797532  0.50514228  1
  V  V78  1  0.13536120  0.49529058  0.13202153  1
  V  V79  1  0.12704465  0.25069071  0.37357369  1
  V  V80  1  0.37572949  0.48677620  0.87610942  1
  V  V81  1  0.74922773  0.74594700  0.50155697  1
  V  V82  1  0.62235764  0.87528122  0.25455321  1
  V  V83  1  0.25265580  0.12621795  0.36915180  1
  V  V84  1  0.62654111  0.25696595  0.36740246  1
  Zn  Zn85  1  0.75132930  0.75061159  0.00198655  1
  Zn  Zn86  1  0.74856696  0.12651248  0.37184719  1
  Zn  Zn87  1  0.88798245  0.87895759  0.00350817  1
  Zn  Zn88  1  0.62276251  0.74455030  0.37983622  1
  Zn  Zn89  1  0.87674090  0.74892246  0.62618507  1
  Zn  Zn90  1  0.50178299  0.25206417  0.78798326  1
  Zn  Zn91  1  0.75328571  0.25337600  0.49705623  1
  Zn  Zn92  1  0.14120200  0.37425499  0.24634209  1
  Zn  Zn93  1  0.62275632  0.00727394  0.13623672  1
  Zn  Zn94  1  0.37913862  0.01263448  0.86195312  1
  Zn  Zn95  1  0.74653402  0.00149628  0.25690192  1
  Zn  Zn96  1  0.50259011  0.74651291  0.74109558  1
  Zn  Zn97  1  0.61057216  0.62829357  0.50318328  1
  Zn  Zn98  1  0.10017312  -0.00160989  0.12354748  1
  Zn  Zn99  1  0.48937817  0.50122083  0.50515839  1
  Zn  Zn100  1  0.00347557  0.12337749  0.62461375  1
  Zn  Zn101  1  0.86945883  0.74684454  0.12439583  1
  Zn  Zn102  1  0.87683730  0.62386739  0.74862760  1
  Zn  Zn103  1  0.74465849  0.62154214  0.37765378  1
  Zn  Zn104  1  0.87358984  0.11839352  0.24227570  1
  Zn  Zn105  1  0.13665545  0.87180436  0.74173236  1
  Zn  Zn106  1  0.00152750  0.74613085  0.25584100  1
  Zn  Zn107  1  0.18636933  0.18919425  0.18533782  1
  Zn  Zn108  1  0.19098248  0.18579224  0.68728450  1
  Zn  Zn109  1  0.18674322  0.68861801  0.18489563  1
  Zn  Zn110  1  0.18986554  0.68686214  0.68073092  1
  Zn  Zn111  1  0.69120964  0.18936263  0.18551478  1
  Zn  Zn112  1  0.68872088  0.19214240  0.68672392  1
  Zn  Zn113  1  0.68571055  0.68476173  0.19206925  1
  Zn  Zn114  1  0.68916503  0.68583969  0.68646696  1
  Zn  Zn115  1  0.31519463  0.31334794  0.30766762  1
  Zn  Zn116  1  0.30617437  0.30884209  0.81281273  1
  Zn  Zn117  1  0.30961496  0.81273776  0.31630222  1
  Zn  Zn118  1  0.31343962  0.81973017  0.80425200  1
  Zn  Zn119  1  0.81509641  0.30904610  0.31085723  1
  Zn  Zn120  1  0.81452756  0.31326830  0.80907267  1
  Zn  Zn121  1  0.81171773  0.81079632  0.31669598  1
  Zn  Zn122  1  0.81535378  0.81057051  0.81352722  1
  Zn  Zn123  1  0.18563764  0.43794939  0.43553321  1
  Zn  Zn124  1  0.18676633  0.43684937  0.93545919  1
  Zn  Zn125  1  0.18627734  0.94023667  0.43503957  1
  Zn  Zn126  1  0.18630184  0.94197603  0.93285151  1
  Zn  Zn127  1  0.68374302  0.43663557  0.43700274  1
  Zn  Zn128  1  0.68749261  0.43902903  0.94140188  1
  Zn  Zn129  1  0.68910556  0.93705320  0.43948444  1
  Zn  Zn130  1  0.73894352  0.97624452  0.97148604  1
  Zn  Zn131  1  0.31523934  0.07553190  0.03009146  1
  Zn  Zn132  1  0.31015860  0.06646543  0.56558084  1
  Zn  Zn133  1  0.31240006  0.56345461  0.06050420  1
  Zn  Zn134  1  0.31130908  0.56429789  0.56061489  1
  Zn  Zn135  1  0.92611888  0.05011912  0.04678968  1
  Zn  Zn136  1  0.81285410  0.06556789  0.56487294  1
  Zn  Zn137  1  0.81009382  0.55911357  0.06562361  1
  Zn  Zn138  1  0.81601002  0.56181652  0.56380039  1
  Zn  Zn139  1  0.43935941  0.43765649  0.19158352  1
  Zn  Zn140  1  0.43526006  0.43118207  0.69379823  1
  Zn  Zn141  1  0.43679064  0.93928205  0.18603252  1
  Zn  Zn142  1  0.43474137  0.93685341  0.68479345  1
  Zn  Zn143  1  0.94214503  0.43747750  0.19041546  1
  Zn  Zn144  1  0.93825979  0.43628757  0.68632252  1
  Zn  Zn145  1  0.93186663  0.93317211  0.19573286  1
  Zn  Zn146  1  0.94507469  0.94117633  0.68890392  1
  Zn  Zn147  1  0.06180488  0.05837248  0.31279904  1
  Zn  Zn148  1  0.07063671  0.06191333  0.80474008  1
  Zn  Zn149  1  0.06110928  0.56034437  0.31146370  1
  Zn  Zn150  1  0.06557555  0.56046857  0.81119123  1
  Zn  Zn151  1  0.55866150  0.07086819  0.31108666  1
  Zn  Zn152  1  0.57000499  0.06257666  0.81848485  1
  Zn  Zn153  1  0.56211585  0.55889253  0.31820253  1
  Zn  Zn154  1  0.56257812  0.55645108  0.81342806  1
  Zn  Zn155  1  0.44030802  0.18819121  0.43613566  1
  Zn  Zn156  1  0.42407509  0.18301414  0.93173721  1
  Zn  Zn157  1  0.43477694  0.68185958  0.43909355  1
  Zn  Zn158  1  0.43913458  0.68447627  0.93393440  1
  Zn  Zn159  1  0.93912416  0.19002243  0.43927311  1
  Zn  Zn160  1  0.93861173  0.19088540  0.93269697  1
  Zn  Zn161  1  0.93315329  0.68661355  0.43914482  1
  Zn  Zn162  1  0.93441974  0.69305710  0.93956199  1
  Zn  Zn163  1  0.06104059  0.31339822  0.06008474  1
  Zn  Zn164  1  0.06801008  0.31139829  0.56001285  1
  Zn  Zn165  1  0.06243028  0.81409690  0.06284702  1
  Zn  Zn166  1  0.06203504  0.80918544  0.55982065  1
  Zn  Zn167  1  0.53293090  0.28989852  0.00765361  1
  Zn  Zn168  1  0.56264859  0.31543447  0.56549375  1
  Zn  Zn169  1  0.56691285  0.80981654  0.06428420  1
  Zn  Zn170  1  0.56115293  0.81494406  0.56217913  1
  O  O171  1  0.11544636  0.12235777  0.11681555  1
  O  O172  1  0.12562227  0.12171576  0.61559355  1
  O  O173  1  0.11756774  0.61893608  0.12016116  1
  O  O174  1  0.11383603  0.62507027  0.61503046  1
  O  O175  1  0.61989966  0.12619664  0.11420462  1
  O  O176  1  0.61720297  0.12456347  0.61990699  1
  O  O177  1  0.61872293  0.62054807  0.11814173  1
  O  O178  1  0.62826014  0.60694027  0.62734182  1
  O  O179  1  0.38089574  0.38156767  0.37235523  1
  O  O180  1  0.36880530  0.38779261  0.86937364  1
  O  O181  1  0.37792796  0.88438972  0.38349988  1
  O  O182  1  0.38857761  0.87467588  0.88091813  1
  O  O183  1  0.88801284  0.38037379  0.37152242  1
  O  O184  1  0.88436695  0.37962853  0.87804155  1
  O  O185  1  0.87940779  0.88250182  0.38451721  1
  O  O186  1  0.89471628  0.87142448  0.86979435  1
  O  O187  1  0.25504806  0.00739629  0.36441400  1
  O  O188  1  0.25293116  -0.00738543  0.85697144  1
  O  O189  1  0.25425709  0.50842989  0.37411342  1
  O  O190  1  0.25557307  0.50654403  0.86839420  1
  O  O191  1  0.76208403  0.00071969  0.37765217  1
  O  O192  1  0.74327106  0.01690791  0.86158545  1
  O  O193  1  0.75597423  0.49688655  0.36694499  1
  O  O194  1  0.75472484  0.50486965  0.86843409  1
  O  O195  1  0.23357054  0.50754323  0.11961123  1
  O  O196  1  0.25606332  0.49035765  0.63193759  1
  O  O197  1  0.25780571  0.99921107  0.13441357  1
  O  O198  1  0.23886126  1.00430147  0.63044207  1
  O  O199  1  0.74087897  0.50012831  0.13746309  1
  O  O200  1  0.74725512  0.49345984  0.63264436  1
  O  O201  1  0.73910082  0.97996424  0.13706683  1
  O  O202  1  0.74454882  0.99736602  0.63574297  1
  O  O203  1  0.00546908  0.36600049  0.25795619  1
  O  O204  1  0.01268130  0.38309785  0.75649500  1
  O  O205  1  0.00637464  0.86929871  0.25998593  1
  O  O206  1  0.00924922  0.86553245  0.75663261  1
  O  O207  1  0.49730308  0.36252312  0.25785035  1
  O  O208  1  0.51451407  0.37043614  0.75163979  1
  O  O209  1  0.50106763  0.86757451  0.25683675  1
  O  O210  1  0.50473846  0.87428739  0.75569676  1
  O  O211  1  0.50383139  0.13978251  0.23522185  1
  O  O212  1  0.50951047  0.13280783  0.74527967  1
  O  O213  1  0.49055287  0.63091107  0.24913644  1
  O  O214  1  0.48787289  0.62384577  0.75198336  1
  O  O215  1  0.99430579  0.13721707  0.25938352  1
  O  O216  1  0.98772565  0.12478343  0.75011694  1
  O  O217  1  0.99146443  0.62469829  0.24334851  1
  O  O218  1  1.00307808  0.62843447  0.74185842  1
  O  O219  1  0.35670215  0.25327071  0.01335223  1
  O  O220  1  0.36543486  0.24639086  0.50546607  1
  O  O221  1  0.37453450  0.75884313  0.00315155  1
  O  O222  1  0.36737956  0.75809700  0.50231189  1
  O  O223  1  0.87006088  0.25756933  0.00434662  1
  O  O224  1  0.87148017  0.24490510  0.51573239  1
  O  O225  1  0.86926242  0.76023709  0.00429187  1
  O  O226  1  0.86692523  0.75877527  0.50439501  1
  O  O227  1  0.13720726  0.24341203  0.49279474  1
  O  O228  1  0.12267410  0.24314502  0.99305788  1
  O  O229  1  0.13090742  0.73705658  0.50116790  1
  O  O230  1  0.13127936  0.74458073  0.99182815  1
  O  O231  1  0.62516370  0.24549972  0.49356737  1
  O  O232  1  0.63826188  0.24548514  1.00829042  1
  O  O233  1  0.63391355  0.74944651  0.50308896  1
  O  O234  1  0.62292652  0.73539585  0.99308148  1
  O  O235  1  0.48544153  0.24714004  0.12113727  1
  O  O236  1  0.49172989  0.24413983  0.62364047  1
  O  O237  1  0.49386644  0.74413012  0.13377588  1
  O  O238  1  0.48349141  0.75556212  0.62323980  1
  O  O239  1  0.99206233  0.25663491  0.13461414  1
  O  O240  1  0.98833794  0.25095470  0.62172904  1
  O  O241  1  0.99922955  0.73713305  0.12677811  1
  O  O242  1  1.00253247  0.74264193  0.63605324  1
  O  O243  1  0.00413434  0.25753228  0.37030698  1
  O  O244  1  0.00789060  0.26387931  0.87442508  1
  O  O245  1  -0.00617248  0.76338124  0.37621004  1
  O  O246  1  0.00982887  0.74663407  0.86305648  1
  O  O247  1  0.50369590  0.25514418  0.36420192  1
  O  O248  1  0.49871523  0.25409100  0.90165857  1
  O  O249  1  0.49484220  0.75690006  0.36921617  1
  O  O250  1  0.50672892  0.75546646  0.86974396  1
  O  O251  1  0.24455725  0.13293060  0.49009084  1
  O  O252  1  0.22475559  0.14528796  1.00879509  1
  O  O253  1  0.24044481  0.62862052  0.49162344  1
  O  O254  1  0.24645270  0.63461043  0.99161277  1
  O  O255  1  0.73442827  0.12631269  0.50120258  1
  O  O256  1  0.74408216  0.13708968  0.98923826  1
  O  O257  1  0.75131913  0.63763419  0.50417948  1
  O  O258  1  0.74084760  0.62324182  0.99528000  1
  O  O259  1  0.23286493  0.35757173  0.00380961  1
  O  O260  1  0.24218026  0.36675786  0.51069295  1
  O  O261  1  0.26010506  0.87367142  0.00135936  1
  O  O262  1  0.25611591  0.86588160  0.48978451  1
  O  O263  1  0.76185235  0.36837261  -0.00758275  1
  O  O264  1  0.74859864  0.37658281  0.51346817  1
  O  O265  1  0.72798821  0.86937511  0.02277776  1
  O  O266  1  0.75799680  0.86743345  0.50795213  1
  O  O267  1  0.12249329  0.49913583  0.23591562  1
  O  O268  1  0.13963385  0.49099352  0.75435496  1
  O  O269  1  0.13208335  0.99158693  0.24448646  1
  O  O270  1  0.13591658  0.99624801  0.73710802  1
  O  O271  1  0.63634111  0.50054727  0.24391595  1
  O  O272  1  0.63086069  0.49276994  0.74140063  1
  O  O273  1  0.62095785  0.98952491  0.25628427  1
  O  O274  1  0.63242710  0.99553855  0.74483423  1
  O  O275  1  0.36714086  -0.00488448  0.26113598  1
  O  O276  1  0.36596151  0.00201337  0.74648950  1
  O  O277  1  0.37639427  0.51136994  0.25713494  1
  O  O278  1  0.36713960  0.50593869  0.75523827  1
  O  O279  1  0.87015135  -0.00079941  0.26814540  1
  O  O280  1  0.86789736  0.01696615  0.74196153  1
  O  O281  1  0.86724450  0.50530364  0.25655375  1
  O  O282  1  0.86695123  0.49981896  0.75606285  1
  O  O283  1  0.11673845  0.36848315  0.37119091  1
  O  O284  1  0.11963282  0.36883582  0.86532293  1
  O  O285  1  0.11400459  0.88258219  0.36705147  1
  O  O286  1  0.12025195  0.86225969  0.87339701  1
  O  O287  1  0.61605461  0.36398938  0.37711459  1
  O  O288  1  0.62883657  0.38335550  0.86025836  1
  O  O289  1  0.61635297  0.87138508  0.36979991  1
  O  O290  1  0.61318542  0.86795713  0.86810278  1
  O  O291  1  0.38259769  0.12619912  0.11571620  1
  O  O292  1  0.38786536  0.13503496  0.62112221  1
  O  O293  1  0.37795167  0.62984345  0.13356586  1
  O  O294  1  0.37004982  0.63256235  0.63278846  1
  O  O295  1  0.87842765  0.13569544  0.11967104  1
  O  O296  1  0.87859082  0.13568292  0.63270608  1
  O  O297  1  0.88108696  0.62326195  0.13298017  1
  O  O298  1  0.89042892  0.62627155  0.62615060  1
  O  O299  1  0.25787929  0.24904636  0.11927685  1
  O  O300  1  0.26079940  0.25416923  0.61928829  1
  O  O301  1  0.25569742  0.75692747  0.11600325  1
  O  O302  1  0.25978541  0.74517795  0.60753641  1
  O  O303  1  0.76260954  0.25168288  0.11451722  1
  O  O304  1  0.75841450  0.25906403  0.62275776  1
  O  O305  1  0.74527573  0.75781633  0.12709616  1
  O  O306  1  0.75310587  0.75878610  0.62191693  1
  O  O307  1  0.25030388  0.24267704  0.38097347  1
  O  O308  1  0.24097070  0.25231727  0.88837241  1
  O  O309  1  0.25446314  0.73845040  0.38696566  1
  O  O310  1  0.24556209  0.74822141  0.87638016  1
  O  O311  1  0.74213582  0.25021401  0.37752648  1
  O  O312  1  0.75379212  0.24486196  0.88129751  1
  O  O313  1  0.74696119  0.74729977  0.38785052  1
  O  O314  1  0.74239337  0.74187208  0.87507398  1
  O  O315  1  0.00774180  0.12516674  -0.00399970  1
  O  O316  1  0.01713685  0.12942941  0.49914064  1
  O  O317  1  0.00467983  0.62173560  0.00574888  1
  O  O318  1  0.00494961  0.61804674  0.50401163  1
  O  O319  1  0.50934532  0.11462174  0.00814717  1
  O  O320  1  0.50975258  0.12179152  0.50615408  1
  O  O321  1  0.50580578  0.61960840  0.00661797  1
  O  O322  1  0.49697196  0.61508041  0.50088543  1
  O  O323  1  0.50151967  0.37760759  0.48704292  1
  O  O324  1  0.49484150  0.39530661  1.00821843  1
  O  O325  1  0.49193427  0.88515302  0.49500553  1
  O  O326  1  0.50061419  0.87776447  0.99334263  1
  O  O327  1  1.00889013  0.38583853  0.49219556  1
  O  O328  1  0.99372054  0.38189828  0.98945682  1
  O  O329  1  0.98766963  0.87135442  0.49658346  1
  O  O330  1  1.00463236  0.86944713  0.98058251  1
  O  O331  1  0.48809330  0.48802866  0.37207726  1
  O  O332  1  0.48837516  0.50556363  0.88432476  1
  O  O333  1  0.48994922  1.00033599  0.37993407  1
  O  O334  1  0.50033449  0.99274977  0.88367136  1
  O  O335  1  0.99292167  0.49249424  0.37932968  1
  O  O336  1  0.99758568  0.49321013  0.88008640  1
  O  O337  1  0.98637439  0.98908876  0.37422172  1
  O  O338  1  1.00873033  0.98540022  0.86681551  1
  O  O339  1  -0.01156882  -0.01176632  0.11841010  1
  O  O340  1  0.02173848  0.00533777  0.63048088  1
  O  O341  1  0.00444223  0.51177855  0.11927219  1
  O  O342  1  -0.00345031  0.50476721  0.61366655  1
  O  O343  1  0.50334078  0.00756474  0.12003536  1
  O  O344  1  0.50475130  0.01070215  0.62239860  1
  O  O345  1  0.50564721  0.50767088  0.12336918  1
  O  O346  1  0.51252402  0.48993722  0.62709630  1
  O  O347  1  0.25006341  0.35802303  0.23304683  1
  O  O348  1  0.24498107  0.38116170  0.74095192  1
  O  O349  1  0.24399237  0.88245941  0.24621830  1
  O  O350  1  0.25059667  0.88875556  0.74254102  1
  O  O351  1  0.75509720  0.38811838  0.25025505  1
  O  O352  1  0.74353641  0.38416766  0.74450733  1
  O  O353  1  0.73670812  0.87005592  0.24852228  1
  O  O354  1  0.74904595  0.88493361  0.74859590  1
  O  O355  1  0.24394725  0.11848224  0.25995971  1
  O  O356  1  0.24734282  0.10767596  0.74767002  1
  O  O357  1  0.25781735  0.63424429  0.25736887  1
  O  O358  1  0.25510785  0.61685035  0.75115095  1
  O  O359  1  0.75470697  0.12150482  0.25327219  1
  O  O360  1  0.75548369  0.12284315  0.75475405  1
  O  O361  1  0.75632321  0.61384504  0.25334843  1
  O  O362  1  0.75100120  0.61220224  0.75515237  1
  O  O363  1  0.36595266  0.11630783  0.37949365  1
  O  O364  1  0.35443662  0.10267337  0.92329891  1
  O  O365  1  0.36252031  0.61673943  0.36821505  1
  O  O366  1  0.36726919  0.62323644  0.86373744  1
  O  O367  1  0.87425829  0.11235567  0.38269783  1
  O  O368  1  0.86728161  0.13317661  0.86027135  1
  O  O369  1  0.87247378  0.61363213  0.36870054  1
  O  O370  1  0.86745436  0.61817782  0.87500392  1
  O  O371  1  0.11446739  0.39390095  0.12314110  1
  O  O372  1  0.13539532  0.36700078  0.63630474  1
  O  O373  1  0.13348065  0.87919554  0.12953724  1
  O  O374  1  0.12494019  0.88705741  0.61801642  1
  O  O375  1  0.61959672  0.38512127  0.11640258  1
  O  O376  1  0.63406466  0.38272798  0.63444193  1
  O  O377  1  0.62407677  0.87185919  0.14355297  1
  O  O378  1  0.63099939  0.88218458  0.63157619  1
  O  O379  1  0.11607391  0.24795739  0.25662709  1
  O  O380  1  0.13479982  0.25809958  0.75993421  1
  O  O381  1  0.12518295  0.76476095  0.24648132  1
  O  O382  1  0.12296878  0.74969913  0.75498886  1
  O  O383  1  0.61766779  0.24921142  0.25587794  1
  O  O384  1  0.62534279  0.26421313  0.75169370  1
  O  O385  1  0.60913058  0.75263421  0.25488684  1
  O  O386  1  0.62383853  0.75561334  0.75353486  1
  O  O387  1  0.38410634  0.24833460  0.23311617  1
  O  O388  1  0.38165560  0.25142409  0.74509447  1
  O  O389  1  0.38196466  0.74489699  0.24793453  1
  O  O390  1  0.37411998  0.74131013  0.73905539  1
  O  O391  1  0.88183060  0.24838875  0.23865375  1
  O  O392  1  0.87039585  0.23808110  0.73760855  1
  O  O393  1  0.87448686  0.73441752  0.25150583  1
  O  O394  1  0.88659678  0.74491049  0.74802354  1
  O  O395  1  0.36998411  0.49880111  0.48585618  1
  O  O396  1  0.38069859  0.50994857  0.98778054  1
  O  O397  1  0.37550793  0.99550421  0.49308685  1
  O  O398  1  0.39333039  0.98115466  1.01019198  1
  O  O399  1  0.88346686  0.50279431  0.48759519  1
  O  O400  1  0.87950127  0.49379924  0.99526903  1
  O  O401  1  0.87065945  0.99192891  0.49353197  1
  O  O402  1  0.84927795  0.98510898  0.99732534  1
  O  O403  1  0.13120699  0.01655375  0.00231253  1
  O  O404  1  0.13481545  0.01005834  0.51029031  1
  O  O405  1  0.11951984  0.50806872  0.00385324  1
  O  O406  1  0.11518118  0.51261182  0.49387457  1
  O  O407  1  0.62108514  0.00737292  0.00359687  1
  O  O408  1  0.61848239  0.00684035  0.50648111  1
  O  O409  1  0.61821998  0.50882516  0.00627423  1
  O  O410  1  0.62582247  0.49806115  0.51697549  1
  O  O411  1  0.37386890  0.36996925  0.12433216  1
  O  O412  1  0.36593817  0.36499407  0.62851875  1
  O  O413  1  0.37015201  0.86762748  0.11906699  1
  O  O414  1  0.37516529  0.87013485  0.60981974  1
  O  O415  1  0.88292694  0.37276092  0.11204558  1
  O  O416  1  0.86762928  0.36134759  0.63366345  1
  O  O417  1  0.85574778  0.86719632  0.13281584  1
  O  O418  1  0.87229541  0.87707033  0.62047148  1
  O  O419  1  0.13357336  0.12817896  0.38037967  1
  O  O420  1  0.11694104  0.13659655  0.88014237  1
  O  O421  1  0.13370304  0.62224579  0.37773096  1
  O  O422  1  0.13239543  0.63448453  0.87772072  1
  O  O423  1  0.62218561  0.13849343  0.38315921  1
  O  O424  1  0.63264801  0.12725034  0.88969460  1
  O  O425  1  0.62733820  0.62540487  0.38260791  1
  O  O426  1  0.63105053  0.62530054  0.88147673  1
