# generated using pymatgen
data_V85Zn86O256
_symmetry_space_group_name_H-M   'P 1'
_cell_length_a   16.93337691
_cell_length_b   16.94055550
_cell_length_c   16.94012572
_cell_angle_alpha   90.05223048
_cell_angle_beta   90.08698285
_cell_angle_gamma   90.02237680
_symmetry_Int_Tables_number   1
_chemical_formula_structural   V85Zn86O256
_chemical_formula_sum   'V85 Zn86 O256'
_cell_volume   4859.45021825
_cell_formula_units_Z   1
loop_
 _symmetry_equiv_pos_site_id
 _symmetry_equiv_pos_as_xyz
  1  'x, y, z'
loop_
 _atom_site_type_symbol
 _atom_site_label
 _atom_site_symmetry_multiplicity
 _atom_site_fract_x
 _atom_site_fract_y
 _atom_site_fract_z
 _atom_site_occupancy
  V  V0  1  0.25601096  0.39131192  0.13112790  1
  V  V1  1  0.61753230  0.61918774  0.49838227  1
  V  V2  1  0.62698823  0.24771130  0.37210261  1
  V  V3  1  0.00749544  0.00210135  0.49467699  1
  V  V4  1  0.62449484  0.25152743  0.87791114  1
  V  V5  1  0.87697369  0.12671410  0.75076343  1
  V  V6  1  0.62704461  0.11730327  0.00816559  1
  V  V7  1  0.37231751  0.24516468  0.62075113  1
  V  V8  1  0.24959306  0.37580346  0.62674456  1
  V  V9  1  0.88073949  0.25174539  0.12684648  1
  V  V10  1  0.49945160  0.62615657  0.12508223  1
  V  V11  1  0.62343487  0.87996641  0.24451942  1
  V  V12  1  0.75364541  0.37246660  0.62621616  1
  V  V13  1  0.87996813  0.38688696  -0.00755403  1
  V  V14  1  0.26045118  0.61881265  0.87634371  1
  V  V15  1  0.19982962  0.57034145  0.32054478  1
  V  V16  1  0.74949178  0.87310640  0.62418664  1
  V  V17  1  0.36835727  0.00125080  0.36259661  1
  V  V18  1  0.74991317  0.50204248  0.75669081  1
  V  V19  1  0.75015803  0.12711008  0.87600566  1
  V  V20  1  0.62557274  0.50031227  0.12431280  1
  V  V21  1  0.87051458  0.00411918  0.37427314  1
  V  V22  1  0.49458198  0.00030350  0.49736414  1
  V  V23  1  0.12131781  0.62417809  0.50751571  1
  V  V24  1  0.00173969  -0.00259172  0.00209133  1
  V  V25  1  0.63015352  0.12459046  0.49426623  1
  V  V26  1  0.24347974  0.12338669  0.37068696  1
  V  V27  1  0.24849340  -0.00525202  0.76472951  1
  V  V28  1  0.37707704  0.50353769  0.37760867  1
  V  V29  1  0.63452302  0.75300872  0.87598970  1
  V  V30  1  0.87455922  0.87497550  0.49609715  1
  V  V31  1  0.00571576  0.62195775  0.12747810  1
  V  V32  1  0.23631426  0.24488360  0.49819832  1
  V  V33  1  0.87793370  0.00221819  0.87658688  1
  V  V34  1  0.13119539  0.12617131  -0.00164229  1
  V  V35  1  0.12889588  -0.00790760  0.62627459  1
  V  V36  1  0.88856355  0.74463325  0.62294093  1
  V  V37  1  0.62473657  0.74971298  0.37402687  1
  V  V38  1  0.49549411  0.11995551  0.12611518  1
  V  V39  1  0.11875256  0.88039453  0.24844583  1
  V  V40  1  0.87648284  0.63701902  0.24896837  1
  V  V41  1  0.87537850  0.38090295  0.49554243  1
  V  V42  1  0.62448415  -0.00058568  0.62271530  1
  V  V43  1  0.48495988  0.37771350  0.87834680  1
  V  V44  1  0.00114171  0.12723887  0.13017915  1
  V  V45  1  0.49816899  0.87590876  0.37301759  1
  V  V46  1  0.49846904  0.24749059  0.75060452  1
  V  V47  1  0.25280972  0.88352573  0.13317338  1
  V  V48  1  0.49643627  0.12269465  0.62358402  1
  V  V49  1  0.87281028  0.86854956  0.00000370  1
  V  V50  1  0.37485452  0.74848280  0.62578782  1
  V  V51  1  0.37727602  0.37805705  0.50042618  1
  V  V52  1  0.37537254  0.62143884  0.25195353  1
  V  V53  1  0.12328993  0.74986339  0.36792718  1
  V  V54  1  0.12054809  0.50191205  0.62967161  1
  V  V55  1  0.11834566  0.61244100  -0.00202798  1
  V  V56  1  0.61863809  0.49716318  0.62098641  1
  V  V57  1  0.50080858  0.37821527  0.37718693  1
  V  V58  1  0.75603715  0.62718747  0.87652252  1
  V  V59  1  0.00620533  0.25093030  0.75651553  1
  V  V60  1  0.24687954  0.75194474  0.00171957  1
  V  V61  1  0.74963764  0.74794310  0.50008493  1
  V  V62  1  0.75853799  0.50016894  0.25076645  1
  V  V63  1  0.12252494  0.75523825  0.86296174  1
  V  V64  1  0.24974258  0.74603559  0.49661926  1
  V  V65  1  0.74696494  0.00654702  0.24601090  1
  V  V66  1  0.13476667  0.25012538  0.88010012  1
  V  V67  1  0.62941087  0.63053736  -0.00092445  1
  V  V68  1  0.11422894  0.25106021  0.36314272  1
  V  V69  1  0.75671089  0.61919017  0.37722584  1
  V  V70  1  0.00862945  0.12431760  0.62107915  1
  V  V71  1  0.26534458  0.25275890  0.01420929  1
  V  V72  1  0.74951973  0.37555366  0.12317448  1
  V  V73  1  0.49096315  0.25346713  0.24314999  1
  V  V74  1  0.87394208  0.13223910  0.25589672  1
  V  V75  1  0.74871676  0.87000549  0.12342067  1
  V  V76  1  0.88820827  0.62692956  0.74774186  1
  V  V77  1  0.37591926  0.88116577  -0.00626815  1
  V  V78  1  0.87544059  0.24896320  0.62551772  1
  V  V79  1  0.75054819  0.00197455  0.74803110  1
  V  V80  1  0.75162949  0.25058140  0.00136735  1
  V  V81  1  0.37134395  0.11699339  0.76340107  1
  V  V82  1  0.62438847  0.37375198  0.75229896  1
  V  V83  1  0.48849357  0.49774517  -0.00386363  1
  V  V84  1  0.50251426  0.74950347  0.75086591  1
  Zn  Zn85  1  0.01473394  0.87957454  0.85658540  1
  Zn  Zn86  1  0.26024943  0.49528110  0.75511467  1
  Zn  Zn87  1  0.12963293  0.37769326  0.75663932  1
  Zn  Zn88  1  0.36435356  0.12880655  0.24182401  1
  Zn  Zn89  1  0.49972020  0.88033843  0.87163173  1
  Zn  Zn90  1  -0.00533585  0.86756905  0.36736175  1
  Zn  Zn91  1  0.88056615  0.75259074  0.12318256  1
  Zn  Zn92  1  0.62403305  0.37571303  0.24960345  1
  Zn  Zn93  1  0.12955578  0.00500775  0.13086697  1
  Zn  Zn94  1  0.50137230  -0.00074396  -0.00280408  1
  Zn  Zn95  1  0.24753823  0.87238011  0.62881100  1
  Zn  Zn96  1  0.37332697  0.75129926  0.12836796  1
  Zn  Zn97  1  0.49783373  0.61952598  0.62381640  1
  Zn  Zn98  1  0.75110701  0.24600286  0.49482237  1
  Zn  Zn99  1  -0.00846799  0.50682898  0.50861074  1
  Zn  Zn100  1  0.01237701  0.39443294  0.89202853  1
  Zn  Zn101  1  0.12358991  0.38102636  0.24048616  1
  Zn  Zn102  1  -0.00640029  0.37752969  0.36867354  1
  Zn  Zn103  1  0.62669879  0.87618924  0.75284258  1
  Zn  Zn104  1  0.37011521  0.87436393  0.49844936  1
  Zn  Zn105  1  0.49828814  0.75077283  0.25046463  1
  Zn  Zn106  1  0.38150556  0.61882556  0.75357004  1
  Zn  Zn107  1  0.18657734  0.19157720  0.18765452  1
  Zn  Zn108  1  0.18933522  0.18165329  0.68905558  1
  Zn  Zn109  1  0.18161953  0.69452217  0.18110460  1
  Zn  Zn110  1  0.19139801  0.68515411  0.68899386  1
  Zn  Zn111  1  0.68529221  0.18896427  0.18855162  1
  Zn  Zn112  1  0.68501646  0.18646617  0.68615133  1
  Zn  Zn113  1  0.68851996  0.69106784  0.18898635  1
  Zn  Zn114  1  0.68815649  0.68741534  0.68795632  1
  Zn  Zn115  1  0.30725399  0.31535202  0.30963030  1
  Zn  Zn116  1  0.31103950  0.30318733  0.81275656  1
  Zn  Zn117  1  0.30877029  0.81007448  0.31212760  1
  Zn  Zn118  1  0.31086339  0.80849517  0.81249197  1
  Zn  Zn119  1  0.80922022  0.31236990  0.31134922  1
  Zn  Zn120  1  0.81483848  0.31317015  0.81310915  1
  Zn  Zn121  1  0.80805986  0.81437494  0.31266311  1
  Zn  Zn122  1  0.84753466  0.82787133  0.79469211  1
  Zn  Zn123  1  0.18118877  0.43152230  0.44406815  1
  Zn  Zn124  1  0.19700563  0.43251012  0.94408583  1
  Zn  Zn125  1  0.18829505  0.93344450  0.43684119  1
  Zn  Zn126  1  0.18753742  0.93589851  0.94204745  1
  Zn  Zn127  1  0.68972599  0.43577582  0.43743535  1
  Zn  Zn128  1  0.68531636  0.43941011  0.93892653  1
  Zn  Zn129  1  0.68746703  0.93952449  0.43281166  1
  Zn  Zn130  1  0.69064427  0.93784441  0.93680060  1
  Zn  Zn131  1  0.31235793  0.06312872  0.06049020  1
  Zn  Zn132  1  0.30850927  0.06242690  0.55830969  1
  Zn  Zn133  1  0.31124640  0.56541963  0.06242921  1
  Zn  Zn134  1  0.30998477  0.56317220  0.56278917  1
  Zn  Zn135  1  0.81311214  0.06078959  0.06639927  1
  Zn  Zn136  1  0.81543413  0.06336743  0.56167676  1
  Zn  Zn137  1  0.81514835  0.56629689  0.06341441  1
  Zn  Zn138  1  0.80702791  0.56124471  0.57008037  1
  Zn  Zn139  1  0.43243133  0.43871038  0.18745913  1
  Zn  Zn140  1  0.43569267  0.43647272  0.69075243  1
  Zn  Zn141  1  0.43861539  0.94038001  0.18255339  1
  Zn  Zn142  1  0.43433574  0.93366271  0.68841074  1
  Zn  Zn143  1  0.93845329  0.44025898  0.17517230  1
  Zn  Zn144  1  0.95785463  0.45780313  0.72627597  1
  Zn  Zn145  1  0.93757818  0.93995858  0.18686506  1
  Zn  Zn146  1  0.94024437  0.93794948  0.68329279  1
  Zn  Zn147  1  0.06255280  0.06422865  0.31317848  1
  Zn  Zn148  1  0.06740275  0.06390134  0.81390459  1
  Zn  Zn149  1  0.02374427  0.52556510  0.29766513  1
  Zn  Zn150  1  0.07210622  0.56362298  0.81459111  1
  Zn  Zn151  1  0.55997128  0.06353129  0.30968133  1
  Zn  Zn152  1  0.56173220  0.05962510  0.81547585  1
  Zn  Zn153  1  0.56361094  0.56011175  0.31184281  1
  Zn  Zn154  1  0.56234253  0.56227850  0.81352176  1
  Zn  Zn155  1  0.43449373  0.18903590  0.43284730  1
  Zn  Zn156  1  0.44077842  0.18572743  0.93890133  1
  Zn  Zn157  1  0.43732393  0.68846659  0.43776243  1
  Zn  Zn158  1  0.44067671  0.69597316  0.94125652  1
  Zn  Zn159  1  0.93805555  0.18961462  0.44037925  1
  Zn  Zn160  1  0.94278266  0.19109110  0.94073671  1
  Zn  Zn161  1  0.94079815  0.68413511  0.43622737  1
  Zn  Zn162  1  0.94137348  0.68811504  0.93253133  1
  Zn  Zn163  1  0.06633281  0.31594508  0.06587042  1
  Zn  Zn164  1  0.06124974  0.31407920  0.56738544  1
  Zn  Zn165  1  0.06198072  0.80896123  0.06346540  1
  Zn  Zn166  1  0.06407766  0.81581808  0.55656660  1
  Zn  Zn167  1  0.55819032  0.31160758  0.06219338  1
  Zn  Zn168  1  0.56141847  0.31086893  0.56128386  1
  Zn  Zn169  1  0.56270510  0.81078006  0.06360515  1
  Zn  Zn170  1  0.56075045  0.81112588  0.56196003  1
  O  O171  1  0.11662906  0.12597573  0.11948821  1
  O  O172  1  0.11373575  0.11440965  0.62805930  1
  O  O173  1  0.11672443  0.62682229  0.11195614  1
  O  O174  1  0.13217687  0.61543966  0.61940837  1
  O  O175  1  0.61512458  0.13094704  0.11716946  1
  O  O176  1  0.61580200  0.11870324  0.61728093  1
  O  O177  1  0.62156736  0.62170435  0.11919852  1
  O  O178  1  0.62704549  0.61491817  0.61568479  1
  O  O179  1  0.37802664  0.38435473  0.37989899  1
  O  O180  1  0.38609271  0.36893727  0.87030681  1
  O  O181  1  0.37935413  0.88266301  0.37517062  1
  O  O182  1  0.37572722  0.86670874  0.89133817  1
  O  O183  1  0.87099417  0.36703730  0.39240933  1
  O  O184  1  0.87744901  0.36824240  0.89088046  1
  O  O185  1  0.87571765  0.88378320  0.37763739  1
  O  O186  1  0.86102391  0.89178340  0.88947337  1
  O  O187  1  0.25753615  0.00934179  0.38374161  1
  O  O188  1  0.24600630  -0.00105836  0.86344886  1
  O  O189  1  0.25490935  0.50299828  0.37856024  1
  O  O190  1  0.24936346  0.51554267  0.88013061  1
  O  O191  1  0.76290146  -0.00171049  0.36547533  1
  O  O192  1  0.75486470  0.01042836  0.86848475  1
  O  O193  1  0.74399034  0.50798463  0.36398170  1
  O  O194  1  0.74491285  0.50614287  0.86366335  1
  O  O195  1  0.24880547  0.49087397  0.11966271  1
  O  O196  1  0.24549806  0.48778987  0.62417694  1
  O  O197  1  0.24737825  0.98816730  0.12139519  1
  O  O198  1  0.24122937  0.99798858  0.62604449  1
  O  O199  1  0.74288443  0.49742944  0.12928241  1
  O  O200  1  0.73844975  0.49045886  0.63526866  1
  O  O201  1  0.75615498  0.99060014  0.13999638  1
  O  O202  1  0.74598589  0.99323764  0.62627037  1
  O  O203  1  0.01025967  0.40674610  0.25427418  1
  O  O204  1  0.00868759  0.35355187  0.73902991  1
  O  O205  1  0.01278417  0.87562474  0.24837395  1
  O  O206  1  -0.04460020  0.86512216  0.76297936  1
  O  O207  1  0.50137265  0.36947456  0.25547042  1
  O  O208  1  0.50593344  0.36592102  0.75644299  1
  O  O209  1  0.50731765  0.87614507  0.25325943  1
  O  O210  1  0.50335839  0.86288091  0.74987745  1
  O  O211  1  0.49964034  0.13178317  0.23775328  1
  O  O212  1  0.49035559  0.12640628  0.74380407  1
  O  O213  1  0.49399356  0.62422320  0.24233979  1
  O  O214  1  0.50266383  0.63645287  0.74807956  1
  O  O215  1  0.99110613  0.11992358  0.23736726  1
  O  O216  1  0.99673947  0.13206728  0.74470310  1
  O  O217  1  0.99037990  0.61928047  0.23888951  1
  O  O218  1  0.98626997  0.62778367  0.75129418  1
  O  O219  1  0.36246181  0.24417288  -0.00289632  1
  O  O220  1  0.36673606  0.25911770  0.50147468  1
  O  O221  1  0.36398843  0.75737879  0.00541503  1
  O  O222  1  0.36756387  0.74976087  0.50516954  1
  O  O223  1  0.86785071  0.25294967  0.00885028  1
  O  O224  1  0.86942531  0.25468487  0.50928734  1
  O  O225  1  0.87903025  0.76612008  -0.00511589  1
  O  O226  1  0.86851972  0.75230156  0.50401621  1
  O  O227  1  0.13335009  0.25437135  0.49570788  1
  O  O228  1  0.12997283  0.24259002  0.99637989  1
  O  O229  1  0.13141978  0.74390156  0.49532194  1
  O  O230  1  0.13709084  0.74612185  0.99553352  1
  O  O231  1  0.62398542  0.24065437  0.49242087  1
  O  O232  1  0.63310984  0.24437489  0.99568252  1
  O  O233  1  0.63089706  0.74169464  0.49465060  1
  O  O234  1  0.62281001  0.73823511  0.99371515  1
  O  O235  1  0.50280424  0.24126936  0.13397384  1
  O  O236  1  0.49391813  0.24335711  0.63113503  1
  O  O237  1  0.49899335  0.73615011  0.12763685  1
  O  O238  1  0.49557993  0.74638111  0.63181972  1
  O  O239  1  0.98801571  0.24316092  0.11996222  1
  O  O240  1  0.99709549  0.23864857  0.63008516  1
  O  O241  1  0.99665268  0.73200132  0.11757510  1
  O  O242  1  0.98693238  0.75698384  0.61842149  1
  O  O243  1  0.01106457  0.25593717  0.38002825  1
  O  O244  1  0.01197176  0.25211528  0.86965785  1
  O  O245  1  0.01734792  0.75071357  0.38144357  1
  O  O246  1  0.01966920  0.75382278  0.87983998  1
  O  O247  1  0.50652290  0.26005250  0.36899129  1
  O  O248  1  0.50630587  0.25556322  0.87119033  1
  O  O249  1  0.50598976  0.75886101  0.37432750  1
  O  O250  1  0.51238046  0.75276726  0.86805485  1
  O  O251  1  0.25451581  0.13641002  0.48733596  1
  O  O252  1  0.24085640  0.13534730  1.00685701  1
  O  O253  1  0.24077051  0.63805506  0.50398628  1
  O  O254  1  0.24221575  0.63255730  0.99454859  1
  O  O255  1  0.73442566  0.12396241  0.50448917  1
  O  O256  1  0.74560873  0.13117946  0.99863409  1
  O  O257  1  0.74405345  0.62681989  0.49267430  1
  O  O258  1  0.74491609  0.61994988  0.98660781  1
  O  O259  1  0.25112458  0.36042584  0.01261805  1
  O  O260  1  0.25647590  0.36527597  0.50972528  1
  O  O261  1  0.25891125  0.86998151  0.00731402  1
  O  O262  1  0.24905961  0.86187584  0.50549379  1
  O  O263  1  0.75660579  0.36942829  0.00412817  1
  O  O264  1  0.75682279  0.37092086  0.50892738  1
  O  O265  1  0.75912038  0.88614079  0.01387727  1
  O  O266  1  0.75368045  0.87076401  0.50341456  1
  O  O267  1  0.13817398  0.51564145  0.26417143  1
  O  O268  1  0.14094837  0.49843012  0.74240249  1
  O  O269  1  0.12331746  0.98578703  0.25104343  1
  O  O270  1  0.14070699  1.00653300  0.74354217  1
  O  O271  1  0.63344198  0.50219886  0.23682578  1
  O  O272  1  0.63133329  0.49249213  0.74442139  1
  O  O273  1  0.63493810  0.99294650  0.25715043  1
  O  O274  1  0.63285798  1.00006853  0.74006256  1
  O  O275  1  0.37807961  0.00390696  0.26016199  1
  O  O276  1  0.36574986  0.00981471  0.74471873  1
  O  O277  1  0.37572947  0.51268185  0.25997925  1
  O  O278  1  0.37250992  0.50581505  0.74773087  1
  O  O279  1  0.86956689  0.00832141  0.25682415  1
  O  O280  1  0.86938432  0.01118217  0.75470139  1
  O  O281  1  0.86131259  0.51136286  0.24078121  1
  O  O282  1  0.86002789  0.51865416  0.73718246  1
  O  O283  1  0.12722215  0.35896868  0.37344913  1
  O  O284  1  0.12662631  0.36681396  0.87628122  1
  O  O285  1  0.12256424  0.86941618  0.36329404  1
  O  O286  1  0.12890281  0.86160963  0.87643541  1
  O  O287  1  0.61575946  0.36986898  0.37472535  1
  O  O288  1  0.62282946  0.36662113  0.86997058  1
  O  O289  1  0.61948095  0.87166581  0.36508469  1
  O  O290  1  0.62795599  0.86556806  0.87445132  1
  O  O291  1  0.38969001  0.12269048  0.12496851  1
  O  O292  1  0.38100948  0.12841025  0.62531742  1
  O  O293  1  0.38274587  0.62527872  0.13401837  1
  O  O294  1  0.37867171  0.63567952  0.62342643  1
  O  O295  1  0.88057257  0.13322643  0.13264792  1
  O  O296  1  0.88357936  0.12894260  0.63172550  1
  O  O297  1  0.87856783  0.63288091  0.13182277  1
  O  O298  1  0.87172963  0.63272682  0.63268736  1
  O  O299  1  0.25547866  0.24880575  0.11665267  1
  O  O300  1  0.25255474  0.25108076  0.61634749  1
  O  O301  1  0.25091086  0.76084709  0.11727933  1
  O  O302  1  0.25820036  0.75172301  0.62096399  1
  O  O303  1  0.75778084  0.25592333  0.12090976  1
  O  O304  1  0.75408382  0.25681401  0.62574287  1
  O  O305  1  0.75504249  0.76554213  0.13069098  1
  O  O306  1  0.75177976  0.75757583  0.61723594  1
  O  O307  1  0.24015347  0.24471002  0.38053688  1
  O  O308  1  0.24030456  0.25196910  0.88774901  1
  O  O309  1  0.23762143  0.75439663  0.38458476  1
  O  O310  1  0.24284199  0.74308334  0.88273383  1
  O  O311  1  0.73182701  0.25427842  0.37476254  1
  O  O312  1  0.74559204  0.24523466  0.88058718  1
  O  O313  1  0.74364269  0.74166383  0.38026626  1
  O  O314  1  0.73836954  0.74014705  0.86883945  1
  O  O315  1  0.00480647  0.11713413  0.01070346  1
  O  O316  1  -0.00687047  0.11481844  0.51022111  1
  O  O317  1  0.01388900  0.62734045  0.00053984  1
  O  O318  1  0.01625225  0.62562682  0.50053543  1
  O  O319  1  0.50892655  0.12741086  0.01097718  1
  O  O320  1  0.50516065  0.11778679  0.50304655  1
  O  O321  1  0.50849927  0.62052621  0.00633649  1
  O  O322  1  0.51444244  0.62622555  0.49995647  1
  O  O323  1  0.48896020  0.36840984  0.49081971  1
  O  O324  1  0.50570718  0.38471099  0.99053331  1
  O  O325  1  0.50066657  0.88439247  0.49131225  1
  O  O326  1  0.48494270  0.87250027  1.00528902  1
  O  O327  1  0.97914499  0.37098199  0.51004861  1
  O  O328  1  0.98552614  0.37344578  1.00334227  1
  O  O329  1  0.99128283  0.88558678  0.49496836  1
  O  O330  1  0.99389940  0.88744397  1.00220922  1
  O  O331  1  0.49355821  0.48665561  0.37118584  1
  O  O332  1  0.50836624  0.48952527  0.88440152  1
  O  O333  1  0.49180923  0.99626224  0.38029387  1
  O  O334  1  0.50611520  0.99324331  0.88305906  1
  O  O335  1  0.99931420  0.48895967  0.39780059  1
  O  O336  1  0.99412899  0.48701355  0.83336672  1
  O  O337  1  0.98952941  1.00082675  0.38077320  1
  O  O338  1  0.99687884  0.99794426  0.88224514  1
  O  O339  1  0.00206775  0.00912108  0.11779700  1
  O  O340  1  0.00454351  0.00559925  0.61778085  1
  O  O341  1  -0.01033396  0.52282239  0.11338334  1
  O  O342  1  0.01668960  0.49371624  0.62834650  1
  O  O343  1  0.50297282  0.01511953  0.12028332  1
  O  O344  1  0.50375543  0.00136754  0.61606834  1
  O  O345  1  0.50715952  0.50862322  0.12078306  1
  O  O346  1  0.51479896  0.49733466  0.62835661  1
  O  O347  1  0.24379429  0.37538598  0.23785646  1
  O  O348  1  0.25149772  0.36744882  0.73665436  1
  O  O349  1  0.23917340  0.87152704  0.24183734  1
  O  O350  1  0.26001893  0.89104134  0.74744556  1
  O  O351  1  0.74755998  0.38435525  0.24281595  1
  O  O352  1  0.74650923  0.38067475  0.74544643  1
  O  O353  1  0.74227874  0.88372229  0.24537939  1
  O  O354  1  0.75333349  0.88291941  0.73849017  1
  O  O355  1  0.24902625  0.12967146  0.26377194  1
  O  O356  1  0.26409111  0.11324050  0.74664897  1
  O  O357  1  0.25417681  0.62801684  0.25244363  1
  O  O358  1  0.25439667  0.62702281  0.76913848  1
  O  O359  1  0.75972176  0.11827906  0.24433105  1
  O  O360  1  0.75590116  0.12229973  0.75458784  1
  O  O361  1  0.75517433  0.62103482  0.25729230  1
  O  O362  1  0.74671721  0.61682167  0.76058524  1
  O  O363  1  0.36614185  0.11705445  0.37209156  1
  O  O364  1  0.37940380  0.12497491  0.86139228  1
  O  O365  1  0.38178618  0.61121441  0.37204584  1
  O  O366  1  0.36228427  0.63346335  0.88093573  1
  O  O367  1  0.87946552  0.12207991  0.36360346  1
  O  O368  1  0.87174931  0.12200747  0.87202935  1
  O  O369  1  0.86402779  0.62738070  0.36888138  1
  O  O370  1  0.86746081  0.63350112  0.86079605  1
  O  O371  1  0.14256884  0.36928578  0.12635204  1
  O  O372  1  0.13519424  0.38113817  0.62620362  1
  O  O373  1  0.13015018  0.87562907  0.13543227  1
  O  O374  1  0.12182173  0.88827593  0.62696477  1
  O  O375  1  0.63020855  0.38473641  0.12386404  1
  O  O376  1  0.63309538  0.37699061  0.62938021  1
  O  O377  1  0.63059177  0.87195745  0.13625431  1
  O  O378  1  0.63625167  0.88007462  0.62284077  1
  O  O379  1  0.11886387  0.25174958  0.26107893  1
  O  O380  1  0.12304308  0.24363645  0.76205155  1
  O  O381  1  0.12776798  0.76124797  0.25780717  1
  O  O382  1  0.13029826  0.74767303  0.76409224  1
  O  O383  1  0.61428334  0.25248352  0.25695990  1
  O  O384  1  0.61852462  0.25296197  0.75673300  1
  O  O385  1  0.62320643  0.75934242  0.25743416  1
  O  O386  1  0.62023205  0.75251639  0.75671616  1
  O  O387  1  0.38828968  0.24705604  0.26092187  1
  O  O388  1  0.37716580  0.23445188  0.74284045  1
  O  O389  1  0.37704027  0.73564980  0.25260868  1
  O  O390  1  0.38357979  0.74591440  0.74347200  1
  O  O391  1  0.87035000  0.24348834  0.24152948  1
  O  O392  1  0.88388535  0.24443226  0.74631749  1
  O  O393  1  0.87230212  0.73987312  0.25213269  1
  O  O394  1  0.86107558  0.73189410  0.73481187  1
  O  O395  1  0.36998563  0.48740558  0.49424331  1
  O  O396  1  0.39003365  0.50695611  1.00217115  1
  O  O397  1  0.38518138  0.99895209  0.49340278  1
  O  O398  1  0.37450840  0.98433955  1.00204820  1
  O  O399  1  0.86965522  0.48372283  0.51142402  1
  O  O400  1  0.86712604  0.48498306  0.99995285  1
  O  O401  1  0.88000692  0.99716257  0.49092405  1
  O  O402  1  0.88459820  0.99876002  0.99657566  1
  O  O403  1  0.11834911  0.00704479  0.00325465  1
  O  O404  1  0.11317510  -0.00429823  0.50552381  1
  O  O405  1  0.12566709  0.51442757  -0.00877579  1
  O  O406  1  0.12984094  0.50877865  0.51208691  1
  O  O407  1  0.62986127  0.01498397  -0.00051249  1
  O  O408  1  0.61498333  0.00579690  0.50014715  1
  O  O409  1  0.62187416  0.51107611  0.01048499  1
  O  O410  1  0.63234550  0.50692282  0.50865928  1
  O  O411  1  0.35858052  0.37675685  0.12959894  1
  O  O412  1  0.37108433  0.36628786  0.61719572  1
  O  O413  1  0.36789041  0.87251358  0.12102336  1
  O  O414  1  0.37632356  0.86042585  0.61975136  1
  O  O415  1  0.86947472  0.36777035  0.11652826  1
  O  O416  1  0.86147597  0.36778232  0.62279164  1
  O  O417  1  0.86925859  0.87402265  0.11879992  1
  O  O418  1  0.86301802  0.86957609  0.61441660  1
  O  O419  1  0.12840978  0.13870425  0.37384881  1
  O  O420  1  0.11933303  0.13222827  0.89136901  1
  O  O421  1  0.13695195  0.62975579  0.37959872  1
  O  O422  1  0.13363999  0.63446310  0.88423266  1
  O  O423  1  0.61542005  0.13396706  0.38344124  1
  O  O424  1  0.63084962  0.13443292  0.88221660  1
  O  O425  1  0.63332078  0.62726738  0.38039128  1
  O  O426  1  0.63201408  0.62952041  0.88323822  1
