# generated using pymatgen
data_V85Zn86O256
_symmetry_space_group_name_H-M   'P 1'
_cell_length_a   16.94569112
_cell_length_b   16.95856089
_cell_length_c   16.93057615
_cell_angle_alpha   90.00967607
_cell_angle_beta   90.11211131
_cell_angle_gamma   90.00743020
_symmetry_Int_Tables_number   1
_chemical_formula_structural   V85Zn86O256
_chemical_formula_sum   'V85 Zn86 O256'
_cell_volume   4865.40701680
_cell_formula_units_Z   1
loop_
 _symmetry_equiv_pos_site_id
 _symmetry_equiv_pos_as_xyz
  1  'x, y, z'
loop_
 _atom_site_type_symbol
 _atom_site_label
 _atom_site_symmetry_multiplicity
 _atom_site_fract_x
 _atom_site_fract_y
 _atom_site_fract_z
 _atom_site_occupancy
  V  V0  1  -0.00524268  0.61955202  0.13789226  1
  V  V1  1  0.50006952  0.49782134  0.50648097  1
  V  V2  1  0.74929088  0.00133581  0.26098296  1
  V  V3  1  0.24629584  0.37094874  0.62525760  1
  V  V4  1  0.75545684  0.63309851  0.36969481  1
  V  V5  1  0.62611168  0.50051227  0.12314740  1
  V  V6  1  0.75461206  0.00039746  0.75077114  1
  V  V7  1  0.37741063  0.61646630  0.25604617  1
  V  V8  1  0.13562202  0.87648868  0.74413701  1
  V  V9  1  0.62150391  0.74984362  0.87297186  1
  V  V10  1  0.12557382  0.49537644  0.64083006  1
  V  V11  1  0.37566268  0.87513059  0.00372430  1
  V  V12  1  0.48238363  0.37707889  0.87706109  1
  V  V13  1  0.14138174  0.11391227  0.50024603  1
  V  V14  1  0.50510470  0.25166467  0.75282732  1
  V  V15  1  0.49599728  0.38394928  0.37266983  1
  V  V16  1  0.74943524  0.87094390  0.61187311  1
  V  V17  1  0.25346629  0.37644269  0.12062957  1
  V  V18  1  0.62927453  0.13102732  -0.00826866  1
  V  V19  1  0.74914748  0.62387280  0.87302160  1
  V  V20  1  0.75466859  0.24389131  0.50133264  1
  V  V21  1  0.87362168  0.75008634  0.61913492  1
  V  V22  1  0.74482752  0.50171985  0.74200841  1
  V  V23  1  0.75151030  0.87678773  0.12663077  1
  V  V24  1  0.88495442  0.88148300  -0.00473346  1
  V  V25  1  0.37651738  0.75190977  0.13935903  1
  V  V26  1  0.24778067  0.12472117  0.87760703  1
  V  V27  1  0.36892737  0.12692496  0.25698191  1
  V  V28  1  0.49886723  0.12584332  0.12391686  1
  V  V29  1  0.25153558  0.61460077  0.37608541  1
  V  V30  1  0.50019515  0.00017936  0.00090894  1
  V  V31  1  0.11638935  0.27070085  0.86994586  1
  V  V32  1  0.37412500  0.12716545  0.74896341  1
  V  V33  1  0.50276648  0.12803297  0.62332325  1
  V  V34  1  0.49460987  0.63073838  0.62263034  1
  V  V35  1  0.89666134  0.87869824  0.49700803  1
  V  V36  1  0.50060346  0.25116403  0.24868875  1
  V  V37  1  0.87872164  0.49204029  0.87195635  1
  V  V38  1  0.37308833  0.25317863  0.61324849  1
  V  V39  1  0.11972910  -0.00059134  0.13015498  1
  V  V40  1  0.87062490  0.25067303  0.11963622  1
  V  V41  1  0.12414223  0.75707875  0.37046635  1
  V  V42  1  0.75852876  0.50157888  0.24977809  1
  V  V43  1  -0.00126416  0.25081358  0.24964308  1
  V  V44  1  0.00108078  0.49739777  -0.00329131  1
  V  V45  1  0.00249455  0.12435026  0.12327709  1
  V  V46  1  0.25473706  0.62054863  0.87483117  1
  V  V47  1  0.37384489  0.25079789  0.11590484  1
  V  V48  1  0.24628344  0.00394743  0.25916586  1
  V  V49  1  0.49913802  -0.00127680  0.49429947  1
  V  V50  1  0.36956504  0.86956057  0.51469556  1
  V  V51  1  -0.00540890  0.76379107  0.25340114  1
  V  V52  1  -0.00341240  0.76182821  0.75716633  1
  V  V53  1  0.63163659  0.24693037  0.37236364  1
  V  V54  1  0.86953149  0.12574626  0.25843647  1
  V  V55  1  -0.00084364  0.62305809  0.62803778  1
  V  V56  1  0.00077676  0.11524173  0.61378743  1
  V  V57  1  0.62357694  0.62359353  -0.00050880  1
  V  V58  1  0.75176584  0.75180126  0.00071476  1
  V  V59  1  0.24431364  0.87639898  0.13527163  1
  V  V60  1  0.12695063  0.62131221  0.49937234  1
  V  V61  1  0.87835045  0.12944795  0.74363280  1
  V  V62  1  0.48702152  0.49884311  -0.00331402  1
  V  V63  1  0.87483182  0.62765541  0.75078420  1
  V  V64  1  0.50153883  0.62964697  0.13142089  1
  V  V65  1  -0.00112895  0.49773289  0.50203061  1
  V  V66  1  0.62626167  0.00082829  0.12550124  1
  V  V67  1  0.62640897  0.37477381  0.76089166  1
  V  V68  1  0.63355618  0.62678695  0.50343047  1
  V  V69  1  0.24331766  0.25213377  -0.00389022  1
  V  V70  1  0.49401005  0.86449273  0.36875114  1
  V  V71  1  0.63041255  0.12384354  0.49432244  1
  V  V72  1  0.37414798  -0.00083663  0.87619750  1
  V  V73  1  0.24921714  0.74861325  0.00442817  1
  V  V74  1  0.00211183  0.26066864  0.73899473  1
  V  V75  1  0.87252033  0.37251379  0.50471730  1
  V  V76  1  0.62611394  0.87461592  0.74903595  1
  V  V77  1  0.62626836  -0.00018208  0.62285862  1
  V  V78  1  0.13772965  0.24580585  0.38488945  1
  V  V79  1  0.06536857  0.06536704  -0.04917887  1
  V  V80  1  0.12796754  0.37268577  0.24989555  1
  V  V81  1  -0.00101967  0.37274921  0.37706072  1
  V  V82  1  0.74033910  0.37426996  0.62152862  1
  V  V83  1  0.12029648  0.75564209  0.87994163  1
  V  V84  1  0.62667071  0.37609567  0.24780689  1
  Zn  Zn85  1  0.49748429  0.87304178  0.87375309  1
  Zn  Zn86  1  0.88595835  -0.00101031  0.87509585  1
  Zn  Zn87  1  0.49382556  0.75711932  0.73802545  1
  Zn  Zn88  1  0.37574667  0.62641032  0.74863281  1
  Zn  Zn89  1  0.12702003  0.50110559  0.12507504  1
  Zn  Zn90  1  0.62291861  0.74748471  0.36868763  1
  Zn  Zn91  1  0.06109669  0.93902377  0.43372067  1
  Zn  Zn92  1  0.87294863  0.74591329  0.13006310  1
  Zn  Zn93  1  0.36639053  0.00185493  0.37933125  1
  Zn  Zn94  1  0.87659356  0.50322172  0.37334063  1
  Zn  Zn95  1  0.75141624  0.12947907  0.86884911  1
  Zn  Zn96  1  0.25476281  0.49495952  0.25297314  1
  Zn  Zn97  1  0.88434909  -0.00023314  0.37924906  1
  Zn  Zn98  1  0.87527986  0.37372762  -0.00515478  1
  Zn  Zn99  1  0.26135583  0.49109988  0.75778581  1
  Zn  Zn100  1  0.12197121  0.62533759  0.00445102  1
  Zn  Zn101  1  0.25286220  -0.00286445  0.74210268  1
  Zn  Zn102  1  0.75006239  0.37474185  0.12043658  1
  Zn  Zn103  1  0.74571587  0.26040249  -0.01366715  1
  Zn  Zn104  1  0.61909272  0.86954277  0.24875606  1
  Zn  Zn105  1  0.25798765  0.74562150  0.51120716  1
  Zn  Zn106  1  0.36757990  0.37838249  0.49199533  1
  Zn  Zn107  1  0.18457740  0.18722084  0.18603462  1
  Zn  Zn108  1  0.18736309  0.18540858  0.68459470  1
  Zn  Zn109  1  0.18435864  0.68416623  0.19228109  1
  Zn  Zn110  1  0.18785325  0.68743956  0.68961054  1
  Zn  Zn111  1  0.68913767  0.18617286  0.18307511  1
  Zn  Zn112  1  0.68866267  0.19001877  0.68497716  1
  Zn  Zn113  1  0.68643278  0.69076988  0.19198029  1
  Zn  Zn114  1  0.68453055  0.68845932  0.68297751  1
  Zn  Zn115  1  0.31397070  0.31033132  0.31010970  1
  Zn  Zn116  1  0.30966603  0.30904818  0.80449287  1
  Zn  Zn117  1  0.30714758  0.81267593  0.32200102  1
  Zn  Zn118  1  0.31489004  0.80509591  0.81248701  1
  Zn  Zn119  1  0.81234262  0.31501805  0.31274205  1
  Zn  Zn120  1  0.81346202  0.30916661  0.80877958  1
  Zn  Zn121  1  0.81436730  0.81353434  0.31375202  1
  Zn  Zn122  1  0.81114211  0.81555527  0.81390223  1
  Zn  Zn123  1  0.18730797  0.43515936  0.44197429  1
  Zn  Zn124  1  0.18684799  0.43879332  0.94074257  1
  Zn  Zn125  1  0.19593062  0.93707155  0.57015951  1
  Zn  Zn126  1  0.19259611  0.93015063  0.93648197  1
  Zn  Zn127  1  0.68353395  0.44197048  0.43454102  1
  Zn  Zn128  1  0.68843472  0.43924810  0.93586458  1
  Zn  Zn129  1  0.68457117  0.93385551  0.43409064  1
  Zn  Zn130  1  0.68976267  0.93980558  0.93647019  1
  Zn  Zn131  1  0.30789174  0.06487197  0.06368426  1
  Zn  Zn132  1  0.31817938  0.06597589  0.56099363  1
  Zn  Zn133  1  0.31120670  0.56502009  0.06541717  1
  Zn  Zn134  1  0.31411066  0.55440950  0.56347429  1
  Zn  Zn135  1  0.81401375  0.06215302  0.06437469  1
  Zn  Zn136  1  0.81619412  0.05971992  0.56300664  1
  Zn  Zn137  1  0.81498766  0.56223909  0.06147409  1
  Zn  Zn138  1  0.81219190  0.56124329  0.56065881  1
  Zn  Zn139  1  0.43791508  0.43819781  0.18328760  1
  Zn  Zn140  1  0.43378472  0.44222935  0.68740677  1
  Zn  Zn141  1  0.43322130  0.94145663  0.18907292  1
  Zn  Zn142  1  0.43910218  0.94165685  0.68777268  1
  Zn  Zn143  1  0.93851676  0.43483953  0.18568653  1
  Zn  Zn144  1  0.93065866  0.43650445  0.68384841  1
  Zn  Zn145  1  0.93506447  0.94018242  0.18706591  1
  Zn  Zn146  1  0.93967183  0.93710547  0.68397612  1
  Zn  Zn147  1  0.06121951  0.06755730  0.31126116  1
  Zn  Zn148  1  0.06272335  0.06149349  0.78756893  1
  Zn  Zn149  1  0.06444506  0.55773870  0.31343147  1
  Zn  Zn150  1  0.06365223  0.57008572  0.81731506  1
  Zn  Zn151  1  0.56150121  0.06182770  0.31145515  1
  Zn  Zn152  1  0.56084920  0.06023086  0.81172176  1
  Zn  Zn153  1  0.56782516  0.56340476  0.31309409  1
  Zn  Zn154  1  0.55924563  0.55765701  0.80929577  1
  Zn  Zn155  1  0.44364573  0.18956401  0.43422560  1
  Zn  Zn156  1  0.43894413  0.19032795  0.93594828  1
  Zn  Zn157  1  0.43543633  0.68607907  0.44190906  1
  Zn  Zn158  1  0.43582534  0.68942758  0.94166218  1
  Zn  Zn159  1  0.94002733  0.18846979  0.43694210  1
  Zn  Zn160  1  0.92939198  0.19490511  0.92576173  1
  Zn  Zn161  1  0.93928289  0.68883152  0.43754994  1
  Zn  Zn162  1  0.93726207  0.68313846  0.94148751  1
  Zn  Zn163  1  0.06159773  0.31292293  0.05921806  1
  Zn  Zn164  1  0.06520459  0.31014769  0.56371581  1
  Zn  Zn165  1  0.06231757  0.81063135  0.07125408  1
  Zn  Zn166  1  0.08522781  0.79257838  0.57710247  1
  Zn  Zn167  1  0.56113374  0.31452207  0.05839422  1
  Zn  Zn168  1  0.56488841  0.31384890  0.56256638  1
  Zn  Zn169  1  0.56315572  0.81224409  0.06434101  1
  Zn  Zn170  1  0.56416975  0.81012640  0.55365665  1
  O  O171  1  0.11085551  0.12115739  0.12230331  1
  O  O172  1  0.11750561  0.13121238  0.60753614  1
  O  O173  1  0.11211575  0.62184472  0.12614550  1
  O  O174  1  0.11732992  0.61328957  0.61798728  1
  O  O175  1  0.61806336  0.11846301  0.11673811  1
  O  O176  1  0.62026290  0.11975014  0.61724874  1
  O  O177  1  0.61741629  0.62224389  0.12016168  1
  O  O178  1  0.62134648  0.62544281  0.60876882  1
  O  O179  1  0.39124567  0.36426725  0.37550930  1
  O  O180  1  0.38397039  0.37307228  0.87065287  1
  O  O181  1  0.38315539  0.87894676  0.38268438  1
  O  O182  1  0.37374138  0.88351145  0.88336700  1
  O  O183  1  0.88003353  0.37665069  0.38607772  1
  O  O184  1  0.87488604  0.38964903  0.86906303  1
  O  O185  1  0.87511841  0.86929013  0.39626141  1
  O  O186  1  0.87132982  0.87908183  0.88916596  1
  O  O187  1  0.24801054  -0.00224683  0.35810203  1
  O  O188  1  0.26138060  0.00730048  0.87858012  1
  O  O189  1  0.24779542  0.51001353  0.37504474  1
  O  O190  1  0.24166676  0.51694382  0.87646984  1
  O  O191  1  0.75488914  -0.00629142  0.36367078  1
  O  O192  1  0.74909760  0.00424702  0.85889696  1
  O  O193  1  0.75064239  0.50777501  0.36528641  1
  O  O194  1  0.75726370  0.50624850  0.86405280  1
  O  O195  1  0.24802538  0.48958432  0.12616511  1
  O  O196  1  0.23980037  0.49483694  0.62870717  1
  O  O197  1  0.24156228  0.99348795  0.12847283  1
  O  O198  1  0.25248575  1.01092384  0.63108902  1
  O  O199  1  0.74354959  0.50280594  0.13173282  1
  O  O200  1  0.75471918  0.49244090  0.63476129  1
  O  O201  1  0.74515282  0.99297859  0.13132641  1
  O  O202  1  0.74620374  0.99118844  0.63334455  1
  O  O203  1  0.00782255  0.36947351  0.25495957  1
  O  O204  1  -0.00289630  0.35976208  0.73792687  1
  O  O205  1  0.00134171  0.86182472  0.24194657  1
  O  O206  1  0.00511055  0.86545672  0.75012347  1
  O  O207  1  0.50563038  0.37138238  0.25437842  1
  O  O208  1  0.50564431  0.37168849  0.75814583  1
  O  O209  1  0.49644326  0.88419904  0.26613041  1
  O  O210  1  0.51376781  0.87688406  0.75121293  1
  O  O211  1  0.49406963  0.13191405  0.24242455  1
  O  O212  1  0.49757037  0.13336999  0.74559695  1
  O  O213  1  0.49484663  0.61989849  0.23912308  1
  O  O214  1  0.50986773  0.62286195  0.72883491  1
  O  O215  1  0.99172056  0.13335075  0.23956375  1
  O  O216  1  0.99578726  0.13398709  0.73710835  1
  O  O217  1  1.00030033  0.62299293  0.24055435  1
  O  O218  1  0.99304285  0.63421862  0.74573927  1
  O  O219  1  0.36715981  0.24581925  0.01020795  1
  O  O220  1  0.38389843  0.25159980  0.51042394  1
  O  O221  1  0.36402894  0.75385840  0.01189778  1
  O  O222  1  0.37370904  0.76418443  0.50096599  1
  O  O223  1  0.87461141  0.25260767  0.00603256  1
  O  O224  1  0.86188736  0.25604401  0.49191440  1
  O  O225  1  0.86236235  0.75700398  -0.00128507  1
  O  O226  1  0.88349000  0.75970705  0.51309192  1
  O  O227  1  0.12334705  0.24288636  0.48830904  1
  O  O228  1  0.12865597  0.25429950  0.98167156  1
  O  O229  1  0.10529844  0.72756027  0.48073165  1
  O  O230  1  0.13377376  0.75252149  0.99877439  1
  O  O231  1  0.63321316  0.24560808  0.49169858  1
  O  O232  1  0.62522127  0.23395950  1.00545519  1
  O  O233  1  0.62116163  0.73114071  0.49033510  1
  O  O234  1  0.63488231  0.74622481  0.99435537  1
  O  O235  1  0.49118407  0.24856462  0.12804320  1
  O  O236  1  0.49556400  0.24725249  0.63098915  1
  O  O237  1  0.48912097  0.74081394  0.11867975  1
  O  O238  1  0.50757828  0.73474474  0.62088875  1
  O  O239  1  0.99508687  0.24395051  0.12897102  1
  O  O240  1  1.00621146  0.24034369  0.63473943  1
  O  O241  1  1.00082154  0.73823240  0.13956435  1
  O  O242  1  0.99321510  0.74304958  0.63699887  1
  O  O243  1  0.00661710  0.25625192  0.36807212  1
  O  O244  1  0.01151560  0.25033709  0.86349531  1
  O  O245  1  0.00693542  0.74176907  0.35947485  1
  O  O246  1  0.00703008  0.74317415  0.86905617  1
  O  O247  1  0.51268180  0.25757139  0.36749602  1
  O  O248  1  0.49694505  0.26418009  0.86725031  1
  O  O249  1  0.49550512  0.76281295  0.37699035  1
  O  O250  1  0.51382796  0.75138478  0.88098668  1
  O  O251  1  0.23938409  0.12638626  0.49776536  1
  O  O252  1  0.25242244  0.13746253  0.98819158  1
  O  O253  1  0.24265768  0.62366965  0.49560836  1
  O  O254  1  0.24539836  0.63350026  0.99731457  1
  O  O255  1  0.74535218  0.13264707  0.50603392  1
  O  O256  1  0.73540839  0.12055389  0.99935424  1
  O  O257  1  0.73919955  0.61771456  0.49071596  1
  O  O258  1  0.74511371  0.63323740  0.99472399  1
  O  O259  1  0.24692588  0.36290396  0.00570439  1
  O  O260  1  0.25458943  0.38031740  0.51479318  1
  O  O261  1  0.25639240  0.86778213  0.01275319  1
  O  O262  1  0.26648462  0.87572898  0.50080770  1
  O  O263  1  0.75512635  0.37687603  0.00248862  1
  O  O264  1  0.75186073  0.37125565  0.50400304  1
  O  O265  1  0.75358404  0.86881983  0.00638684  1
  O  O266  1  0.75027999  0.87574528  0.51038516  1
  O  O267  1  0.12736443  0.48232686  0.24965076  1
  O  O268  1  0.12569011  0.50611544  0.74216901  1
  O  O269  1  0.13230391  1.00998678  0.23673871  1
  O  O270  1  0.13413917  0.97957510  0.76501161  1
  O  O271  1  0.63362321  0.49534218  0.24243248  1
  O  O272  1  0.63618993  0.49077550  0.75231962  1
  O  O273  1  0.63207741  0.99740712  0.24332335  1
  O  O274  1  0.63099295  0.99439756  0.74262774  1
  O  O275  1  0.36514242  0.01144814  0.24958808  1
  O  O276  1  0.37552117  0.00728349  0.76013152  1
  O  O277  1  0.37475032  0.51243991  0.24603764  1
  O  O278  1  0.37306269  0.51312808  0.74690044  1
  O  O279  1  0.86557573  0.00909016  0.24815075  1
  O  O280  1  0.86985594  0.00379227  0.75053116  1
  O  O281  1  0.86224154  0.49333800  0.25065419  1
  O  O282  1  0.86836748  0.50724890  0.75362120  1
  O  O283  1  0.12079737  0.36419673  0.37192524  1
  O  O284  1  0.12581405  0.36845679  0.86868650  1
  O  O285  1  0.12663634  0.85443358  0.38500830  1
  O  O286  1  0.12873614  0.86160230  0.86987925  1
  O  O287  1  0.61746719  0.36885642  0.36642789  1
  O  O288  1  0.62077766  0.37592404  0.86320860  1
  O  O289  1  0.60690225  0.87297462  0.37660264  1
  O  O290  1  0.62615063  0.86835552  0.86622434  1
  O  O291  1  0.38022382  0.13227901  0.13021965  1
  O  O292  1  0.38462139  0.13395496  0.63023529  1
  O  O293  1  0.38115932  0.63303190  0.13384638  1
  O  O294  1  0.39204477  0.62521881  0.61688047  1
  O  O295  1  0.88377649  0.13315530  0.12822714  1
  O  O296  1  0.88804936  0.12162258  0.63141679  1
  O  O297  1  0.89008298  0.62816644  0.12122752  1
  O  O298  1  0.87713692  0.63310175  0.62953960  1
  O  O299  1  0.25311137  0.25291267  0.11436204  1
  O  O300  1  0.26154473  0.25575431  0.63022035  1
  O  O301  1  0.25295562  0.75618930  0.12371897  1
  O  O302  1  0.19706957  0.75637101  0.60457522  1
  O  O303  1  0.75937172  0.25006074  0.11847668  1
  O  O304  1  0.74674119  0.25981781  0.61252304  1
  O  O305  1  0.75185843  0.75679325  0.11719072  1
  O  O306  1  0.76195149  0.75921829  0.63209570  1
  O  O307  1  0.23575521  0.25197146  0.37193068  1
  O  O308  1  0.23693975  0.24542016  0.87629082  1
  O  O309  1  0.23567844  0.73928666  0.37973111  1
  O  O310  1  0.24328663  0.74494061  0.88870069  1
  O  O311  1  0.73763602  0.25588034  0.38102785  1
  O  O312  1  0.75421573  0.24248465  0.87424633  1
  O  O313  1  0.75062490  0.73585338  0.37173290  1
  O  O314  1  0.73950284  0.74608620  0.87960075  1
  O  O315  1  -0.00066941  0.12678860  0.00172734  1
  O  O316  1  0.00222888  0.12696688  0.51065465  1
  O  O317  1  0.00121027  0.61616919  0.01182007  1
  O  O318  1  0.00166796  0.61487496  0.50738032  1
  O  O319  1  0.50819481  0.12084280  0.00377579  1
  O  O320  1  0.50732683  0.11754357  0.50311714  1
  O  O321  1  0.50415721  0.61881809  0.00828165  1
  O  O322  1  0.50728998  0.61720646  0.50474799  1
  O  O323  1  0.50601591  0.38674477  0.49271760  1
  O  O324  1  0.50239813  0.38158261  0.98475419  1
  O  O325  1  0.49276453  0.88144842  0.49238885  1
  O  O326  1  0.49387456  0.88227625  0.99937761  1
  O  O327  1  0.99088564  0.37637724  0.49868718  1
  O  O328  1  0.99520980  0.39213280  1.00700644  1
  O  O329  1  0.99807174  0.87150116  0.50869125  1
  O  O330  1  0.98222093  0.86660526  1.00826752  1
  O  O331  1  0.50631598  0.49070887  0.38135214  1
  O  O332  1  0.50207913  0.48742206  0.88172312  1
  O  O333  1  0.49801988  0.99590938  0.38567092  1
  O  O334  1  0.48782813  0.99956855  0.88059771  1
  O  O335  1  0.99842341  0.49087325  0.38287396  1
  O  O336  1  0.99058169  0.51036532  0.88320305  1
  O  O337  1  0.99678804  0.99519289  0.36399291  1
  O  O338  1  1.00970777  1.01070183  0.88548071  1
  O  O339  1  0.00707856  0.00932846  0.12724902  1
  O  O340  1  0.00500131  0.01691268  0.63143377  1
  O  O341  1  0.00016991  0.50853832  0.12162822  1
  O  O342  1  0.00501446  0.50261182  0.62186463  1
  O  O343  1  0.50506296  0.00516995  0.12062400  1
  O  O344  1  0.50660612  0.00616044  0.61403370  1
  O  O345  1  0.50723017  0.50660497  0.11749418  1
  O  O346  1  0.50432257  0.50673567  0.61110553  1
  O  O347  1  0.24429802  0.37362071  0.24243377  1
  O  O348  1  0.25230159  0.37686917  0.73463202  1
  O  O349  1  0.25631620  0.88227970  0.24015447  1
  O  O350  1  0.23853394  0.86957013  0.75146125  1
  O  O351  1  0.74243758  0.38273885  0.24700422  1
  O  O352  1  0.74413124  0.37971278  0.74173036  1
  O  O353  1  0.75226476  0.88305114  0.24174768  1
  O  O354  1  0.74157618  0.88097782  0.74254705  1
  O  O355  1  0.25889655  0.11840769  0.24084696  1
  O  O356  1  0.25281080  0.12629734  0.76410921  1
  O  O357  1  0.25807238  0.62064402  0.25775583  1
  O  O358  1  0.24769671  0.63005228  0.76716941  1
  O  O359  1  0.75859332  0.11509271  0.24302234  1
  O  O360  1  0.75990806  0.11763920  0.74183199  1
  O  O361  1  0.74864436  0.61770776  0.26194593  1
  O  O362  1  0.75220644  0.61828394  0.75120247  1
  O  O363  1  0.38069643  0.12608751  0.36085460  1
  O  O364  1  0.36745564  0.12111966  0.87049498  1
  O  O365  1  0.36662273  0.63318044  0.36622933  1
  O  O366  1  0.35637682  0.62916848  0.88449940  1
  O  O367  1  0.87805139  0.12510071  0.36152602  1
  O  O368  1  0.87667741  0.11754573  0.85770706  1
  O  O369  1  0.85888232  0.62165803  0.38581107  1
  O  O370  1  0.86646798  0.62092938  0.86799766  1
  O  O371  1  0.13610456  0.37026376  0.13301238  1
  O  O372  1  0.13213765  0.38436430  0.61954987  1
  O  O373  1  0.13295544  0.88591768  0.12262036  1
  O  O374  1  0.11595166  0.88583879  0.64203625  1
  O  O375  1  0.62443634  0.38143456  0.13073538  1
  O  O376  1  0.63506733  0.37352371  0.63392595  1
  O  O377  1  0.63553396  0.88189437  0.12406243  1
  O  O378  1  0.63120824  0.87691558  0.62840770  1
  O  O379  1  0.12089690  0.25666924  0.25805064  1
  O  O380  1  0.11424499  0.24343958  0.76107237  1
  O  O381  1  0.11555406  0.74587917  0.26316077  1
  O  O382  1  0.11631239  0.76004204  0.75985518  1
  O  O383  1  0.62218002  0.25419164  0.25374920  1
  O  O384  1  0.61224057  0.25700145  0.74403545  1
  O  O385  1  0.62340103  0.75623311  0.25407296  1
  O  O386  1  0.62245048  0.75797842  0.75655309  1
  O  O387  1  0.37880873  0.24340270  0.23846981  1
  O  O388  1  0.38722643  0.24449764  0.74247958  1
  O  O389  1  0.36869670  0.74336425  0.24186404  1
  O  O390  1  0.38542472  0.73948717  0.75918092  1
  O  O391  1  0.87671728  0.24341145  0.24308819  1
  O  O392  1  0.89167202  0.24207907  0.75110947  1
  O  O393  1  0.88938485  0.75287077  0.24935883  1
  O  O394  1  0.88026169  0.74931657  0.74497574  1
  O  O395  1  0.39423245  0.49805245  0.49798315  1
  O  O396  1  0.38822666  0.50299216  1.00712116  1
  O  O397  1  0.38425193  0.99288954  0.49765036  1
  O  O398  1  0.37921340  0.99733777  0.99613931  1
  O  O399  1  0.88236404  0.49054970  0.49997064  1
  O  O400  1  0.88054865  0.50116156  0.98791299  1
  O  O401  1  0.87596282  0.98272906  0.50093729  1
  O  O402  1  0.87145628  0.98645288  0.99772794  1
  O  O403  1  0.12563585  0.00120067  0.00563893  1
  O  O404  1  0.12948237  0.01016502  0.49706645  1
  O  O405  1  0.11562185  0.50260243  0.00350369  1
  O  O406  1  0.11652863  0.50763091  0.50435233  1
  O  O407  1  0.61958731  0.00663550  0.00536593  1
  O  O408  1  0.62016654  0.00376367  0.50367455  1
  O  O409  1  0.61940136  0.50775239  0.00463397  1
  O  O410  1  0.61322726  0.51376775  0.49356576  1
  O  O411  1  0.36267668  0.36529599  0.13013619  1
  O  O412  1  0.37151850  0.36698672  0.62105109  1
  O  O413  1  0.36955655  0.86836204  0.12275715  1
  O  O414  1  0.38203015  0.87674253  0.61357360  1
  O  O415  1  0.87454032  0.35997388  0.12608696  1
  O  O416  1  0.86159162  0.37602091  0.61134736  1
  O  O417  1  0.86403769  0.87339354  0.11585636  1
  O  O418  1  0.87031413  0.86972857  0.61580312  1
  O  O419  1  0.11923402  0.13676963  0.38810600  1
  O  O420  1  0.12593643  0.11824822  0.88195714  1
  O  O421  1  0.13306662  0.62394653  0.38028292  1
  O  O422  1  0.13397243  0.63954215  0.88086511  1
  O  O423  1  0.62045735  0.13461404  0.38136184  1
  O  O424  1  0.62330571  0.11893144  0.88926477  1
  O  O425  1  0.63732050  0.62508154  0.38189803  1
  O  O426  1  0.62871279  0.63117236  0.87797936  1
