# generated using pymatgen
data_V85Zn86O256
_symmetry_space_group_name_H-M   'P 1'
_cell_length_a   16.95131795
_cell_length_b   16.95063887
_cell_length_c   16.94962166
_cell_angle_alpha   90.01246974
_cell_angle_beta   89.96442577
_cell_angle_gamma   89.99706913
_symmetry_Int_Tables_number   1
_chemical_formula_structural   V85Zn86O256
_chemical_formula_sum   'V85 Zn86 O256'
_cell_volume   4870.22981826
_cell_formula_units_Z   1
loop_
 _symmetry_equiv_pos_site_id
 _symmetry_equiv_pos_as_xyz
  1  'x, y, z'
loop_
 _atom_site_type_symbol
 _atom_site_label
 _atom_site_symmetry_multiplicity
 _atom_site_fract_x
 _atom_site_fract_y
 _atom_site_fract_z
 _atom_site_occupancy
  V  V0  1  0.49925167  0.76059331  0.25825123  1
  V  V1  1  0.75351036  0.25255956  0.49740254  1
  V  V2  1  0.37283029  0.12483295  0.75417263  1
  V  V3  1  0.63682902  0.49424209  0.12592307  1
  V  V4  1  0.24180364  0.25259588  0.49691231  1
  V  V5  1  0.24908666  0.25738386  0.00304492  1
  V  V6  1  0.87214304  0.88786557  0.49851328  1
  V  V7  1  0.62425705  0.37712375  0.75218154  1
  V  V8  1  0.62556377  0.50555300  0.62218976  1
  V  V9  1  0.50450737  0.86931497  0.87131233  1
  V  V10  1  0.37296901  0.37530434  0.50446195  1
  V  V11  1  0.87178618  0.25383579  0.13059781  1
  V  V12  1  0.50157188  0.24947409  0.74512730  1
  V  V13  1  0.24276311  0.12835471  0.37424328  1
  V  V14  1  0.62241300  0.87259480  0.73768533  1
  V  V15  1  0.50209776  0.50339318  0.50061084  1
  V  V16  1  0.12844462  0.24560292  0.87358413  1
  V  V17  1  0.25085219  0.74883123  -0.00254504  1
  V  V18  1  0.50278499  0.24958636  0.25009870  1
  V  V19  1  0.50076128  -0.01039162  0.49920987  1
  V  V20  1  -0.00127057  0.75492304  0.25444367  1
  V  V21  1  0.12265505  0.75080781  0.37175008  1
  V  V22  1  0.87099796  0.75173595  0.12625457  1
  V  V23  1  -0.01203892  0.37166760  0.37452826  1
  V  V24  1  0.37609072  0.74893787  0.12514690  1
  V  V25  1  0.74980051  0.88013904  0.13137101  1
  V  V26  1  0.00063385  0.37554924  0.87394123  1
  V  V27  1  0.13738971  0.37945087  0.74651168  1
  V  V28  1  0.00079865  0.25217741  0.74814845  1
  V  V29  1  0.25117892  0.87506365  0.62490775  1
  V  V30  1  0.25025208  0.00368208  0.75385308  1
  V  V31  1  -0.00053663  0.62484322  0.12982024  1
  V  V32  1  0.49766747  0.12510392  0.11500191  1
  V  V33  1  0.12364893  -0.00632199  0.12665535  1
  V  V34  1  0.12714986  0.74795590  0.87356018  1
  V  V35  1  0.37460096  0.60735198  0.75535251  1
  V  V36  1  0.25374339  0.60915089  0.87327760  1
  V  V37  1  0.87108210  0.75654077  0.62350619  1
  V  V38  1  0.62410630  0.11940356  0.50806856  1
  V  V39  1  0.37231750  0.25924254  0.12568679  1
  V  V40  1  0.74928696  0.12389333  0.87474657  1
  V  V41  1  0.12071521  0.62105824  0.50100155  1
  V  V42  1  0.74856979  0.74693172  0.50115091  1
  V  V43  1  0.64163517  0.37363680  0.24511437  1
  V  V44  1  0.62782110  0.00220706  0.12955272  1
  V  V45  1  0.62503840  0.75172134  0.37996257  1
  V  V46  1  0.12717822  0.49443071  0.14092802  1
  V  V47  1  0.87232836  -0.00089235  0.87534633  1
  V  V48  1  0.37092448  0.50028715  0.36920986  1
  V  V49  1  0.87123731  0.11063212  0.25374854  1
  V  V50  1  0.24690794  0.87403032  0.12453846  1
  V  V51  1  0.12923955  0.12220705  -0.00414326  1
  V  V52  1  0.48597198  0.49510427  -0.00090907  1
  V  V53  1  0.75199668  0.10913514  0.37282351  1
  V  V54  1  0.74747093  0.50560693  0.75896787  1
  V  V55  1  0.36893368  0.24921346  0.62274633  1
  V  V56  1  0.74134543  -0.00313039  0.73825689  1
  V  V57  1  0.87567874  0.25434395  0.62392580  1
  V  V58  1  0.13673664  0.49806571  0.62635434  1
  V  V59  1  -0.00104805  0.49964582  0.00221209  1
  V  V60  1  0.62995423  0.62523641  -0.00596309  1
  V  V61  1  0.12262229  -0.00069182  0.61639574  1
  V  V62  1  0.62451419  0.25172990  0.87528345  1
  V  V63  1  0.00033113  0.88674834  0.38075917  1
  V  V64  1  0.87284091  0.37501542  0.00314249  1
  V  V65  1  0.50288313  0.62994432  0.62973103  1
  V  V66  1  0.50237059  0.62305712  0.13236243  1
  V  V67  1  0.37569743  0.74856363  0.63549192  1
  V  V68  1  0.87286177  0.50324043  0.87641799  1
  V  V69  1  0.75018575  0.25391963  0.00333680  1
  V  V70  1  -0.02012534  0.49462411  0.49914510  1
  V  V71  1  0.25124271  0.74548299  0.49914690  1
  V  V72  1  0.37699303  0.87701007  -0.00336861  1
  V  V73  1  0.86902916  0.63049218  0.75689090  1
  V  V74  1  0.12478798  0.62299426  0.00060994  1
  V  V75  1  0.37529491  0.12177427  0.25219476  1
  V  V76  1  -0.00037041  0.12609627  0.12576225  1
  V  V77  1  0.86433979  0.61417049  0.25583190  1
  V  V78  1  0.00035956  0.74912168  0.74842146  1
  V  V79  1  0.75611816  0.37813349  0.62420392  1
  V  V80  1  -0.00046427  0.12175081  0.61572754  1
  V  V81  1  -0.00004041  0.87538835  0.87538641  1
  V  V82  1  0.62752444  0.24841986  0.37507311  1
  V  V83  1  0.87589595  0.12510276  0.74897000  1
  V  V84  1  0.24753418  -0.00934645  0.25268447  1
  Zn  Zn85  1  -0.00024987  -0.00040153  -0.00162343  1
  Zn  Zn86  1  0.62820911  0.88333181  0.25698891  1
  Zn  Zn87  1  0.24263235  0.61756332  0.36432684  1
  Zn  Zn88  1  0.12541495  0.87567222  0.74823253  1
  Zn  Zn89  1  0.50292774  0.11866095  0.62527488  1
  Zn  Zn90  1  0.63079356  0.74842558  0.86857509  1
  Zn  Zn91  1  0.50229412  -0.00116524  -0.00234996  1
  Zn  Zn92  1  0.87197636  0.87511532  0.00043330  1
  Zn  Zn93  1  0.75007102  0.74980386  -0.00392233  1
  Zn  Zn94  1  0.00127258  0.24864717  0.25980308  1
  Zn  Zn95  1  0.12027747  0.12516170  0.49413338  1
  Zn  Zn96  1  0.38144320  0.86673362  0.49427681  1
  Zn  Zn97  1  0.47999237  0.38725025  0.87245263  1
  Zn  Zn98  1  0.74965168  0.61666167  0.38216327  1
  Zn  Zn99  1  0.37556176  0.00444371  0.87581655  1
  Zn  Zn100  1  0.37145088  0.62085836  0.24811819  1
  Zn  Zn101  1  0.14773309  0.34065107  0.28638874  1
  Zn  Zn102  1  -0.00089589  0.62261264  0.62568865  1
  Zn  Zn103  1  0.25173478  0.38046043  0.13747210  1
  Zn  Zn104  1  0.50499674  0.37606952  0.37677163  1
  Zn  Zn105  1  0.37961145  -0.01100468  0.37368671  1
  Zn  Zn106  1  0.62520292  0.12439726  -0.00039129  1
  Zn  Zn107  1  0.18695626  0.18397537  0.18755185  1
  Zn  Zn108  1  0.18760153  0.18690858  0.68462526  1
  Zn  Zn109  1  0.18748691  0.68534667  0.19032580  1
  Zn  Zn110  1  0.18977490  0.68226628  0.68865120  1
  Zn  Zn111  1  0.68992679  0.18368242  0.18732796  1
  Zn  Zn112  1  0.69036346  0.18782784  0.68797733  1
  Zn  Zn113  1  0.68368805  0.68996974  0.18679879  1
  Zn  Zn114  1  0.68926905  0.69152845  0.68726057  1
  Zn  Zn115  1  0.31920853  0.31452024  0.31517864  1
  Zn  Zn116  1  0.31053549  0.31380529  0.81297500  1
  Zn  Zn117  1  0.31228094  0.80850587  0.31301247  1
  Zn  Zn118  1  0.31312043  0.81150163  0.81266983  1
  Zn  Zn119  1  0.81952860  0.31152118  0.31643047  1
  Zn  Zn120  1  0.81216048  0.31577549  0.81271093  1
  Zn  Zn121  1  0.81239962  0.81317891  0.31585617  1
  Zn  Zn122  1  0.80566797  0.81458578  0.81588266  1
  Zn  Zn123  1  0.18526554  0.43576068  0.43907294  1
  Zn  Zn124  1  0.18399273  0.43425351  0.94322968  1
  Zn  Zn125  1  0.19071560  0.93365639  0.43612150  1
  Zn  Zn126  1  0.18767924  0.93690032  0.93571901  1
  Zn  Zn127  1  0.69618338  0.43581517  0.43897657  1
  Zn  Zn128  1  0.68309030  0.43682140  0.94039284  1
  Zn  Zn129  1  0.68396657  0.93085841  0.44210011  1
  Zn  Zn130  1  0.68616459  0.93510809  0.94255725  1
  Zn  Zn131  1  0.31097730  0.06527443  0.06253218  1
  Zn  Zn132  1  0.31641415  0.06301988  0.56153479  1
  Zn  Zn133  1  0.30964760  0.56339692  0.06681354  1
  Zn  Zn134  1  0.31399996  0.56419705  0.56062146  1
  Zn  Zn135  1  0.81093376  0.06367555  0.06240815  1
  Zn  Zn136  1  0.81154477  0.06634660  0.56070582  1
  Zn  Zn137  1  0.81166543  0.56392468  0.06661263  1
  Zn  Zn138  1  0.81033000  0.57106954  0.57201010  1
  Zn  Zn139  1  0.44762308  0.43550850  0.18836872  1
  Zn  Zn140  1  0.43761107  0.43485383  0.68482033  1
  Zn  Zn141  1  0.43633155  0.93869267  0.18394302  1
  Zn  Zn142  1  0.44023656  0.93877865  0.68228066  1
  Zn  Zn143  1  0.93752185  0.43563811  0.19158715  1
  Zn  Zn144  1  0.94139963  0.44151520  0.68651441  1
  Zn  Zn145  1  0.93979268  0.93489091  0.18982515  1
  Zn  Zn146  1  0.93602222  0.93780586  0.68694511  1
  Zn  Zn147  1  0.06484734  0.06535734  0.30715133  1
  Zn  Zn148  1  0.06304771  0.06241381  0.80620869  1
  Zn  Zn149  1  0.05229326  0.56185072  0.31952515  1
  Zn  Zn150  1  0.06326692  0.56210543  0.81183838  1
  Zn  Zn151  1  0.56240685  0.06217332  0.31560873  1
  Zn  Zn152  1  0.55955181  0.06087903  0.81535967  1
  Zn  Zn153  1  0.59849514  0.54411041  0.33231014  1
  Zn  Zn154  1  0.55707400  0.56335265  0.81401251  1
  Zn  Zn155  1  0.43758782  0.18270531  0.43652340  1
  Zn  Zn156  1  0.41918511  0.22040673  0.92139632  1
  Zn  Zn157  1  0.43927160  0.68358204  0.43935513  1
  Zn  Zn158  1  0.44344321  0.68603213  0.93704273  1
  Zn  Zn159  1  0.93317742  0.18748296  0.43647190  1
  Zn  Zn160  1  0.93993009  0.18678714  0.93901221  1
  Zn  Zn161  1  0.93487370  0.68572291  0.43804844  1
  Zn  Zn162  1  0.93630655  0.68820612  0.93904351  1
  Zn  Zn163  1  0.06138286  0.31181509  0.06602947  1
  Zn  Zn164  1  0.06141715  0.31825713  0.56055032  1
  Zn  Zn165  1  0.05955092  0.81109296  0.06054934  1
  Zn  Zn166  1  0.06050169  0.81331011  0.56027086  1
  Zn  Zn167  1  0.56120310  0.31461314  0.06193263  1
  Zn  Zn168  1  0.56548483  0.31525104  0.56301587  1
  Zn  Zn169  1  0.56272286  0.81305221  0.06510181  1
  Zn  Zn170  1  0.56376141  0.81097829  0.56509782  1
  O  O171  1  0.11610704  0.11388073  0.11760641  1
  O  O172  1  0.11590212  0.11826277  0.62282244  1
  O  O173  1  0.11330191  0.62053011  0.12172261  1
  O  O174  1  0.12068672  0.61906570  0.61956074  1
  O  O175  1  0.61564757  0.12132596  0.12331019  1
  O  O176  1  0.62746890  0.13066246  0.61082847  1
  O  O177  1  0.61937510  0.61328743  0.12104507  1
  O  O178  1  0.61494111  0.61819090  0.63536119  1
  O  O179  1  0.38453314  0.38397461  0.38677553  1
  O  O180  1  0.38651025  0.32883674  0.88959376  1
  O  O181  1  0.36342992  0.87651947  0.38356891  1
  O  O182  1  0.38184928  0.87468078  0.88128198  1
  O  O183  1  0.88614431  0.37907200  0.37985279  1
  O  O184  1  0.88062997  0.38247201  0.88076896  1
  O  O185  1  0.88734552  0.87134741  0.38716077  1
  O  O186  1  0.88172397  0.88359651  0.87538629  1
  O  O187  1  0.24967061  0.00575935  0.36586409  1
  O  O188  1  0.25280195  -0.00759658  0.85767201  1
  O  O189  1  0.26799953  0.49940158  0.38336603  1
  O  O190  1  0.24642263  0.51009145  0.88360052  1
  O  O191  1  0.74343483  0.01058696  0.37947765  1
  O  O192  1  0.75664799  0.00528097  0.87089881  1
  O  O193  1  0.70712757  0.51329064  0.36514569  1
  O  O194  1  0.75379640  0.49509965  0.86481841  1
  O  O195  1  0.23107324  0.49984885  0.12121512  1
  O  O196  1  0.23634506  0.50439364  0.62048145  1
  O  O197  1  0.24263409  0.99459810  0.13042602  1
  O  O198  1  0.24665431  0.99128356  0.62965021  1
  O  O199  1  0.73570461  0.49935536  0.12476500  1
  O  O200  1  0.74355416  0.49675521  0.63431938  1
  O  O201  1  0.74107249  0.99505296  0.12254219  1
  O  O202  1  0.75376368  1.00563100  0.64060903  1
  O  O203  1  -0.00410068  0.37370652  0.26695285  1
  O  O204  1  0.00437262  0.36898239  0.75594047  1
  O  O205  1  -0.00689962  0.86272977  0.26379736  1
  O  O206  1  -0.00105211  0.86460265  0.75904662  1
  O  O207  1  0.50907100  0.35882933  0.25115895  1
  O  O208  1  0.50478704  0.36775836  0.75369004  1
  O  O209  1  0.49981697  0.86216040  0.24358297  1
  O  O210  1  0.51431014  0.88386352  0.75524038  1
  O  O211  1  0.49427497  0.13316900  0.24353774  1
  O  O212  1  0.49597600  0.13214406  0.74475249  1
  O  O213  1  0.49807421  0.63328665  0.23654793  1
  O  O214  1  0.48575044  0.62239905  0.74447390  1
  O  O215  1  0.98808402  0.12443160  0.24334573  1
  O  O216  1  0.99446426  0.13305173  0.74025779  1
  O  O217  1  0.99072643  0.63441813  0.24594356  1
  O  O218  1  0.99332045  0.63744377  0.75199395  1
  O  O219  1  0.35799878  0.23209415  0.01700167  1
  O  O220  1  0.37264008  0.25582189  0.50546306  1
  O  O221  1  0.37202837  0.75866707  0.00409730  1
  O  O222  1  0.36529964  0.74376534  0.51006729  1
  O  O223  1  0.86850226  0.25372055  0.00572407  1
  O  O224  1  0.86021693  0.24423536  0.50819697  1
  O  O225  1  0.87730828  0.74934739  0.01587169  1
  O  O226  1  0.87228828  0.75559368  0.50868504  1
  O  O227  1  0.13910913  0.24863718  0.50844033  1
  O  O228  1  0.12707420  0.24287148  0.99490969  1
  O  O229  1  0.12782019  0.73837613  0.49636944  1
  O  O230  1  0.12852464  0.74189827  0.99422967  1
  O  O231  1  0.63272808  0.24478727  0.49313041  1
  O  O232  1  0.63154949  0.24968783  0.99234973  1
  O  O233  1  0.63707838  0.75886056  0.49517799  1
  O  O234  1  0.62230880  0.73193555  1.00628240  1
  O  O235  1  0.49375836  0.24382343  0.13007722  1
  O  O236  1  0.49593802  0.25097203  0.63465252  1
  O  O237  1  0.49537187  0.74380797  0.13240931  1
  O  O238  1  0.49147397  0.73757175  0.61911786  1
  O  O239  1  0.99034044  0.23622189  0.12122704  1
  O  O240  1  0.99392164  0.24610024  0.62813203  1
  O  O241  1  0.99625285  0.74445314  0.13446826  1
  O  O242  1  0.99185416  0.74982265  0.63367560  1
  O  O243  1  -0.00520634  0.26541825  0.38113691  1
  O  O244  1  0.00800364  0.25491609  0.87003055  1
  O  O245  1  0.00461212  0.75387294  0.37054851  1
  O  O246  1  0.00427910  0.75621298  0.86915750  1
  O  O247  1  0.50924241  0.24707785  0.36702593  1
  O  O248  1  0.51766682  0.24125966  0.86155461  1
  O  O249  1  0.50134850  0.74688683  0.36324152  1
  O  O250  1  0.50630565  0.76431191  0.87836836  1
  O  O251  1  0.25186002  0.13224023  0.49016598  1
  O  O252  1  0.23401284  0.13243876  1.00604404  1
  O  O253  1  0.24105991  0.63402751  0.49849299  1
  O  O254  1  0.24523838  0.63084170  0.99403824  1
  O  O255  1  0.74348068  0.13104911  0.49270684  1
  O  O256  1  0.75139520  0.13756727  0.99129752  1
  O  O257  1  0.75608174  0.64074749  0.50062730  1
  O  O258  1  0.73330034  0.62361243  1.00591597  1
  O  O259  1  0.24104454  0.36062572  0.01109273  1
  O  O260  1  0.26101858  0.36518083  0.49438146  1
  O  O261  1  0.25645858  0.86839013  0.00266609  1
  O  O262  1  0.24567255  0.86074428  0.51198555  1
  O  O263  1  0.75613128  0.36163072  -0.00662117  1
  O  O264  1  0.74451265  0.36561330  0.51154960  1
  O  O265  1  0.75330771  0.87277257  0.01404448  1
  O  O266  1  0.76638302  0.86599888  0.49555323  1
  O  O267  1  0.11659953  0.50836226  0.23898412  1
  O  O268  1  0.11818766  0.49128379  0.74008912  1
  O  O269  1  0.13519794  1.00385603  0.23812725  1
  O  O270  1  0.13410167  0.99897744  0.73869921  1
  O  O271  1  0.61265320  0.48558308  0.23220329  1
  O  O272  1  0.63086327  0.49802369  0.74630621  1
  O  O273  1  0.61714042  1.00069281  0.23613832  1
  O  O274  1  0.63652852  0.99636322  0.75258692  1
  O  O275  1  0.36750985  0.00614341  0.24941182  1
  O  O276  1  0.36859024  0.00822723  0.74657012  1
  O  O277  1  0.38734626  0.49670742  0.26721533  1
  O  O278  1  0.37582600  0.50814477  0.75021738  1
  O  O279  1  0.87508527  0.01236749  0.24609402  1
  O  O280  1  0.86564113  0.00270577  0.75866822  1
  O  O281  1  0.87513376  0.51602740  0.24369704  1
  O  O282  1  0.86802355  0.51011264  0.75434242  1
  O  O283  1  0.10382684  0.38474348  0.38060766  1
  O  O284  1  0.11837378  0.36837164  0.86909226  1
  O  O285  1  0.11151061  0.86324334  0.38510357  1
  O  O286  1  0.11678135  0.86867090  0.87108102  1
  O  O287  1  0.62443952  0.35976053  0.36870709  1
  O  O288  1  0.62356127  0.36659588  0.86844679  1
  O  O289  1  0.62853550  0.86149455  0.37000134  1
  O  O290  1  0.61787874  0.87745121  0.86764252  1
  O  O291  1  0.38032810  0.12849963  0.13664878  1
  O  O292  1  0.37954564  0.13426486  0.63240993  1
  O  O293  1  0.38331655  0.63265922  0.12372956  1
  O  O294  1  0.37911241  0.62745642  0.63707350  1
  O  O295  1  0.87999706  0.12929609  0.13348143  1
  O  O296  1  0.88102897  0.13066907  0.63042042  1
  O  O297  1  0.88419724  0.63098518  0.13125890  1
  O  O298  1  0.87943993  0.63535560  0.64061065  1
  O  O299  1  0.25685875  0.24989907  0.12124497  1
  O  O300  1  0.26292019  0.24507468  0.61599259  1
  O  O301  1  0.25359812  0.75587346  0.11804631  1
  O  O302  1  0.25509453  0.75413245  0.62029362  1
  O  O303  1  0.75975744  0.24341412  0.11485691  1
  O  O304  1  0.75431362  0.25944692  0.62026508  1
  O  O305  1  0.75713328  0.75624120  0.12166224  1
  O  O306  1  0.76368004  0.75030344  0.62016520  1
  O  O307  1  0.25779016  0.24017471  0.38445678  1
  O  O308  1  0.23381273  0.25046205  0.88481290  1
  O  O309  1  0.23845581  0.74776811  0.38410687  1
  O  O310  1  0.24378771  0.74400063  0.87979266  1
  O  O311  1  0.74595387  0.24412234  0.38306277  1
  O  O312  1  0.74130951  0.24523880  0.87708805  1
  O  O313  1  0.74430214  0.74709308  0.38405461  1
  O  O314  1  0.74452518  0.75220206  0.88270239  1
  O  O315  1  0.00825210  0.12188315  0.00832616  1
  O  O316  1  -0.00018830  0.12894973  0.51130490  1
  O  O317  1  0.00347438  0.62094283  0.01024051  1
  O  O318  1  0.00414527  0.61532924  0.50179215  1
  O  O319  1  0.49659735  0.12869943  0.01164614  1
  O  O320  1  0.51032513  0.12191028  0.50249300  1
  O  O321  1  0.50820704  0.61663968  0.00989844  1
  O  O322  1  0.49413087  0.61107865  0.51392092  1
  O  O323  1  0.49504673  0.38596696  0.50267315  1
  O  O324  1  0.50384005  0.39216923  1.00041138  1
  O  O325  1  0.50175210  0.88575618  0.50207096  1
  O  O326  1  0.49198675  0.87569450  0.99456983  1
  O  O327  1  0.99611445  0.38876746  0.49707086  1
  O  O328  1  0.99386526  0.37985699  0.99432817  1
  O  O329  1  0.99000815  0.87271824  0.48843286  1
  O  O330  1  0.99655849  0.87655251  0.98657823  1
  O  O331  1  0.50077435  0.49879444  0.38723486  1
  O  O332  1  0.50040791  0.50055832  0.89213468  1
  O  O333  1  0.49685493  1.00881227  0.39162220  1
  O  O334  1  0.49501151  0.98948127  0.87911197  1
  O  O335  1  0.99427242  0.49587914  0.39288220  1
  O  O336  1  0.99352146  0.49624003  0.88153956  1
  O  O337  1  1.00831174  0.98461315  0.36949149  1
  O  O338  1  0.99267748  0.99165835  0.87022480  1
  O  O339  1  0.00591958  0.00688420  0.12397652  1
  O  O340  1  0.00913731  0.01002184  0.63296393  1
  O  O341  1  0.00462821  0.50837819  0.12269689  1
  O  O342  1  0.00649625  0.50174691  0.61264791  1
  O  O343  1  0.50363522  0.00960104  0.12095816  1
  O  O344  1  0.49843183  0.00345256  0.60732494  1
  O  O345  1  0.50525218  0.50656446  0.11625171  1
  O  O346  1  0.50746870  0.50738512  0.62363826  1
  O  O347  1  0.24861485  0.37171983  0.25126005  1
  O  O348  1  0.23683781  0.37175485  0.75224460  1
  O  O349  1  0.25256272  0.88404953  0.24164262  1
  O  O350  1  0.24998926  0.87908981  0.73766131  1
  O  O351  1  0.74032465  0.36550952  0.25201056  1
  O  O352  1  0.74470092  0.38432810  0.74420018  1
  O  O353  1  0.75064391  0.87012721  0.23657836  1
  O  O354  1  0.73898131  0.88974053  0.75248638  1
  O  O355  1  0.25800848  0.11556767  0.25437964  1
  O  O356  1  0.25861096  0.11523823  0.74225919  1
  O  O357  1  0.25830641  0.62927936  0.25307033  1
  O  O358  1  0.26357506  0.62536814  0.75908634  1
  O  O359  1  0.76293734  0.12755233  0.25750058  1
  O  O360  1  0.75459650  0.11635549  0.75588511  1
  O  O361  1  0.76372264  0.63142540  0.24555921  1
  O  O362  1  0.75724210  0.61737492  0.74698209  1
  O  O363  1  0.36766399  0.12288927  0.36202837  1
  O  O364  1  0.37866981  0.12754570  0.85830257  1
  O  O365  1  0.37656083  0.60830355  0.37698789  1
  O  O366  1  0.36994568  0.62974169  0.86248074  1
  O  O367  1  0.86883975  0.12592798  0.36199559  1
  O  O368  1  0.87143718  0.11963422  0.86795866  1
  O  O369  1  0.87131387  0.62815905  0.35978898  1
  O  O370  1  0.87924994  0.62033318  0.86438636  1
  O  O371  1  0.11797149  0.39098706  0.12788495  1
  O  O372  1  0.12121900  0.38459376  0.63472720  1
  O  O373  1  0.12727697  0.88649398  0.11716838  1
  O  O374  1  0.13065441  0.88070420  0.62647817  1
  O  O375  1  0.62497033  0.38425029  0.12933260  1
  O  O376  1  0.63446450  0.38288338  0.63368521  1
  O  O377  1  0.63201494  0.88423012  0.12744027  1
  O  O378  1  0.62250037  0.87813213  0.63880155  1
  O  O379  1  0.11297118  0.24305422  0.24416538  1
  O  O380  1  0.12113748  0.25473512  0.75615443  1
  O  O381  1  0.11444292  0.74501750  0.26326832  1
  O  O382  1  0.11641018  0.74953025  0.75448863  1
  O  O383  1  0.62093158  0.25121330  0.25458460  1
  O  O384  1  0.62045924  0.25533571  0.75342205  1
  O  O385  1  0.61150691  0.75398207  0.25327401  1
  O  O386  1  0.63009967  0.76814649  0.74936048  1
  O  O387  1  0.38411451  0.24176268  0.24490250  1
  O  O388  1  0.38166628  0.24509056  0.73948395  1
  O  O389  1  0.38612843  0.74843943  0.24383458  1
  O  O390  1  0.37124885  0.74393200  0.73781752  1
  O  O391  1  0.87902507  0.24181461  0.24189196  1
  O  O392  1  0.87873425  0.24547309  0.74434417  1
  O  O393  1  0.88117626  0.74495099  0.24061356  1
  O  O394  1  0.87894224  0.74840608  0.74590152  1
  O  O395  1  0.38263547  0.49293919  0.49660102  1
  O  O396  1  0.38707605  0.50289669  1.00581217  1
  O  O397  1  0.38803197  0.99885362  0.49777662  1
  O  O398  1  0.37145818  0.98806245  0.99872099  1
  O  O399  1  0.88204106  0.50515452  0.50950788  1
  O  O400  1  0.87837300  0.49666565  0.99762633  1
  O  O401  1  0.87123256  0.98683158  0.50333546  1
  O  O402  1  0.87734198  1.00244797  0.98595407  1
  O  O403  1  0.12375410  0.00620211  0.00409945  1
  O  O404  1  0.13301939  0.00235911  0.51315625  1
  O  O405  1  0.11502988  0.50640068  0.00732334  1
  O  O406  1  0.12232774  0.51100228  0.50644777  1
  O  O407  1  0.62202336  0.00540827  0.01225074  1
  O  O408  1  0.61497556  0.00781855  0.49599258  1
  O  O409  1  0.62075243  0.50718670  0.01027516  1
  O  O410  1  0.61832215  0.49410618  0.51745813  1
  O  O411  1  0.37662924  0.36216785  0.12999312  1
  O  O412  1  0.37899452  0.36630975  0.61324105  1
  O  O413  1  0.36907236  0.86875777  0.11578384  1
  O  O414  1  0.36838704  0.86541805  0.62031841  1
  O  O415  1  0.88197703  0.36204360  0.11970709  1
  O  O416  1  0.86225873  0.37358501  0.63286430  1
  O  O417  1  0.87088301  0.86867002  0.12408523  1
  O  O418  1  0.88382359  0.86897336  0.61057803  1
  O  O419  1  0.13759812  0.12167481  0.37631483  1
  O  O420  1  0.11577500  0.13286033  0.88288454  1
  O  O421  1  0.12285809  0.63075906  0.38439361  1
  O  O422  1  0.13256410  0.62842539  0.87946343  1
  O  O423  1  0.63340386  0.13445149  0.37931329  1
  O  O424  1  0.63330927  0.13127265  0.87643743  1
  O  O425  1  0.62322056  0.64802682  0.37273914  1
  O  O426  1  0.61825446  0.62522680  0.89089644  1
