# generated using pymatgen
data_V85Zn86O256
_symmetry_space_group_name_H-M   'P 1'
_cell_length_a   16.92694043
_cell_length_b   16.91850895
_cell_length_c   16.93010570
_cell_angle_alpha   90.02125154
_cell_angle_beta   90.00252438
_cell_angle_gamma   90.00495708
_symmetry_Int_Tables_number   1
_chemical_formula_structural   V85Zn86O256
_chemical_formula_sum   'V85 Zn86 O256'
_cell_volume   4848.41949488
_cell_formula_units_Z   1
loop_
 _symmetry_equiv_pos_site_id
 _symmetry_equiv_pos_as_xyz
  1  'x, y, z'
loop_
 _atom_site_type_symbol
 _atom_site_label
 _atom_site_symmetry_multiplicity
 _atom_site_fract_x
 _atom_site_fract_y
 _atom_site_fract_z
 _atom_site_occupancy
  V  V0  1  0.74978054  0.87354287  0.62249837  1
  V  V1  1  0.38474814  0.13022530  0.24983395  1
  V  V2  1  0.25131695  0.12565515  0.88081182  1
  V  V3  1  0.75357551  0.51625937  0.75286070  1
  V  V4  1  -0.00935401  0.62562130  0.12563506  1
  V  V5  1  0.50482632  0.62983891  0.13397817  1
  V  V6  1  0.49736339  0.12555212  0.11422773  1
  V  V7  1  0.87564890  0.25709903  0.62285553  1
  V  V8  1  0.12121984  0.62203184  0.50118727  1
  V  V9  1  0.12717772  0.37215312  0.24708887  1
  V  V10  1  0.00134078  0.62902860  0.64391918  1
  V  V11  1  0.49765259  0.35798702  0.36882617  1
  V  V12  1  0.76217974  0.74766778  -0.01204575  1
  V  V13  1  0.37767087  0.49767850  0.37602440  1
  V  V14  1  0.12316014  -0.00059429  0.12595367  1
  V  V15  1  0.12820666  0.37328905  0.75468974  1
  V  V16  1  0.62606331  0.12957910  0.48657899  1
  V  V17  1  0.75551306  0.00182261  0.24661791  1
  V  V18  1  0.75278948  0.37720322  0.62546836  1
  V  V19  1  0.87480033  -0.00773890  0.87757756  1
  V  V20  1  0.62675430  0.37590324  0.75205403  1
  V  V21  1  0.86838522  0.24338970  0.12109791  1
  V  V22  1  0.12276034  0.24835301  0.37831540  1
  V  V23  1  -0.00326814  -0.00544911  0.00071955  1
  V  V24  1  -0.00118794  0.25379250  0.75792531  1
  V  V25  1  0.12468429  0.49483477  0.12400241  1
  V  V26  1  0.25095415  0.49773482  0.24552553  1
  V  V27  1  0.24900991  0.62373500  0.37349511  1
  V  V28  1  0.00179929  -0.00160496  0.49664258  1
  V  V29  1  0.49894162  0.25380120  0.74972612  1
  V  V30  1  0.49969601  0.00077619  0.49821330  1
  V  V31  1  0.82833747  0.43435443  0.44065514  1
  V  V32  1  0.36638085  0.38430782  0.00126276  1
  V  V33  1  0.24633915  0.12823050  0.37518442  1
  V  V34  1  0.37507157  0.00024630  0.37609539  1
  V  V35  1  0.62840200  0.25384100  0.88675541  1
  V  V36  1  0.24953102  -0.00086300  0.25054709  1
  V  V37  1  0.36218593  0.36009958  0.50744686  1
  V  V38  1  0.49980116  0.87153648  0.37029835  1
  V  V39  1  0.62283233  0.50145582  0.62550804  1
  V  V40  1  -0.00343615  0.49292258  -0.00444616  1
  V  V41  1  -0.00247581  0.38247100  0.37755958  1
  V  V42  1  -0.01247556  0.75115972  0.24966650  1
  V  V43  1  0.75951526  0.12733545  0.36730323  1
  V  V44  1  0.62641578  0.00124216  0.62342348  1
  V  V45  1  0.13158739  0.49318296  0.62580888  1
  V  V46  1  0.62806300  0.50302269  0.13212584  1
  V  V47  1  0.62368779  0.86943178  0.24525065  1
  V  V48  1  0.37174536  0.25736923  0.12784369  1
  V  V49  1  0.75063196  0.25040104  0.49380138  1
  V  V50  1  0.87494585  0.12298636  0.74884319  1
  V  V51  1  0.76354436  0.86480835  0.12039385  1
  V  V52  1  0.62887931  0.63151074  -0.01117347  1
  V  V53  1  0.12340200  0.12573946  0.00223705  1
  V  V54  1  -0.00776831  0.24349937  0.24837383  1
  V  V55  1  0.86967881  0.36922150  -0.01159427  1
  V  V56  1  0.74960580  0.00124594  0.74966588  1
  V  V57  1  0.37697435  0.88138613  0.00071093  1
  V  V58  1  0.49611853  0.38342822  0.87930866  1
  V  V59  1  0.12736071  0.00235925  0.62516196  1
  V  V60  1  0.87121336  0.60353541  0.25743218  1
  V  V61  1  0.50423624  0.13176635  0.62584657  1
  V  V62  1  0.75062214  0.12930392  0.88288877  1
  V  V63  1  0.00027666  0.12275555  0.61931486  1
  V  V64  1  0.37771213  0.62324137  0.76432312  1
  V  V65  1  0.11813821  0.87357000  0.25415662  1
  V  V66  1  0.25848960  0.49382744  0.75450646  1
  V  V67  1  0.12511482  0.62754450  0.00089274  1
  V  V68  1  0.62257318  0.74452504  0.37054936  1
  V  V69  1  0.25267467  0.75212120  0.50149993  1
  V  V70  1  0.62365947  0.36109270  0.24867355  1
  V  V71  1  0.37827479  0.12589676  0.75266643  1
  V  V72  1  0.00334615  0.86736426  0.87429824  1
  V  V73  1  0.50956267  0.87983995  0.88330221  1
  V  V74  1  0.11826320  0.75224123  0.37523366  1
  V  V75  1  0.50447540  0.75294155  0.75712944  1
  V  V76  1  0.24890471  0.87093590  0.12488744  1
  V  V77  1  0.74965182  0.74791051  0.49681838  1
  V  V78  1  0.74898769  0.37604561  0.12086586  1
  V  V79  1  0.49541908  0.62744693  0.62270759  1
  V  V80  1  0.87880660  0.87454133  0.49024475  1
  V  V81  1  0.12911619  0.86674212  0.75007225  1
  V  V82  1  0.38026167  0.75162207  0.13248989  1
  V  V83  1  0.62002480  -0.00301918  0.11626647  1
  V  V84  1  0.87373783  0.51438317  0.87013467  1
  Zn  Zn85  1  0.12704487  0.74371824  0.86878538  1
  Zn  Zn86  1  0.25402005  0.62306619  0.87919769  1
  Zn  Zn87  1  0.25305475  -0.00073586  0.75304665  1
  Zn  Zn88  1  0.49514436  0.49650182  0.50011316  1
  Zn  Zn89  1  0.24471696  0.25695324  0.00661496  1
  Zn  Zn90  1  0.49933872  0.50583258  -0.00064032  1
  Zn  Zn91  1  0.37456853  0.87873221  0.50280162  1
  Zn  Zn92  1  0.62619045  0.87194829  0.75418411  1
  Zn  Zn93  1  0.87847749  0.74206676  0.63168233  1
  Zn  Zn94  1  -0.00416740  0.49844324  0.50306969  1
  Zn  Zn95  1  0.18148328  0.18886617  0.53905190  1
  Zn  Zn96  1  0.37830171  0.62931129  0.25207426  1
  Zn  Zn97  1  0.12158755  0.25420006  0.88084606  1
  Zn  Zn98  1  0.37469044  0.75502380  0.62901234  1
  Zn  Zn99  1  0.75151216  0.61096055  0.37399691  1
  Zn  Zn100  1  0.25511669  0.87956654  0.62627421  1
  Zn  Zn101  1  0.25218702  0.74775672  -0.00151386  1
  Zn  Zn102  1  -0.00750193  0.12210984  0.12865088  1
  Zn  Zn103  1  0.88239962  0.00060638  0.36828597  1
  Zn  Zn104  1  0.38088744  0.00356632  0.88241130  1
  Zn  Zn105  1  0.62269714  0.12307665  -0.00141404  1
  Zn  Zn106  1  0.62183314  0.62390060  0.49636575  1
  Zn  Zn107  1  0.18944995  0.18738181  0.18847893  1
  Zn  Zn108  1  0.18970088  0.18722256  0.69992028  1
  Zn  Zn109  1  0.18551905  0.68556902  0.18615566  1
  Zn  Zn110  1  0.19195187  0.68412414  0.68666887  1
  Zn  Zn111  1  0.68716970  0.18638805  0.18208508  1
  Zn  Zn112  1  0.68697501  0.18956587  0.68969850  1
  Zn  Zn113  1  0.69452058  0.68604531  0.18823642  1
  Zn  Zn114  1  0.68305271  0.69016621  0.68498603  1
  Zn  Zn115  1  0.31031836  0.31098280  0.31397302  1
  Zn  Zn116  1  0.31209215  0.31114488  0.81686160  1
  Zn  Zn117  1  0.30911527  0.81280786  0.31402843  1
  Zn  Zn118  1  0.31369412  0.80981821  0.81708872  1
  Zn  Zn119  1  0.80497421  0.30825717  0.30292622  1
  Zn  Zn120  1  0.81110206  0.31471965  0.81041913  1
  Zn  Zn121  1  0.80786044  0.81224661  0.31205225  1
  Zn  Zn122  1  0.81576906  0.80871496  0.80798127  1
  Zn  Zn123  1  0.18842227  0.43446909  0.43631664  1
  Zn  Zn124  1  0.18672878  0.44045723  0.93292602  1
  Zn  Zn125  1  0.18586776  0.93841458  0.43910911  1
  Zn  Zn126  1  0.18944165  0.93831017  0.93770410  1
  Zn  Zn127  1  0.66507815  0.43177992  0.43743832  1
  Zn  Zn128  1  0.68894064  0.44421346  0.94025767  1
  Zn  Zn129  1  0.68811006  0.93820234  0.43355492  1
  Zn  Zn130  1  0.69215849  0.93363379  0.94051546  1
  Zn  Zn131  1  0.31098020  0.06255247  0.06535596  1
  Zn  Zn132  1  0.30674662  0.08572612  0.57564217  1
  Zn  Zn133  1  0.31373272  0.56333056  0.06619158  1
  Zn  Zn134  1  0.31202314  0.55996389  0.56377495  1
  Zn  Zn135  1  0.80988769  0.05795990  0.06145201  1
  Zn  Zn136  1  0.81591493  0.06287231  0.55831510  1
  Zn  Zn137  1  0.81021884  0.56224070  0.06266705  1
  Zn  Zn138  1  0.81128418  0.57179655  0.57227196  1
  Zn  Zn139  1  0.44111258  0.44000497  0.18608572  1
  Zn  Zn140  1  0.43550852  0.43659844  0.68585236  1
  Zn  Zn141  1  0.43879341  0.93938275  0.18827812  1
  Zn  Zn142  1  0.43808850  0.93871651  0.68980195  1
  Zn  Zn143  1  0.93824542  0.42981991  0.18347177  1
  Zn  Zn144  1  0.94229261  0.43995141  0.68956541  1
  Zn  Zn145  1  0.93701592  0.93627228  0.18766035  1
  Zn  Zn146  1  0.92590549  0.90734100  0.69926137  1
  Zn  Zn147  1  0.06099938  0.06370747  0.31272011  1
  Zn  Zn148  1  0.06249517  0.06040769  0.81080408  1
  Zn  Zn149  1  0.06087479  0.56350692  0.31150373  1
  Zn  Zn150  1  0.06468947  0.55490861  0.81671655  1
  Zn  Zn151  1  0.56540463  0.05878268  0.30604897  1
  Zn  Zn152  1  0.56457753  0.06089727  0.81500002  1
  Zn  Zn153  1  0.56272803  0.55747990  0.31039159  1
  Zn  Zn154  1  0.56283778  0.56402321  0.81073242  1
  Zn  Zn155  1  0.43516209  0.18519081  0.43792085  1
  Zn  Zn156  1  0.43606655  0.19746675  0.93963091  1
  Zn  Zn157  1  0.43781236  0.68604953  0.43621931  1
  Zn  Zn158  1  0.44271803  0.69530876  0.94408094  1
  Zn  Zn159  1  0.93698595  0.19093961  0.43822401  1
  Zn  Zn160  1  0.93597213  0.18276428  0.93950592  1
  Zn  Zn161  1  0.93634802  0.68535729  0.43751075  1
  Zn  Zn162  1  0.93963448  0.68603600  0.93845811  1
  Zn  Zn163  1  0.05669253  0.31211126  0.06322639  1
  Zn  Zn164  1  0.05406344  0.32084246  0.56493337  1
  Zn  Zn165  1  0.05742967  0.81104444  0.06531125  1
  Zn  Zn166  1  0.06437242  0.81394424  0.56456467  1
  Zn  Zn167  1  0.55472048  0.31230704  0.06588216  1
  Zn  Zn168  1  0.56068636  0.31398012  0.55881526  1
  Zn  Zn169  1  0.56532961  0.80739830  0.06040249  1
  Zn  Zn170  1  0.56151258  0.81130179  0.55968746  1
  O  O171  1  0.12251544  0.11792276  0.11945298  1
  O  O172  1  0.11240997  0.11995259  0.62465646  1
  O  O173  1  0.11414715  0.61233131  0.12271401  1
  O  O174  1  0.11954535  0.61750392  0.61876110  1
  O  O175  1  0.61579904  0.11721020  0.12232500  1
  O  O176  1  0.62130145  0.11977485  0.61735903  1
  O  O177  1  0.62248331  0.62006141  0.12443286  1
  O  O178  1  0.61305622  0.61835254  0.62408589  1
  O  O179  1  0.38326023  0.37805312  0.37822828  1
  O  O180  1  0.38303506  0.36969117  0.89030712  1
  O  O181  1  0.38341478  0.88028451  0.37489794  1
  O  O182  1  0.38348638  0.87796032  0.88557299  1
  O  O183  1  0.87863779  0.37262380  0.37160401  1
  O  O184  1  0.87041289  0.37961322  0.88543755  1
  O  O185  1  0.86869337  0.87758391  0.38614909  1
  O  O186  1  0.88472718  0.88757766  0.87394136  1
  O  O187  1  0.25400143  0.00182631  0.36603838  1
  O  O188  1  0.25550090  0.01327492  0.87770022  1
  O  O189  1  0.25447565  0.50302218  0.36458003  1
  O  O190  1  0.24729887  0.50511266  0.85954837  1
  O  O191  1  0.74975794  0.00781565  0.36404951  1
  O  O192  1  0.75704568  0.00402267  0.87165564  1
  O  O193  1  0.75544024  0.49063846  0.39056363  1
  O  O194  1  0.76272053  0.49915336  0.86691307  1
  O  O195  1  0.24154422  0.50390478  0.13799069  1
  O  O196  1  0.23862903  0.50639523  0.63645945  1
  O  O197  1  0.24362734  0.99242206  0.13269931  1
  O  O198  1  0.24039551  1.00227517  0.62683328  1
  O  O199  1  0.74336727  0.48665384  0.12174841  1
  O  O200  1  0.74406835  0.49603755  0.63100484  1
  O  O201  1  0.74355691  0.98957179  0.12833949  1
  O  O202  1  0.74016160  0.99865867  0.62483429  1
  O  O203  1  0.00898644  0.36654891  0.25452138  1
  O  O204  1  0.00962119  0.36304943  0.74452958  1
  O  O205  1  0.00900935  0.86651296  0.24519666  1
  O  O206  1  0.01843604  0.88966648  0.76571432  1
  O  O207  1  0.50666769  0.37721881  0.26001707  1
  O  O208  1  0.50396233  0.37046043  0.75667290  1
  O  O209  1  0.50892629  0.87950670  0.26162923  1
  O  O210  1  0.50143388  0.86952055  0.76144311  1
  O  O211  1  0.48860261  0.11990356  0.24325136  1
  O  O212  1  0.50060319  0.13375881  0.74662461  1
  O  O213  1  0.49869979  0.62233378  0.23849257  1
  O  O214  1  0.49531007  0.63126410  0.74519953  1
  O  O215  1  1.00052482  0.13861286  0.24862019  1
  O  O216  1  0.99371662  0.12975986  0.73950157  1
  O  O217  1  0.98940323  0.62897633  0.24530132  1
  O  O218  1  1.01008255  0.62598523  0.74254596  1
  O  O219  1  0.37109906  0.26366641  0.00920506  1
  O  O220  1  0.37611132  0.26062934  0.49686941  1
  O  O221  1  0.37410004  0.76143327  0.01359637  1
  O  O222  1  0.36114647  0.74925823  0.49602887  1
  O  O223  1  0.88169218  0.25939037  0.00602150  1
  O  O224  1  0.86162811  0.24598920  0.50943986  1
  O  O225  1  0.86124373  0.74038527  0.00273300  1
  O  O226  1  0.86885862  0.75648375  0.50352703  1
  O  O227  1  0.11069726  0.25388901  0.48529135  1
  O  O228  1  0.12347831  0.24215075  1.00111533  1
  O  O229  1  0.13200078  0.74443347  0.49292796  1
  O  O230  1  0.12292998  0.73437494  1.00630745  1
  O  O231  1  0.63936853  0.24267885  0.50570762  1
  O  O232  1  0.62015039  0.24959970  0.98940681  1
  O  O233  1  0.63235684  0.74759292  0.49058492  1
  O  O234  1  0.63605722  0.73695361  1.00243372  1
  O  O235  1  0.48577503  0.23945488  0.12423755  1
  O  O236  1  0.51059607  0.24353320  0.63604347  1
  O  O237  1  0.49333123  0.74347804  0.12450540  1
  O  O238  1  0.49767073  0.74304212  0.63004174  1
  O  O239  1  0.98919357  0.24842326  0.13224722  1
  O  O240  1  0.99130869  0.24334598  0.62949690  1
  O  O241  1  1.00348802  0.73732261  0.13633514  1
  O  O242  1  1.00628157  0.73046209  0.61847731  1
  O  O243  1  0.00156280  0.25780601  0.36680315  1
  O  O244  1  -0.00050722  0.24090697  0.86086894  1
  O  O245  1  0.01207964  0.74391826  0.36829261  1
  O  O246  1  0.00388411  0.76358670  0.88281407  1
  O  O247  1  0.49605614  0.25917373  0.37094334  1
  O  O248  1  0.50906630  0.26120121  0.86953347  1
  O  O249  1  0.51293359  0.75597360  0.37833288  1
  O  O250  1  0.49734955  0.76498990  0.86895229  1
  O  O251  1  0.24776034  0.11057386  0.47681764  1
  O  O252  1  0.23831280  0.12528903  0.99898088  1
  O  O253  1  0.23948391  0.62971269  0.49540099  1
  O  O254  1  0.23926130  0.62208707  1.00180655  1
  O  O255  1  0.74413858  0.13122527  0.49103428  1
  O  O256  1  0.74771684  0.12229277  0.98611848  1
  O  O257  1  0.74923652  0.63722498  0.49870025  1
  O  O258  1  0.74045566  0.63616570  1.00556167  1
  O  O259  1  0.26197041  0.37794130  -0.00383082  1
  O  O260  1  0.26196292  0.37164713  0.49568837  1
  O  O261  1  0.25680111  0.87337583  0.00902047  1
  O  O262  1  0.25143481  0.86511567  0.50018242  1
  O  O263  1  0.75739911  0.37663194  0.00690593  1
  O  O264  1  0.75411320  0.37190904  0.49941391  1
  O  O265  1  0.74734623  0.86135906  0.01132293  1
  O  O266  1  0.75186281  0.86524256  0.50140349  1
  O  O267  1  0.12863041  0.49350253  0.24316553  1
  O  O268  1  0.13201445  0.49097904  0.74476111  1
  O  O269  1  0.12629027  0.99131836  0.24659350  1
  O  O270  1  0.12869504  0.99742129  0.73857701  1
  O  O271  1  0.62181704  0.48931083  0.23677936  1
  O  O272  1  0.63241879  0.49757430  0.74210296  1
  O  O273  1  0.63526251  0.98795516  0.24125480  1
  O  O274  1  0.63117563  0.99982689  0.73944950  1
  O  O275  1  0.36898989  0.00667597  0.25623033  1
  O  O276  1  0.37830150  0.01526496  0.75546077  1
  O  O277  1  0.36642343  0.49778336  0.25836912  1
  O  O278  1  0.36901036  0.50765170  0.74678728  1
  O  O279  1  0.86170369  -0.00372838  0.25041407  1
  O  O280  1  0.86903013  0.00244118  0.75653438  1
  O  O281  1  0.87954781  0.50497020  0.25110575  1
  O  O282  1  0.86914209  0.49434149  0.76280411  1
  O  O283  1  0.11664079  0.36817887  0.36723177  1
  O  O284  1  0.12492499  0.37303287  0.86154029  1
  O  O285  1  0.12866984  0.86581134  0.36470809  1
  O  O286  1  0.12104913  0.87400387  0.86910936  1
  O  O287  1  0.61111088  0.37199976  0.36015499  1
  O  O288  1  0.62165175  0.37082144  0.87189837  1
  O  O289  1  0.61987272  0.86851762  0.36594131  1
  O  O290  1  0.61367806  0.87852196  0.87562606  1
  O  O291  1  0.38044924  0.12954311  0.13131551  1
  O  O292  1  0.39934970  0.11827867  0.63683845  1
  O  O293  1  0.38538680  0.63351468  0.12588092  1
  O  O294  1  0.38613362  0.62421828  0.63142239  1
  O  O295  1  0.87137569  0.13851285  0.11719203  1
  O  O296  1  0.87688759  0.13459279  0.63063546  1
  O  O297  1  0.88435515  0.61652890  0.13691996  1
  O  O298  1  0.89526943  0.62464114  0.62837281  1
  O  O299  1  0.26469255  0.24618299  0.12400413  1
  O  O300  1  0.26071117  0.19050465  0.61494588  1
  O  O301  1  0.25510688  0.75620572  0.12371638  1
  O  O302  1  0.25277246  0.75105440  0.61429195  1
  O  O303  1  0.75588161  0.26163338  0.12719480  1
  O  O304  1  0.75602685  0.25756005  0.61984340  1
  O  O305  1  0.74905279  0.76179935  0.11988303  1
  O  O306  1  0.75087951  0.75808745  0.61675465  1
  O  O307  1  0.23674928  0.24160875  0.37010705  1
  O  O308  1  0.24664040  0.23786322  0.88199794  1
  O  O309  1  0.23895896  0.74369735  0.37928786  1
  O  O310  1  0.24602821  0.74244540  0.88100306  1
  O  O311  1  0.75138471  0.24217001  0.38124419  1
  O  O312  1  0.74065363  0.24130283  0.86699683  1
  O  O313  1  0.73834967  0.74857691  0.38064147  1
  O  O314  1  0.75490774  0.75834702  0.88794541  1
  O  O315  1  0.01006954  0.11497641  0.00148768  1
  O  O316  1  -0.00917625  0.11853590  0.51168825  1
  O  O317  1  0.00291818  0.61416655  0.00876509  1
  O  O318  1  0.01320719  0.61993911  0.49790199  1
  O  O319  1  0.49818198  0.12609431  0.01016836  1
  O  O320  1  0.50892374  0.12408891  0.50652572  1
  O  O321  1  0.51402199  0.62772170  0.00937668  1
  O  O322  1  0.49996079  0.62067003  0.50867915  1
  O  O323  1  0.49835905  0.37561310  0.48269918  1
  O  O324  1  0.49138480  0.37881003  0.99394637  1
  O  O325  1  0.50119092  0.88137912  0.48662158  1
  O  O326  1  0.49562628  0.87007876  0.98993183  1
  O  O327  1  0.99396474  0.37948789  0.48788885  1
  O  O328  1  0.98852640  0.38724484  1.00573971  1
  O  O329  1  0.98950838  0.88331645  0.50709531  1
  O  O330  1  1.00775324  0.88742415  0.99312957  1
  O  O331  1  0.49039402  0.49256388  0.37543297  1
  O  O332  1  0.50667763  0.48709025  0.87655729  1
  O  O333  1  0.49702512  0.99347612  0.37782621  1
  O  O334  1  0.49933928  0.98539830  0.87365780  1
  O  O335  1  1.00349402  0.48642835  0.37444802  1
  O  O336  1  0.98650638  0.49945329  0.88248919  1
  O  O337  1  1.00136614  1.00595350  0.39055369  1
  O  O338  1  0.99386230  0.99622639  0.88284544  1
  O  O339  1  0.00297164  0.00160663  0.11839988  1
  O  O340  1  0.00397645  0.00807958  0.61683646  1
  O  O341  1  0.00514247  0.50432998  0.11877998  1
  O  O342  1  0.01219735  0.51046298  0.62561083  1
  O  O343  1  0.50973707  0.00880274  0.13058368  1
  O  O344  1  0.51309062  0.00515014  0.62010003  1
  O  O345  1  0.50863927  0.51025365  0.12114917  1
  O  O346  1  0.50797887  0.50689697  0.62602308  1
  O  O347  1  0.23505691  0.38163416  0.25575530  1
  O  O348  1  0.24549569  0.37989847  0.75157950  1
  O  O349  1  0.23901612  0.87883945  0.24458569  1
  O  O350  1  0.24416955  0.87995429  0.75119056  1
  O  O351  1  0.73138520  0.37352208  0.24268418  1
  O  O352  1  0.74289220  0.38230205  0.74272277  1
  O  O353  1  0.74409789  0.87863250  0.23803687  1
  O  O354  1  0.74420486  0.88284916  0.73883975  1
  O  O355  1  0.25789464  0.11751953  0.25611538  1
  O  O356  1  0.26298718  0.12325966  0.76478807  1
  O  O357  1  0.24993334  0.61588967  0.25608696  1
  O  O358  1  0.26282634  0.61828000  0.75163224  1
  O  O359  1  0.74090399  0.11540397  0.25626732  1
  O  O360  1  0.75470896  0.11973409  0.75780856  1
  O  O361  1  0.76737086  0.62300073  0.25155696  1
  O  O362  1  0.74999952  0.61588591  0.74156391  1
  O  O363  1  0.36964062  0.12090473  0.36611962  1
  O  O364  1  0.37154159  0.12597319  0.87325458  1
  O  O365  1  0.36917823  0.61587125  0.37202105  1
  O  O366  1  0.38173333  0.62709038  0.86741596  1
  O  O367  1  0.86258326  0.12382551  0.37553397  1
  O  O368  1  0.86858781  0.11674792  0.86868986  1
  O  O369  1  0.87427852  0.62183183  0.36213579  1
  O  O370  1  0.87725208  0.61344732  0.87349905  1
  O  O371  1  0.11919077  0.38608629  0.13120438  1
  O  O372  1  0.12225104  0.38334763  0.63437471  1
  O  O373  1  0.12908503  0.87877392  0.13271191  1
  O  O374  1  0.12730301  0.88301197  0.63438538  1
  O  O375  1  0.62656401  0.37962296  0.13048790  1
  O  O376  1  0.62917243  0.38369373  0.62972733  1
  O  O377  1  0.62772191  0.87917860  0.13033670  1
  O  O378  1  0.63402044  0.88368222  0.62054747  1
  O  O379  1  0.11757905  0.25709123  0.25372932  1
  O  O380  1  0.11730093  0.25548292  0.75203099  1
  O  O381  1  0.11725480  0.75471697  0.25647521  1
  O  O382  1  0.12983873  0.76259611  0.74800268  1
  O  O383  1  0.62014416  0.26246341  0.24050486  1
  O  O384  1  0.61644449  0.25635368  0.75854162  1
  O  O385  1  0.63163567  0.76089304  0.25548265  1
  O  O386  1  0.61002033  0.75262506  0.74624214  1
  O  O387  1  0.37004405  0.24129970  0.24337441  1
  O  O388  1  0.38985057  0.24077750  0.75754477  1
  O  O389  1  0.36930441  0.75018409  0.23784632  1
  O  O390  1  0.38570916  0.74125277  0.74953584  1
  O  O391  1  0.88197652  0.25664046  0.23619900  1
  O  O392  1  0.88099384  0.24549912  0.74310349  1
  O  O393  1  0.88588345  0.74777120  0.25638743  1
  O  O394  1  0.88977885  0.79761525  0.72838992  1
  O  O395  1  0.37183124  0.49309385  0.48673148  1
  O  O396  1  0.37829719  0.48859429  1.00547803  1
  O  O397  1  0.38443920  1.00454121  0.49146862  1
  O  O398  1  0.37376770  0.98596662  1.00582653  1
  O  O399  1  0.87544507  0.50026921  0.50510227  1
  O  O400  1  0.87802646  0.49612160  0.98900050  1
  O  O401  1  0.88255099  0.99408700  0.49359825  1
  O  O402  1  0.88517374  1.00539745  0.99112718  1
  O  O403  1  0.11892311  0.00617946  0.00657752  1
  O  O404  1  0.11586303  -0.00756806  0.51366039  1
  O  O405  1  0.11662045  0.50358622  0.00569232  1
  O  O406  1  0.12720171  0.50539566  0.50787672  1
  O  O407  1  0.62982550  0.00025158  0.01272472  1
  O  O408  1  0.62163050  0.00942738  0.50427037  1
  O  O409  1  0.62647848  0.51339196  0.01119248  1
  O  O410  1  0.62063327  0.50247036  0.51390976  1
  O  O411  1  0.38072724  0.37025625  0.11407957  1
  O  O412  1  0.38180706  0.37800971  0.60510975  1
  O  O413  1  0.37077758  0.87025188  0.12318723  1
  O  O414  1  0.37470201  0.87417550  0.62092975  1
  O  O415  1  0.86555971  0.36901778  0.11557777  1
  O  O416  1  0.87171084  0.36451475  0.63030188  1
  O  O417  1  0.86178008  0.87548270  0.12420691  1
  O  O418  1  0.85544757  0.88954871  0.60601799  1
  O  O419  1  0.13191582  0.13682960  0.36609932  1
  O  O420  1  0.13182240  0.12471933  0.88449821  1
  O  O421  1  0.12959574  0.62967945  0.38094883  1
  O  O422  1  0.12267995  0.62436951  0.88763230  1
  O  O423  1  0.62973064  0.12083345  0.38376893  1
  O  O424  1  0.63204049  0.13350462  0.87632480  1
  O  O425  1  0.62953533  0.62946344  0.37324772  1
  O  O426  1  0.62393604  0.62106015  0.89026897  1
