# generated using pymatgen
data_V85Zn86O256
_symmetry_space_group_name_H-M   'P 1'
_cell_length_a   16.95318163
_cell_length_b   16.96378293
_cell_length_c   16.93723236
_cell_angle_alpha   89.99900973
_cell_angle_beta   89.98446427
_cell_angle_gamma   90.00461291
_symmetry_Int_Tables_number   1
_chemical_formula_structural   V85Zn86O256
_chemical_formula_sum   'V85 Zn86 O256'
_cell_volume   4870.98003662
_cell_formula_units_Z   1
loop_
 _symmetry_equiv_pos_site_id
 _symmetry_equiv_pos_as_xyz
  1  'x, y, z'
loop_
 _atom_site_type_symbol
 _atom_site_label
 _atom_site_symmetry_multiplicity
 _atom_site_fract_x
 _atom_site_fract_y
 _atom_site_fract_z
 _atom_site_occupancy
  V  V0  1  0.25612714  0.49571389  0.24184516  1
  V  V1  1  0.25096245  0.74462385  -0.00628477  1
  V  V2  1  0.87584871  0.74962761  0.62832531  1
  V  V3  1  0.75287491  0.50231421  0.26421575  1
  V  V4  1  0.87283644  0.49560500  0.88653414  1
  V  V5  1  0.25539310  0.86587896  0.13000504  1
  V  V6  1  0.12418727  0.62205949  0.49720210  1
  V  V7  1  0.87293757  0.00558533  0.38298616  1
  V  V8  1  0.62302699  0.37500042  0.75213671  1
  V  V9  1  0.75067446  0.87225468  0.62509724  1
  V  V10  1  0.37417261  0.75115795  0.62377205  1
  V  V11  1  0.24578180  0.38232348  0.62539637  1
  V  V12  1  0.63538074  0.23771593  0.38826456  1
  V  V13  1  0.62363689  0.00321347  0.61340665  1
  V  V14  1  -0.00135077  0.75003345  0.25046982  1
  V  V15  1  0.49128630  0.49770679  -0.00774476  1
  V  V16  1  0.37513038  0.12542520  0.75471738  1
  V  V17  1  -0.00291060  0.38443321  0.37392898  1
  V  V18  1  0.50101614  0.62120951  0.62344147  1
  V  V19  1  0.12546673  0.75094541  0.37335160  1
  V  V20  1  0.00019315  0.62598065  0.62822954  1
  V  V21  1  0.12454392  0.62321348  -0.00454334  1
  V  V22  1  0.00179344  0.86757923  0.87635690  1
  V  V23  1  0.62712118  0.62792879  0.48614340  1
  V  V24  1  0.36856844  0.62548817  0.76179844  1
  V  V25  1  0.49763824  0.12608796  0.12332651  1
  V  V26  1  0.50087215  0.24985126  0.24580172  1
  V  V27  1  0.24245074  0.24860314  0.50327991  1
  V  V28  1  0.62767847  0.62687136  0.00254162  1
  V  V29  1  0.62809519  0.50096661  0.12529673  1
  V  V30  1  0.62901198  0.86483508  0.24615932  1
  V  V31  1  -0.00265313  0.24890672  0.25357545  1
  V  V32  1  0.12561254  0.87535832  0.25109053  1
  V  V33  1  -0.00408106  -0.00714019  0.00214964  1
  V  V34  1  0.25068327  0.12652119  0.37525686  1
  V  V35  1  0.74968231  0.74648462  0.48750834  1
  V  V36  1  0.85590823  0.23089506  0.60881299  1
  V  V37  1  0.87670647  0.12251275  0.75518890  1
  V  V38  1  0.11998316  0.37806442  0.75087438  1
  V  V39  1  0.36564079  -0.00261308  0.87478155  1
  V  V40  1  0.74803095  0.00437975  0.75381751  1
  V  V41  1  0.50684090  0.24628333  0.75248774  1
  V  V42  1  0.62707739  0.75208414  0.87620604  1
  V  V43  1  0.75349778  0.37227381  0.11373913  1
  V  V44  1  -0.00132078  0.12264620  0.12658547  1
  V  V45  1  0.12441525  0.10857296  0.50663291  1
  V  V46  1  0.75297834  0.38025488  0.62174116  1
  V  V47  1  0.37497968  0.24952089  0.62812462  1
  V  V48  1  0.50639599  0.87046905  0.37939332  1
  V  V49  1  0.63768400  0.12837671  -0.00305138  1
  V  V50  1  0.87246072  -0.00601515  0.87907387  1
  V  V51  1  0.87241606  0.62213096  0.26355536  1
  V  V52  1  0.87097583  0.25044614  0.11203429  1
  V  V53  1  0.37580165  0.86858979  0.00708136  1
  V  V54  1  0.13559140  0.12231452  -0.00934147  1
  V  V55  1  0.25167480  0.75005871  0.49713457  1
  V  V56  1  0.75365632  0.76682059  0.00561195  1
  V  V57  1  0.87303587  0.38150840  0.49685967  1
  V  V58  1  0.86439673  0.12781847  0.25598471  1
  V  V59  1  0.24281113  0.00122236  0.74109705  1
  V  V60  1  0.49882440  0.87467992  0.87594998  1
  V  V61  1  -0.00279567  0.25168497  0.74479325  1
  V  V62  1  -0.00367070  0.62168667  0.12487932  1
  V  V63  1  0.24703576  0.50705909  0.76512506  1
  V  V64  1  0.01058964  0.11248160  0.62492316  1
  V  V65  1  0.74737391  -0.00240244  0.24901253  1
  V  V66  1  0.12180425  0.86726677  0.74375254  1
  V  V67  1  -0.00711453  0.36885115  0.88250020  1
  V  V68  1  0.12778690  -0.00140205  0.12681360  1
  V  V69  1  0.64269801  0.24622716  0.87438575  1
  V  V70  1  0.49442280  0.37326512  0.37418292  1
  V  V71  1  0.62481449  0.87607315  0.75014849  1
  V  V72  1  0.49981849  0.50202156  0.49914563  1
  V  V73  1  0.37299398  0.12742487  0.24777549  1
  V  V74  1  0.87966035  0.62884400  0.75360411  1
  V  V75  1  0.62910270  0.37202116  0.25344890  1
  V  V76  1  0.00052044  0.88302838  0.38393128  1
  V  V77  1  0.49976220  0.00026266  0.00077244  1
  V  V78  1  0.75134027  0.62822915  0.87962266  1
  V  V79  1  0.49907159  0.74877674  0.75017403  1
  V  V80  1  0.37473856  0.37666000  0.50230612  1
  V  V81  1  0.87268646  0.76307068  0.12470272  1
  V  V82  1  0.49241074  0.63028876  0.12777888  1
  V  V83  1  0.12701682  0.37297408  0.24329520  1
  V  V84  1  0.74898937  0.50378736  0.75261317  1
  Zn  Zn85  1  0.49872694  0.01096866  0.49336698  1
  Zn  Zn86  1  0.87764780  0.87874155  0.50321416  1
  Zn  Zn87  1  0.50578411  0.13051510  0.61684668  1
  Zn  Zn88  1  0.12446706  0.49577558  0.12359136  1
  Zn  Zn89  1  0.36727831  0.63663602  0.24860938  1
  Zn  Zn90  1  0.37809062  0.87707566  0.49882136  1
  Zn  Zn91  1  0.16561372  0.27195944  0.90752060  1
  Zn  Zn92  1  0.37421774  0.50324103  0.37222243  1
  Zn  Zn93  1  0.12366662  0.74476127  0.87229130  1
  Zn  Zn94  1  -0.00249246  0.49330826  0.00420786  1
  Zn  Zn95  1  0.62485802  0.50276899  0.62484475  1
  Zn  Zn96  1  0.24595775  0.87664111  0.62009925  1
  Zn  Zn97  1  0.31355350  0.30941828  0.04357449  1
  Zn  Zn98  1  0.37853444  0.00068601  0.37772010  1
  Zn  Zn99  1  0.25240847  0.62248287  0.37142760  1
  Zn  Zn100  1  0.46054397  0.34944975  0.90844544  1
  Zn  Zn101  1  -0.00575820  0.50479901  0.49470355  1
  Zn  Zn102  1  0.12180805  0.50191122  0.62242690  1
  Zn  Zn103  1  0.12327591  0.24876228  0.37647361  1
  Zn  Zn104  1  0.25383160  -0.00009801  0.25171264  1
  Zn  Zn105  1  0.63067926  -0.00182710  0.12413042  1
  Zn  Zn106  1  0.49421655  0.75192022  0.24996842  1
  Zn  Zn107  1  0.18594729  0.18878505  0.18049199  1
  Zn  Zn108  1  0.20157168  0.20465046  0.72004069  1
  Zn  Zn109  1  0.18639331  0.68428040  0.18386163  1
  Zn  Zn110  1  0.18721261  0.68902167  0.68520576  1
  Zn  Zn111  1  0.68656467  0.18810446  0.18575948  1
  Zn  Zn112  1  0.69686187  0.18358917  0.67143710  1
  Zn  Zn113  1  0.69141931  0.68649744  0.18933520  1
  Zn  Zn114  1  0.68709193  0.68716526  0.68458188  1
  Zn  Zn115  1  0.31411011  0.31153135  0.20547954  1
  Zn  Zn116  1  0.31216694  0.31087125  0.86225656  1
  Zn  Zn117  1  0.31982854  0.81102880  0.31291945  1
  Zn  Zn118  1  0.30933796  0.81405611  0.81243494  1
  Zn  Zn119  1  0.81129587  0.31354658  0.31246820  1
  Zn  Zn120  1  0.81423563  0.31267309  0.80532222  1
  Zn  Zn121  1  0.81610867  0.81656152  0.31054942  1
  Zn  Zn122  1  0.81330150  0.81478745  0.81393063  1
  Zn  Zn123  1  0.18750613  0.43644278  0.42882233  1
  Zn  Zn124  1  0.18580666  0.44141295  0.94096334  1
  Zn  Zn125  1  0.19188877  0.93795502  0.43660533  1
  Zn  Zn126  1  0.18659602  0.93386300  0.93795572  1
  Zn  Zn127  1  0.68271801  0.43328553  0.44021521  1
  Zn  Zn128  1  0.68075710  0.43691396  0.93592864  1
  Zn  Zn129  1  0.69177333  0.93273096  0.43193403  1
  Zn  Zn130  1  0.68640755  0.94283616  0.93742567  1
  Zn  Zn131  1  0.31305756  0.06111921  0.06546653  1
  Zn  Zn132  1  0.31743266  0.06321446  0.56208554  1
  Zn  Zn133  1  0.31096301  0.55729327  0.06138108  1
  Zn  Zn134  1  0.31464580  0.56486289  0.56320291  1
  Zn  Zn135  1  0.81528002  0.05922564  0.06688716  1
  Zn  Zn136  1  0.81340689  0.06116727  0.56724786  1
  Zn  Zn137  1  0.81112382  0.56756958  0.06945151  1
  Zn  Zn138  1  0.81229675  0.56376269  0.55938679  1
  Zn  Zn139  1  0.43841434  0.43767107  0.17624252  1
  Zn  Zn140  1  0.41459725  0.41660741  0.72664403  1
  Zn  Zn141  1  0.44198699  0.93983937  0.19160967  1
  Zn  Zn142  1  0.43813349  0.93666396  0.68554001  1
  Zn  Zn143  1  0.93310587  0.43632310  0.18814116  1
  Zn  Zn144  1  0.93371531  0.44142097  0.68565218  1
  Zn  Zn145  1  0.93830051  0.94025177  0.19593865  1
  Zn  Zn146  1  0.93979337  0.93600097  0.68990478  1
  Zn  Zn147  1  0.06199784  0.06446721  0.31552674  1
  Zn  Zn148  1  0.06082000  0.05715821  0.81205315  1
  Zn  Zn149  1  0.06624847  0.56189287  0.30876438  1
  Zn  Zn150  1  0.05792344  0.55979492  0.81537792  1
  Zn  Zn151  1  0.56508382  0.06101430  0.31566025  1
  Zn  Zn152  1  0.56185868  0.06317360  0.81371927  1
  Zn  Zn153  1  0.56140397  0.56001101  0.31056482  1
  Zn  Zn154  1  0.56220770  0.56579100  0.81211456  1
  Zn  Zn155  1  0.43842582  0.18945802  0.43578313  1
  Zn  Zn156  1  0.43986215  0.18041855  0.93612305  1
  Zn  Zn157  1  0.43748515  0.68834674  0.43165563  1
  Zn  Zn158  1  0.43925384  0.68720655  0.94241011  1
  Zn  Zn159  1  0.93963835  0.18799950  0.44007138  1
  Zn  Zn160  1  0.94499237  0.18055285  0.93525614  1
  Zn  Zn161  1  0.93888385  0.69274594  0.43985011  1
  Zn  Zn162  1  0.93566428  0.68812887  0.94315237  1
  Zn  Zn163  1  0.06011242  0.30605554  0.06464261  1
  Zn  Zn164  1  0.05565176  0.30959673  0.56547741  1
  Zn  Zn165  1  0.06364971  0.80974680  0.06318952  1
  Zn  Zn166  1  0.06122900  0.80884030  0.56322216  1
  Zn  Zn167  1  0.56618592  0.31129500  0.06348560  1
  Zn  Zn168  1  0.56417053  0.31434316  0.56438404  1
  Zn  Zn169  1  0.56652871  0.81344772  0.06517260  1
  Zn  Zn170  1  0.56561856  0.81077690  0.56118945  1
  O  O171  1  0.11750590  0.11399729  0.12003532  1
  O  O172  1  0.11447563  0.13143304  0.62237085  1
  O  O173  1  0.11018324  0.62538775  0.11693366  1
  O  O174  1  0.11545391  0.62750308  0.61719589  1
  O  O175  1  0.61637058  0.12463286  0.11438216  1
  O  O176  1  0.62327404  0.10572456  0.63137824  1
  O  O177  1  0.62182384  0.61678790  0.12167863  1
  O  O178  1  0.61545122  0.62453922  0.61922849  1
  O  O179  1  0.38960593  0.37509100  0.38399010  1
  O  O180  1  0.38751550  0.38727712  0.83302347  1
  O  O181  1  0.39060832  0.87902055  0.37583563  1
  O  O182  1  0.38034420  0.87917165  0.88255264  1
  O  O183  1  0.88413350  0.36780781  0.38414805  1
  O  O184  1  0.87975271  0.38488544  0.86741984  1
  O  O185  1  0.88463928  0.88507244  0.37582319  1
  O  O186  1  0.88508860  0.88655317  0.86813639  1
  O  O187  1  0.25141043  0.01350552  0.37314825  1
  O  O188  1  0.26164841  -0.00976169  0.86539243  1
  O  O189  1  0.25171845  0.50195359  0.36035323  1
  O  O190  1  0.24601399  0.50548997  0.86323279  1
  O  O191  1  0.76060229  -0.00366821  0.36347650  1
  O  O192  1  0.75945571  -0.00511748  0.86601567  1
  O  O193  1  0.74353406  0.49375159  0.36303739  1
  O  O194  1  0.75390579  0.50626949  0.87040903  1
  O  O195  1  0.24491955  0.49874915  0.13653143  1
  O  O196  1  0.24607243  0.48939263  0.62017374  1
  O  O197  1  0.24204246  0.98879971  0.12730497  1
  O  O198  1  0.25629877  0.99356716  0.63832384  1
  O  O199  1  0.74077467  0.49522553  0.13133247  1
  O  O200  1  0.75064716  0.49704992  0.63521968  1
  O  O201  1  0.75213182  1.00117141  0.14249058  1
  O  O202  1  0.74108397  0.99139037  0.63210756  1
  O  O203  1  0.00143736  0.36733935  0.25649264  1
  O  O204  1  0.00080346  0.37145668  0.75202515  1
  O  O205  1  0.00746930  0.86969423  0.26018579  1
  O  O206  1  0.01537356  0.88147188  0.75883166  1
  O  O207  1  0.50762314  0.36885138  0.25511902  1
  O  O208  1  0.51838074  0.36503185  0.73954518  1
  O  O209  1  0.51249154  0.87513768  0.25727552  1
  O  O210  1  0.50404935  0.86747920  0.75585463  1
  O  O211  1  0.49733091  0.13062179  0.24285654  1
  O  O212  1  0.49424868  0.12936787  0.74345353  1
  O  O213  1  0.50304667  0.62457223  0.23542244  1
  O  O214  1  0.49293180  0.63024962  0.74254712  1
  O  O215  1  0.99311614  0.13198271  0.24624860  1
  O  O216  1  1.00025043  0.13161952  0.74446712  1
  O  O217  1  0.99532512  0.63004847  0.24376226  1
  O  O218  1  0.99039304  0.62275360  0.74338415  1
  O  O219  1  0.38298467  0.27208025  -0.04247109  1
  O  O220  1  0.36334749  0.25617007  0.51039197  1
  O  O221  1  0.36950008  0.76086861  -0.00065250  1
  O  O222  1  0.36733145  0.75023332  0.50612058  1
  O  O223  1  0.88201466  0.23717101  0.01367472  1
  O  O224  1  0.88135822  0.26135075  0.51008229  1
  O  O225  1  0.86552975  0.74919151  0.01142461  1
  O  O226  1  0.86447525  0.74993682  0.50974914  1
  O  O227  1  0.13514708  0.24721815  0.50486858  1
  O  O228  1  0.11321318  0.22802408  0.99878881  1
  O  O229  1  0.13102122  0.74089507  0.49565053  1
  O  O230  1  0.13289309  0.74235961  0.99843420  1
  O  O231  1  0.62220038  0.25493957  0.48723541  1
  O  O232  1  0.62244416  0.23694571  0.99052701  1
  O  O233  1  0.64133491  0.74306362  0.50483744  1
  O  O234  1  0.63266204  0.74558627  0.99629087  1
  O  O235  1  0.50887936  0.24221533  0.13746611  1
  O  O236  1  0.49293044  0.25165989  0.63413208  1
  O  O237  1  0.50670269  0.73195802  0.12129978  1
  O  O238  1  0.49472449  0.74209435  0.62952141  1
  O  O239  1  0.99081387  0.24459791  0.13685604  1
  O  O240  1  0.98506199  0.24087650  0.63046249  1
  O  O241  1  0.99360725  0.74399786  0.13110228  1
  O  O242  1  0.98550340  0.73988329  0.62083704  1
  O  O243  1  0.00074026  0.25519217  0.36495274  1
  O  O244  1  -0.01092183  0.25730253  0.86073552  1
  O  O245  1  0.00644000  0.75867548  0.36947888  1
  O  O246  1  -0.00233748  0.76430900  0.88199580  1
  O  O247  1  0.50824465  0.25669474  0.36437511  1
  O  O248  1  0.51464482  0.24795652  0.86003804  1
  O  O249  1  0.50081717  0.76537696  0.37255242  1
  O  O250  1  0.50682975  0.75480866  0.87131483  1
  O  O251  1  0.24289283  0.13106402  0.49998480  1
  O  O252  1  0.23502517  0.11705411  1.00279042  1
  O  O253  1  0.24249704  0.63482611  0.49987872  1
  O  O254  1  0.24001776  0.63334160  1.01007303  1
  O  O255  1  0.77344644  0.16533730  0.57196789  1
  O  O256  1  0.73566377  0.11922273  1.00583786  1
  O  O257  1  0.74311728  0.63719980  0.50381346  1
  O  O258  1  0.74504040  0.63226903  0.99571815  1
  O  O259  1  0.24048287  0.34800610  -0.03902234  1
  O  O260  1  0.25225901  0.36847218  0.50533155  1
  O  O261  1  0.25792385  0.86905212  0.00789199  1
  O  O262  1  0.24994011  0.86158325  0.50103822  1
  O  O263  1  0.74147025  0.37923445  0.01492025  1
  O  O264  1  0.75679228  0.38031726  0.51141916  1
  O  O265  1  0.74468047  0.86587195  -0.00095869  1
  O  O266  1  0.75227121  0.86250613  0.50676399  1
  O  O267  1  0.13305811  0.49063930  0.24702515  1
  O  O268  1  0.13089928  0.49917085  0.74645977  1
  O  O269  1  0.12481821  0.99669461  0.23945112  1
  O  O270  1  0.13903485  0.99089512  0.75511288  1
  O  O271  1  0.63030683  0.49236140  0.24319560  1
  O  O272  1  0.63136899  0.49435082  0.75067859  1
  O  O273  1  0.63409283  0.99381069  0.24907199  1
  O  O274  1  0.63236808  0.99442224  0.74784335  1
  O  O275  1  0.37525441  0.01492150  0.25209001  1
  O  O276  1  0.36833300  0.00170665  0.75498253  1
  O  O277  1  0.36292292  0.49829987  0.24797356  1
  O  O278  1  0.35310208  0.51392164  0.73830090  1
  O  O279  1  0.86980442  0.00894329  0.25958426  1
  O  O280  1  0.86851786  0.00324619  0.75614172  1
  O  O281  1  0.86429536  0.50930218  0.24634357  1
  O  O282  1  0.86640156  0.51138107  0.75744643  1
  O  O283  1  0.11467708  0.36977873  0.36479244  1
  O  O284  1  0.11027111  0.37614728  0.86065970  1
  O  O285  1  0.11967474  0.87253456  0.37039366  1
  O  O286  1  0.11821103  0.87257531  0.86643585  1
  O  O287  1  0.61508794  0.37140463  0.36577266  1
  O  O288  1  0.63053065  0.36328348  0.86402157  1
  O  O289  1  0.61566732  0.87782480  0.36288558  1
  O  O290  1  0.61885935  0.87127107  0.87009515  1
  O  O291  1  0.38871565  0.12129431  0.13008210  1
  O  O292  1  0.37237064  0.13781698  0.63456226  1
  O  O293  1  0.39069829  0.61765949  0.12498679  1
  O  O294  1  0.38157060  0.63650126  0.62998927  1
  O  O295  1  0.88076793  0.12952338  0.13584904  1
  O  O296  1  0.89383027  0.12123485  0.63913801  1
  O  O297  1  0.88526795  0.63281572  0.13241804  1
  O  O298  1  0.87941307  0.63025516  0.63294112  1
  O  O299  1  0.25937472  0.24923610  0.12679697  1
  O  O300  1  0.25540432  0.26240117  0.62596549  1
  O  O301  1  0.24365447  0.76265105  0.11651466  1
  O  O302  1  0.25809370  0.75140353  0.61660283  1
  O  O303  1  0.75877929  0.25936166  0.13031676  1
  O  O304  1  0.76025224  0.27880904  0.65348588  1
  O  O305  1  0.76013199  0.74697955  0.11726069  1
  O  O306  1  0.76077843  0.75375484  0.62258244  1
  O  O307  1  0.24551772  0.23581650  0.39016423  1
  O  O308  1  0.23404789  0.24125503  0.82519161  1
  O  O309  1  0.24325763  0.74919524  0.38180434  1
  O  O310  1  0.24782854  0.75452112  0.89007668  1
  O  O311  1  0.73374313  0.25609675  0.37228736  1
  O  O312  1  0.74210540  0.24682924  0.86507433  1
  O  O313  1  0.75748935  0.75332511  0.38937384  1
  O  O314  1  0.74712664  0.74734850  0.88323785  1
  O  O315  1  0.00625043  0.10884474  0.00715024  1
  O  O316  1  0.00927431  0.12851610  0.51512099  1
  O  O317  1  0.00401612  0.62230714  0.00935901  1
  O  O318  1  0.00699923  0.62554013  0.50668382  1
  O  O319  1  0.50474451  0.11921338  0.00700521  1
  O  O320  1  0.49469476  0.12434074  0.50530929  1
  O  O321  1  0.50715075  0.61824281  0.01001462  1
  O  O322  1  0.50679166  0.62431902  0.50545385  1
  O  O323  1  0.49561943  0.38107257  0.49563125  1
  O  O324  1  0.51446055  0.39212672  0.99984218  1
  O  O325  1  0.50491561  0.87588346  0.48835975  1
  O  O326  1  0.49337396  0.87861934  0.99815612  1
  O  O327  1  0.99398133  0.37802836  0.49172984  1
  O  O328  1  1.00367994  0.37172714  0.98607326  1
  O  O329  1  0.99844274  0.86934447  0.48817828  1
  O  O330  1  1.00839929  0.88594239  0.99414874  1
  O  O331  1  0.49923212  0.49076246  0.38053261  1
  O  O332  1  0.50725477  0.50788383  0.89295610  1
  O  O333  1  0.50088782  0.98758717  0.37569781  1
  O  O334  1  0.49114293  0.99268348  0.88021342  1
  O  O335  1  1.00252593  0.48771296  0.37287834  1
  O  O336  1  0.98798196  0.48946944  0.87707679  1
  O  O337  1  0.99043084  0.99219759  0.37052801  1
  O  O338  1  0.99388153  0.99011245  0.88313914  1
  O  O339  1  0.00580583  0.00050068  0.12049082  1
  O  O340  1  0.00368400  0.01326799  0.63212526  1
  O  O341  1  -0.00167560  0.50765470  0.12374016  1
  O  O342  1  -0.00039829  0.51440505  0.62127469  1
  O  O343  1  0.50402412  0.00850197  0.11749277  1
  O  O344  1  0.51650623  -0.00558072  0.62345202  1
  O  O345  1  0.51288063  0.50816902  0.11827060  1
  O  O346  1  0.49772164  0.51534577  0.62022088  1
  O  O347  1  0.23956908  0.38541466  0.25525439  1
  O  O348  1  0.23530891  0.39327123  0.74072988  1
  O  O349  1  0.24458014  0.87741425  0.24495067  1
  O  O350  1  0.23935846  0.88224476  0.74742628  1
  O  O351  1  0.74298029  0.38228839  0.24378459  1
  O  O352  1  0.74443871  0.39215245  0.74871939  1
  O  O353  1  0.73664183  0.88012631  0.25573096  1
  O  O354  1  0.74577051  0.88331299  0.74463865  1
  O  O355  1  0.25682700  0.12646422  0.25832968  1
  O  O356  1  0.26010608  0.10656430  0.74516677  1
  O  O357  1  0.24787906  0.61090039  0.24743567  1
  O  O358  1  0.25244146  0.61584569  0.74566400  1
  O  O359  1  0.76028603  0.12024450  0.24825535  1
  O  O360  1  0.76160538  0.11133187  0.74410166  1
  O  O361  1  0.75975187  0.61542502  0.24795039  1
  O  O362  1  0.75342697  0.61806296  0.75682403  1
  O  O363  1  0.36638500  0.12538601  0.36717039  1
  O  O364  1  0.38126900  0.11142630  0.86197106  1
  O  O365  1  0.37227851  0.62115323  0.36856123  1
  O  O366  1  0.38006895  0.63156862  0.86070834  1
  O  O367  1  0.88094407  0.11846361  0.36870396  1
  O  O368  1  0.88546046  0.11078564  0.86212467  1
  O  O369  1  0.88321117  0.62879459  0.36258347  1
  O  O370  1  0.87124125  0.62012039  0.86955069  1
  O  O371  1  0.11479985  0.37387687  0.13907262  1
  O  O372  1  0.12733095  0.37961568  0.63146889  1
  O  O373  1  0.13166339  0.88083701  0.13068494  1
  O  O374  1  0.12357975  0.86939868  0.63923742  1
  O  O375  1  0.63000683  0.38055597  0.13651412  1
  O  O376  1  0.63543343  0.38086291  0.63166295  1
  O  O377  1  0.62067114  0.87997028  0.14106457  1
  O  O378  1  0.63047602  0.88105166  0.63204348  1
  O  O379  1  0.11411076  0.25389056  0.25118577  1
  O  O380  1  0.10446646  0.26513953  0.73632361  1
  O  O381  1  0.11982778  0.75462848  0.25424161  1
  O  O382  1  0.13029209  0.76309250  0.75450907  1
  O  O383  1  0.62005371  0.25747611  0.25531242  1
  O  O384  1  0.62389844  0.25253904  0.75063390  1
  O  O385  1  0.62406168  0.76209898  0.24624194  1
  O  O386  1  0.62070324  0.75550936  0.75524502  1
  O  O387  1  0.38828946  0.23586907  0.25585055  1
  O  O388  1  0.38720668  0.23829622  0.74458352  1
  O  O389  1  0.37968825  0.74943269  0.24292106  1
  O  O390  1  0.37687554  0.74484629  0.74334139  1
  O  O391  1  0.87987050  0.24255022  0.24699110  1
  O  O392  1  0.87992816  0.23831836  0.73987753  1
  O  O393  1  0.87936832  0.74318414  0.24478943  1
  O  O394  1  0.86750706  0.73675001  0.74486459  1
  O  O395  1  0.38144280  0.49338515  0.49969765  1
  O  O396  1  0.39166984  0.50130689  1.00161739  1
  O  O397  1  0.37803800  0.99374356  0.49854410  1
  O  O398  1  0.37797477  0.99116403  0.99222597  1
  O  O399  1  0.87599126  0.48770022  0.50122702  1
  O  O400  1  0.87272258  0.50601164  0.98911807  1
  O  O401  1  0.86643739  0.99929668  0.48899826  1
  O  O402  1  0.88289455  1.00261488  0.99219493  1
  O  O403  1  0.12054318  0.00264238  0.01063160  1
  O  O404  1  0.13104718  0.00938223  0.50392091  1
  O  O405  1  0.12078684  0.50731715  0.00465114  1
  O  O406  1  0.12437084  0.51361559  0.49734049  1
  O  O407  1  0.61838171  0.01067565  0.00058326  1
  O  O408  1  0.63149576  -0.00495493  0.51222607  1
  O  O409  1  0.62409130  0.50979846  0.00850842  1
  O  O410  1  0.61764757  0.50844528  0.50306553  1
  O  O411  1  0.37484707  0.36507692  0.12521540  1
  O  O412  1  0.36605614  0.36564658  0.62733007  1
  O  O413  1  0.36758698  0.88402868  0.11706472  1
  O  O414  1  0.37615437  0.86044961  0.62396248  1
  O  O415  1  0.86590560  0.36392114  0.12762086  1
  O  O416  1  0.86956189  0.37225029  0.61663569  1
  O  O417  1  0.88115448  0.86209741  0.13444986  1
  O  O418  1  0.87236184  0.86673942  0.62601242  1
  O  O419  1  0.12975607  0.12646191  0.38708866  1
  O  O420  1  0.12201953  0.11269030  0.89126725  1
  O  O421  1  0.12497513  0.63311240  0.38157276  1
  O  O422  1  0.11396328  0.62721522  0.89038767  1
  O  O423  1  0.62450473  0.13869817  0.37388182  1
  O  O424  1  0.62316851  0.12923268  0.88819823  1
  O  O425  1  0.61894843  0.62420779  0.38678682  1
  O  O426  1  0.63151399  0.63385118  0.88066065  1
