# generated using pymatgen
data_V85Zn86O256
_symmetry_space_group_name_H-M   'P 1'
_cell_length_a   16.97363012
_cell_length_b   16.97625222
_cell_length_c   16.96796194
_cell_angle_alpha   89.92051858
_cell_angle_beta   90.02575451
_cell_angle_gamma   89.98244650
_symmetry_Int_Tables_number   1
_chemical_formula_structural   V85Zn86O256
_chemical_formula_sum   'V85 Zn86 O256'
_cell_volume   4889.28948995
_cell_formula_units_Z   1
loop_
 _symmetry_equiv_pos_site_id
 _symmetry_equiv_pos_as_xyz
  1  'x, y, z'
loop_
 _atom_site_type_symbol
 _atom_site_label
 _atom_site_symmetry_multiplicity
 _atom_site_fract_x
 _atom_site_fract_y
 _atom_site_fract_z
 _atom_site_occupancy
  V  V0  1  0.50125310  0.12405560  0.12698722  1
  V  V1  1  -0.00352067  0.25125876  0.74570883  1
  V  V2  1  0.48924385  0.38653231  0.89100336  1
  V  V3  1  0.24908165  0.74744836  0.50397223  1
  V  V4  1  0.50126390  0.25344353  0.25324832  1
  V  V5  1  0.11921268  0.75146635  0.36890222  1
  V  V6  1  0.25409717  0.49998427  0.74328626  1
  V  V7  1  0.12694330  0.01662069  0.11873299  1
  V  V8  1  0.12152243  0.37503499  0.25000774  1
  V  V9  1  0.75214784  0.62630402  0.87549879  1
  V  V10  1  0.12269359  0.50065662  0.12418448  1
  V  V11  1  0.76385293  0.37231023  0.11820278  1
  V  V12  1  0.10258425  0.50207946  0.62332328  1
  V  V13  1  0.24629858  0.12374396  0.88223701  1
  V  V14  1  0.87415614  0.12545830  0.22895460  1
  V  V15  1  0.50450063  0.87708353  0.36850165  1
  V  V16  1  0.62648442  0.25221149  0.37510113  1
  V  V17  1  0.87396570  0.39182560  0.49713121  1
  V  V18  1  0.24851545  0.00086847  0.74192858  1
  V  V19  1  0.49855376  0.87742292  0.87384968  1
  V  V20  1  0.38170481  0.87223595  0.50071695  1
  V  V21  1  0.62160249  0.61834794  -0.00079071  1
  V  V22  1  0.74976591  -0.01325872  0.24544382  1
  V  V23  1  0.61367549  -0.00024119  0.62281818  1
  V  V24  1  0.37228305  0.88015638  0.00487053  1
  V  V25  1  0.75773899  0.36820655  0.63146665  1
  V  V26  1  0.49767342  0.61584451  0.11981877  1
  V  V27  1  0.37472255  0.00466241  0.87376883  1
  V  V28  1  0.87661016  0.00708075  0.37427488  1
  V  V29  1  0.12576118  0.87236100  0.23681318  1
  V  V30  1  0.25358229  0.25161390  0.00217818  1
  V  V31  1  0.75097095  0.75216288  0.49975446  1
  V  V32  1  0.62752906  0.12521270  0.00222009  1
  V  V33  1  0.12265442  0.62892350  0.00106485  1
  V  V34  1  0.37640454  0.25707068  0.12565338  1
  V  V35  1  0.75228775  0.00025077  0.74927102  1
  V  V36  1  0.01721149  0.00286780  0.50159952  1
  V  V37  1  0.10996791  0.62438106  0.50324584  1
  V  V38  1  0.62773428  0.11958644  0.49863577  1
  V  V39  1  0.87731715  0.61900399  0.25223455  1
  V  V40  1  0.37826028  -0.00157111  0.37472870  1
  V  V41  1  0.12580897  0.87932312  0.74295218  1
  V  V42  1  0.49578511  0.13991699  0.62090858  1
  V  V43  1  0.25140224  0.49686256  0.24765372  1
  V  V44  1  0.24681294  0.76091062  -0.00060815  1
  V  V45  1  -0.00715597  0.24513463  0.23782233  1
  V  V46  1  0.62568685  0.75085443  0.87539231  1
  V  V47  1  0.87768233  0.87480498  0.00139179  1
  V  V48  1  0.50836505  0.48783922  0.48503935  1
  V  V49  1  0.00400359  0.74670993  0.74157132  1
  V  V50  1  0.37050610  0.75235468  0.12390777  1
  V  V51  1  0.49775278  0.74719975  0.74715800  1
  V  V52  1  0.87487164  0.12753208  0.74574389  1
  V  V53  1  0.25123062  -0.00331957  0.24468226  1
  V  V54  1  0.62837481  0.37617796  0.24957353  1
  V  V55  1  0.87959294  0.62660676  0.74550201  1
  V  V56  1  0.74941699  0.75683146  0.00503212  1
  V  V57  1  0.00177984  0.87746795  0.36654888  1
  V  V58  1  0.87384894  0.75456982  0.13302055  1
  V  V59  1  0.26525052  0.59293744  0.89469967  1
  V  V60  1  -0.00806543  0.38173675  0.37537443  1
  V  V61  1  -0.00103171  0.63231457  0.12971313  1
  V  V62  1  0.00031362  0.37586567  0.88498455  1
  V  V63  1  0.12955356  0.74883310  0.87068578  1
  V  V64  1  0.37582626  0.62499591  0.25302057  1
  V  V65  1  0.62610964  0.49969274  0.62765844  1
  V  V66  1  0.62513931  0.87553451  0.74917961  1
  V  V67  1  0.25042423  0.63150275  0.37670012  1
  V  V68  1  0.62734846  -0.01486488  0.12764781  1
  V  V69  1  0.32808954  0.45683166  0.41745397  1
  V  V70  1  0.87847472  0.87860666  0.49983981  1
  V  V71  1  0.62731269  0.75403811  0.36439587  1
  V  V72  1  0.75213615  0.87577449  0.62406188  1
  V  V73  1  0.62598031  0.37263019  0.75451839  1
  V  V74  1  0.62430097  0.62757712  0.49983565  1
  V  V75  1  0.76169028  0.24740638  0.50228721  1
  V  V76  1  0.12816167  0.37783086  0.74693380  1
  V  V77  1  0.12428144  0.24907515  0.88268814  1
  V  V78  1  0.12381487  0.24076362  0.37144711  1
  V  V79  1  0.18137528  0.18625926  0.54721965  1
  V  V80  1  0.62329315  0.24821404  0.87718257  1
  V  V81  1  0.00154850  0.01158948  0.00156779  1
  V  V82  1  0.75399095  0.61652523  0.37449722  1
  V  V83  1  0.87714868  0.50068038  0.88181320  1
  V  V84  1  -0.00010994  0.12370847  0.61954630  1
  Zn  Zn85  1  0.00292261  0.87535124  0.87472258  1
  Zn  Zn86  1  0.37189988  0.74061435  0.62558135  1
  Zn  Zn87  1  0.62402789  0.49527378  0.12289578  1
  Zn  Zn88  1  0.37334575  0.12385775  0.25047149  1
  Zn  Zn89  1  0.37644850  0.62125602  0.75272598  1
  Zn  Zn90  1  0.24402027  0.12019853  0.37691874  1
  Zn  Zn91  1  0.38207295  0.32953775  0.54257211  1
  Zn  Zn92  1  0.49835375  0.62159100  0.62606965  1
  Zn  Zn93  1  0.75270600  0.49682020  0.24876806  1
  Zn  Zn94  1  0.24981396  0.87842549  0.62115235  1
  Zn  Zn95  1  0.75128507  0.12386890  0.36992445  1
  Zn  Zn96  1  0.87889879  -0.00358776  0.87222474  1
  Zn  Zn97  1  0.75150518  0.12340308  0.87595120  1
  Zn  Zn98  1  -0.00476139  0.49837068  0.00504124  1
  Zn  Zn99  1  0.50152615  0.00059867  0.00079204  1
  Zn  Zn100  1  0.37287242  0.13295963  0.74251404  1
  Zn  Zn101  1  0.25367830  0.37656512  0.12308911  1
  Zn  Zn102  1  0.88039947  0.74789917  0.62178087  1
  Zn  Zn103  1  0.76945185  0.24243597  0.01369343  1
  Zn  Zn104  1  0.50467555  0.75128116  0.24449211  1
  Zn  Zn105  1  0.48988936  0.25620888  0.75255720  1
  Zn  Zn106  1  0.75179852  0.49863016  0.75324545  1
  Zn  Zn107  1  0.18953452  0.18698719  0.19232436  1
  Zn  Zn108  1  0.19078775  0.19083930  0.70633133  1
  Zn  Zn109  1  0.18950454  0.68955746  0.18708396  1
  Zn  Zn110  1  0.18911547  0.67652081  0.68725356  1
  Zn  Zn111  1  0.69162719  0.18648000  0.18645542  1
  Zn  Zn112  1  0.68492042  0.18944681  0.68920695  1
  Zn  Zn113  1  0.69021901  0.68566655  0.18512952  1
  Zn  Zn114  1  0.68974743  0.68824367  0.68796621  1
  Zn  Zn115  1  0.33519273  0.28642678  0.35611813  1
  Zn  Zn116  1  0.31511658  0.31446880  0.80996193  1
  Zn  Zn117  1  0.31063296  0.81473491  0.31048638  1
  Zn  Zn118  1  0.31287870  0.81400111  0.81240020  1
  Zn  Zn119  1  0.81199141  0.31147803  0.31228535  1
  Zn  Zn120  1  0.82811617  0.29644738  0.84808822  1
  Zn  Zn121  1  0.81553925  0.81061867  0.31479764  1
  Zn  Zn122  1  0.81553638  0.81248334  0.81426748  1
  Zn  Zn123  1  0.16009411  0.43184708  0.44431392  1
  Zn  Zn124  1  0.19797630  0.43828425  0.94321622  1
  Zn  Zn125  1  0.19298422  0.93314714  0.43220140  1
  Zn  Zn126  1  0.18430912  0.93805723  0.93427703  1
  Zn  Zn127  1  0.69075349  0.43405673  0.43698513  1
  Zn  Zn128  1  0.68896387  0.43629458  0.93795634  1
  Zn  Zn129  1  0.68940153  0.93882180  0.43496468  1
  Zn  Zn130  1  0.68775577  0.93871162  0.93789293  1
  Zn  Zn131  1  0.31247289  0.06678244  0.06445153  1
  Zn  Zn132  1  0.31932314  0.05699697  0.55818887  1
  Zn  Zn133  1  0.30929857  0.56668665  0.06377026  1
  Zn  Zn134  1  0.33882176  0.51968996  0.58987005  1
  Zn  Zn135  1  0.80815965  0.05508232  0.06041299  1
  Zn  Zn136  1  0.81487884  0.06159969  0.56416292  1
  Zn  Zn137  1  0.80878217  0.56211696  0.06455144  1
  Zn  Zn138  1  0.80957814  0.56315872  0.56687016  1
  Zn  Zn139  1  0.43859142  0.43623825  0.19616561  1
  Zn  Zn140  1  0.44334400  0.43247772  0.69379902  1
  Zn  Zn141  1  0.44070425  0.93620360  0.18823035  1
  Zn  Zn142  1  0.43334538  0.93551688  0.68688086  1
  Zn  Zn143  1  0.93821163  0.43845872  0.18900955  1
  Zn  Zn144  1  0.93349156  0.43539032  0.69602834  1
  Zn  Zn145  1  0.93929847  0.94036795  0.18344689  1
  Zn  Zn146  1  0.94192388  0.93833810  0.68462209  1
  Zn  Zn147  1  0.05999737  0.06276863  0.30506943  1
  Zn  Zn148  1  0.06320131  0.06252953  0.81375422  1
  Zn  Zn149  1  0.06126551  0.56498435  0.31086271  1
  Zn  Zn150  1  0.06577071  0.56368906  0.81552207  1
  Zn  Zn151  1  0.56579247  0.06075621  0.31031704  1
  Zn  Zn152  1  0.56014381  0.06519460  0.80866613  1
  Zn  Zn153  1  0.56797214  0.56724759  0.30713667  1
  Zn  Zn154  1  0.56187373  0.55934840  0.81565884  1
  Zn  Zn155  1  0.44571217  0.17827370  0.43697115  1
  Zn  Zn156  1  0.43934643  0.19181854  0.93961628  1
  Zn  Zn157  1  0.44021462  0.68723120  0.43712567  1
  Zn  Zn158  1  0.43672838  0.68850890  0.93633679  1
  Zn  Zn159  1  0.94177035  0.18965213  0.43441972  1
  Zn  Zn160  1  0.93687040  0.18347322  0.93325113  1
  Zn  Zn161  1  0.93603696  0.69246731  0.43309353  1
  Zn  Zn162  1  0.94001231  0.68917170  0.93699996  1
  Zn  Zn163  1  0.06560263  0.31126857  0.06252074  1
  Zn  Zn164  1  0.05239811  0.31942707  0.56569393  1
  Zn  Zn165  1  0.05691860  0.81433281  0.06102897  1
  Zn  Zn166  1  0.06471632  0.81470539  0.56080732  1
  Zn  Zn167  1  0.56671220  0.31129143  0.06374227  1
  Zn  Zn168  1  0.57397502  0.31377519  0.55930407  1
  Zn  Zn169  1  0.55586749  0.80753155  0.05989096  1
  Zn  Zn170  1  0.56210604  0.81200240  0.56057294  1
  O  O171  1  0.12435799  0.11445447  0.12561938  1
  O  O172  1  0.12207199  0.13577926  0.61647072  1
  O  O173  1  0.11766512  0.62250031  0.12278166  1
  O  O174  1  0.12114608  0.61371993  0.61669460  1
  O  O175  1  0.62013050  0.11998980  0.11800489  1
  O  O176  1  0.61759672  0.11914015  0.61890005  1
  O  O177  1  0.61499881  0.62644866  0.11711074  1
  O  O178  1  0.62813760  0.61781536  0.61645240  1
  O  O179  1  0.37424356  0.39754203  0.35299571  1
  O  O180  1  0.39075688  0.37062494  0.87703677  1
  O  O181  1  0.38168479  0.87922423  0.37866047  1
  O  O182  1  0.37656830  0.88718156  0.88301528  1
  O  O183  1  0.87960509  0.37280095  0.38354403  1
  O  O184  1  0.88991889  0.39228244  0.86008061  1
  O  O185  1  0.88519593  0.88423807  0.37751551  1
  O  O186  1  0.87843330  0.87611701  0.88729854  1
  O  O187  1  0.25865039  -0.00069648  0.36459094  1
  O  O188  1  0.25566243  0.00683111  0.87085548  1
  O  O189  1  0.24809739  0.51121092  0.36886934  1
  O  O190  1  0.21788511  0.50127107  0.84897683  1
  O  O191  1  0.76108206  0.00148142  0.36744247  1
  O  O192  1  0.74891123  0.00101879  0.85967627  1
  O  O193  1  0.74619149  0.51407460  0.37404505  1
  O  O194  1  0.75815180  0.50769970  0.87459708  1
  O  O195  1  0.24175804  0.50148790  0.13328818  1
  O  O196  1  0.23396572  0.50637393  0.64202476  1
  O  O197  1  0.23624387  1.00278435  0.12758539  1
  O  O198  1  0.25597051  1.00201867  0.63870631  1
  O  O199  1  0.74621557  0.48892966  0.12734856  1
  O  O200  1  0.73974518  0.49187210  0.62813061  1
  O  O201  1  0.73968060  0.99744719  0.13214085  1
  O  O202  1  0.74290101  0.99521504  0.63412697  1
  O  O203  1  0.00105943  0.36420751  0.25444426  1
  O  O204  1  0.00837667  0.36689625  0.75553202  1
  O  O205  1  0.00736448  0.88347957  0.26028852  1
  O  O206  1  0.00847630  0.86886723  0.75244809  1
  O  O207  1  0.51048653  0.36084754  0.24701555  1
  O  O208  1  0.51369338  0.37579602  0.76032577  1
  O  O209  1  0.49510824  0.86716774  0.26328215  1
  O  O210  1  0.50519057  0.86924962  0.75452986  1
  O  O211  1  0.50523439  0.13391595  0.23916061  1
  O  O212  1  0.50179408  0.12825853  0.73084902  1
  O  O213  1  0.49097171  0.62953462  0.24281842  1
  O  O214  1  0.50061267  0.63408080  0.75220731  1
  O  O215  1  0.99013833  0.13655873  0.24904544  1
  O  O216  1  0.99660074  0.12962332  0.74124026  1
  O  O217  1  0.99345285  0.62594649  0.23937490  1
  O  O218  1  0.99223711  0.63528422  0.75732135  1
  O  O219  1  0.36662403  0.24309648  0.01387269  1
  O  O220  1  0.37319338  0.25854741  0.46210992  1
  O  O221  1  0.36677396  0.75953427  0.00332174  1
  O  O222  1  0.36619096  0.75291655  0.49993615  1
  O  O223  1  0.86218212  0.26065955  -0.04516884  1
  O  O224  1  0.86343379  0.25203680  0.49576124  1
  O  O225  1  0.86865761  0.75574274  0.00660411  1
  O  O226  1  0.86958031  0.75960900  0.50063431  1
  O  O227  1  0.12241973  0.25291211  0.49052230  1
  O  O228  1  0.12995955  0.24983797  0.98883027  1
  O  O229  1  0.13106227  0.74635926  0.49221387  1
  O  O230  1  0.13012715  0.75162907  0.99333888  1
  O  O231  1  0.63540634  0.24231029  0.49187717  1
  O  O232  1  0.62755799  0.23663528  0.99543476  1
  O  O233  1  0.63088857  0.74237034  0.49401242  1
  O  O234  1  0.63211850  0.74508619  0.99498104  1
  O  O235  1  0.49523589  0.24365409  0.13207442  1
  O  O236  1  0.50188045  0.24275479  0.61823101  1
  O  O237  1  0.48588317  0.74089222  0.12497120  1
  O  O238  1  0.50265464  0.74782958  0.63770292  1
  O  O239  1  1.00220890  0.25469659  0.13925639  1
  O  O240  1  1.00408682  0.24202723  0.63784108  1
  O  O241  1  0.98890095  0.74181856  0.12073790  1
  O  O242  1  1.00082005  0.75420846  0.63751348  1
  O  O243  1  0.00710249  0.25641950  0.36525762  1
  O  O244  1  0.00928290  0.25553205  0.86653251  1
  O  O245  1  0.01139659  0.76230752  0.37663513  1
  O  O246  1  0.01527761  0.75016238  0.86822273  1
  O  O247  1  0.51877577  0.24051258  0.36628417  1
  O  O248  1  0.51069331  0.25621567  0.87549445  1
  O  O249  1  0.51139324  0.75476480  0.37209618  1
  O  O250  1  0.50452781  0.75666263  0.86563211  1
  O  O251  1  0.24359975  0.12045564  0.49652125  1
  O  O252  1  0.25168967  0.13221287  0.98893684  1
  O  O253  1  0.23847676  0.63271138  0.48392861  1
  O  O254  1  0.24143355  0.64584491  0.99751362  1
  O  O255  1  0.74462053  0.13118863  0.50186159  1
  O  O256  1  0.74279038  0.12557843  0.99637734  1
  O  O257  1  0.74269495  0.63024686  0.49416233  1
  O  O258  1  0.74416054  0.63626805  0.99393573  1
  O  O259  1  0.24522370  0.35613491  0.00590697  1
  O  O260  1  0.26886619  0.39715424  0.47380823  1
  O  O261  1  0.25626776  0.86847531  -0.00402312  1
  O  O262  1  0.25848823  0.86390303  0.49916450  1
  O  O263  1  0.74299772  0.37220525  0.01610412  1
  O  O264  1  0.75590282  0.36683051  0.50726000  1
  O  O265  1  0.75742977  0.86404379  -0.00527687  1
  O  O266  1  0.75789569  0.87240895  0.50389902  1
  O  O267  1  0.13032395  0.50024112  0.23998377  1
  O  O268  1  0.11946503  0.49530020  0.73704163  1
  O  O269  1  0.12814647  0.99501553  0.23578536  1
  O  O270  1  0.13524236  0.99077100  0.75645314  1
  O  O271  1  0.62740359  0.49002123  0.24721906  1
  O  O272  1  0.62849217  0.49371037  0.74312736  1
  O  O273  1  0.63705541  1.00280333  0.23988740  1
  O  O274  1  0.63135704  0.99505571  0.74191994  1
  O  O275  1  0.36619799  -0.00310803  0.25295676  1
  O  O276  1  0.36792326  0.00312779  0.75858180  1
  O  O277  1  0.36579296  0.51612923  0.24203519  1
  O  O278  1  0.35702070  0.49638566  0.75313126  1
  O  O279  1  0.87266755  0.00790737  0.25339071  1
  O  O280  1  0.86735920  0.00311792  0.74829905  1
  O  O281  1  0.87391214  0.51524202  0.24770031  1
  O  O282  1  0.87350284  0.51177044  0.75979908  1
  O  O283  1  0.11557946  0.36256636  0.36797385  1
  O  O284  1  0.11764473  0.36943847  0.86874394  1
  O  O285  1  0.11926338  0.86987655  0.36434526  1
  O  O286  1  0.12602722  0.86586798  0.86238525  1
  O  O287  1  0.63461560  0.36434605  0.36275030  1
  O  O288  1  0.62324673  0.36794341  0.86970654  1
  O  O289  1  0.61641740  0.86654263  0.38303552  1
  O  O290  1  0.61915037  0.87065504  0.86986626  1
  O  O291  1  0.38500403  0.13218168  0.13018068  1
  O  O292  1  0.39410806  0.11923450  0.61904562  1
  O  O293  1  0.37911020  0.63194725  0.12699968  1
  O  O294  1  0.38078875  0.62043924  0.63149350  1
  O  O295  1  0.87166980  0.12255252  0.12972326  1
  O  O296  1  0.88585953  0.12069308  0.63599014  1
  O  O297  1  0.88108131  0.63199232  0.13050060  1
  O  O298  1  0.86714145  0.62895052  0.64111610  1
  O  O299  1  0.25803860  0.24690737  0.12074677  1
  O  O300  1  0.23801505  0.23941547  0.60938064  1
  O  O301  1  0.26186013  0.74791525  0.11557417  1
  O  O302  1  0.24861243  0.74534241  0.61219394  1
  O  O303  1  0.75070056  0.26469247  0.12614277  1
  O  O304  1  0.74274016  0.25892877  0.61590108  1
  O  O305  1  0.75901203  0.74582825  0.11459679  1
  O  O306  1  0.75111534  0.75887368  0.61753526  1
  O  O307  1  0.22879849  0.24206335  0.36284072  1
  O  O308  1  0.24520427  0.24380825  0.88203885  1
  O  O309  1  0.23976060  0.74824843  0.38048417  1
  O  O310  1  0.23982507  0.75320421  0.88129374  1
  O  O311  1  0.74257963  0.24459894  0.38189651  1
  O  O312  1  0.72845883  0.24124295  0.86463518  1
  O  O313  1  0.74433610  0.74597922  0.38199407  1
  O  O314  1  0.74518218  0.74540855  0.88194996  1
  O  O315  1  -0.00368291  0.11074411  -0.00276103  1
  O  O316  1  -0.00490131  0.11873985  0.51062107  1
  O  O317  1  0.00632853  0.62511792  0.01080944  1
  O  O318  1  0.01111454  0.63253677  0.49375896  1
  O  O319  1  0.50657266  0.12383745  0.01280114  1
  O  O320  1  0.51422409  0.12378982  0.51135406  1
  O  O321  1  0.50885790  0.63277120  0.00673763  1
  O  O322  1  0.51481300  0.61869353  0.49912284  1
  O  O323  1  0.50388624  0.38667997  0.50017640  1
  O  O324  1  0.50585991  0.37297340  0.99019705  1
  O  O325  1  0.48778553  0.86501246  0.48864754  1
  O  O326  1  0.48940550  0.87621936  0.99077589  1
  O  O327  1  0.98464511  0.36923250  0.48992475  1
  O  O328  1  1.00499569  0.37672625  0.98828489  1
  O  O329  1  0.99733627  0.88310939  0.49111167  1
  O  O330  1  0.99222416  0.88257793  0.99573642  1
  O  O331  1  0.51652861  0.50073183  0.38720902  1
  O  O332  1  0.50284856  0.48639369  0.87839099  1
  O  O333  1  0.49380266  0.98929327  0.36762588  1
  O  O334  1  0.49138267  0.99610557  0.87499705  1
  O  O335  1  1.00952650  0.48094703  0.36803249  1
  O  O336  1  0.99652821  0.49393990  0.87888081  1
  O  O337  1  0.99534567  0.99583563  0.37943168  1
  O  O338  1  1.00323366  0.99673887  0.88830687  1
  O  O339  1  0.01288108  -0.00274250  0.11219674  1
  O  O340  1  0.00191168  0.01103580  0.61520911  1
  O  O341  1  0.00684390  0.50841742  0.12463079  1
  O  O342  1  0.00395401  0.50054431  0.62827452  1
  O  O343  1  0.50739188  0.00848192  0.12606095  1
  O  O344  1  0.51175697  0.00145274  0.62834649  1
  O  O345  1  0.49867869  0.51249116  0.12815230  1
  O  O346  1  0.51655340  0.50109762  0.61585442  1
  O  O347  1  0.23956056  0.39203220  0.24955324  1
  O  O348  1  0.23480504  0.38322724  0.75347700  1
  O  O349  1  0.23958844  0.88684202  0.25211125  1
  O  O350  1  0.24507435  0.88393407  0.74799395  1
  O  O351  1  0.74575529  0.37617096  0.24187378  1
  O  O352  1  0.73952365  0.37358811  0.74443346  1
  O  O353  1  0.75856415  0.88770850  0.25312564  1
  O  O354  1  0.74581939  0.88049067  0.74472017  1
  O  O355  1  0.25070432  0.10975429  0.25325320  1
  O  O356  1  0.25417325  0.11683330  0.76321604  1
  O  O357  1  0.25256779  0.61880732  0.25863711  1
  O  O358  1  0.25154681  0.61134436  0.76156642  1
  O  O359  1  0.76115192  0.11715598  0.25017422  1
  O  O360  1  0.75783429  0.11699798  0.74520078  1
  O  O361  1  0.75768753  0.62351113  0.25766981  1
  O  O362  1  0.75704814  0.62740558  0.76138938  1
  O  O363  1  0.37781751  0.10702349  0.37161338  1
  O  O364  1  0.37128375  0.11420565  0.87786226  1
  O  O365  1  0.36454972  0.63389885  0.36498356  1
  O  O366  1  0.36096817  0.63059653  0.87309510  1
  O  O367  1  0.87728763  0.11344478  0.37093151  1
  O  O368  1  0.87441170  0.11475496  0.85753470  1
  O  O369  1  0.86603538  0.63566536  0.36423645  1
  O  O370  1  0.87063278  0.62304727  0.86798342  1
  O  O371  1  0.12605032  0.38497385  0.13157530  1
  O  O372  1  0.11779941  0.38984709  0.63076704  1
  O  O373  1  0.11991678  0.87629516  0.13514697  1
  O  O374  1  0.13029793  0.87057847  0.63811962  1
  O  O375  1  0.63002645  0.37429315  0.13753996  1
  O  O376  1  0.63375685  0.38107103  0.63265014  1
  O  O377  1  0.61467732  0.88661767  0.11821554  1
  O  O378  1  0.62994923  0.88253313  0.62758272  1
  O  O379  1  0.11286952  0.25193244  0.25454430  1
  O  O380  1  0.11906894  0.26018508  0.76000358  1
  O  O381  1  0.13130244  0.75920631  0.25739237  1
  O  O382  1  0.12281285  0.75156389  0.75462458  1
  O  O383  1  0.62325328  0.25379542  0.25666331  1
  O  O384  1  0.61599055  0.25768724  0.75502726  1
  O  O385  1  0.62737325  0.74653118  0.26114461  1
  O  O386  1  0.61981858  0.75684696  0.75573261  1
  O  O387  1  0.38704563  0.24451817  0.25361495  1
  O  O388  1  0.37678119  0.24660155  0.74727046  1
  O  O389  1  0.36966074  0.74092485  0.24001328  1
  O  O390  1  0.38441961  0.75021361  0.74780084  1
  O  O391  1  0.88559278  0.24003364  0.25427316  1
  O  O392  1  0.88599758  0.24104596  0.75742292  1
  O  O393  1  0.86913399  0.74311906  0.23727518  1
  O  O394  1  0.88653898  0.74498276  0.75106160  1
  O  O395  1  0.39287214  0.50923306  0.48292852  1
  O  O396  1  0.29881870  0.51526906  0.96474292  1
  O  O397  1  0.37131432  0.98479699  0.48738563  1
  O  O398  1  0.37556400  0.99424238  0.99576934  1
  O  O399  1  0.86714789  0.49106737  0.50010317  1
  O  O400  1  0.87697542  0.51018955  0.98643687  1
  O  O401  1  0.88115080  0.99534260  0.49082587  1
  O  O402  1  0.88499308  0.99223447  0.99991592  1
  O  O403  1  0.11745000  -0.00435670  0.01106626  1
  O  O404  1  0.11572297  -0.00620641  0.49295853  1
  O  O405  1  0.12558385  0.50650060  0.01385437  1
  O  O406  1  0.12125966  0.50885486  0.51399930  1
  O  O407  1  0.62450409  0.00896398  0.00686050  1
  O  O408  1  0.63546178  0.01089777  0.50924748  1
  O  O409  1  0.63086023  0.51598225  0.00111037  1
  O  O410  1  0.62196227  0.50433528  0.50482002  1
  O  O411  1  0.37321217  0.36094826  0.13556372  1
  O  O412  1  0.36980598  0.40775778  0.61537633  1
  O  O413  1  0.38097311  0.86861082  0.11270441  1
  O  O414  1  0.37203873  0.86978272  0.61401027  1
  O  O415  1  0.86299866  0.37974293  0.12572902  1
  O  O416  1  0.86254198  0.38015790  0.62098219  1
  O  O417  1  0.88135627  0.86691012  0.11347237  1
  O  O418  1  0.87065829  0.87481713  0.61718258  1
  O  O419  1  0.11839137  0.13551549  0.37252800  1
  O  O420  1  0.13500123  0.13622709  0.86799737  1
  O  O421  1  0.12836425  0.63455321  0.37671757  1
  O  O422  1  0.13609502  0.63085996  0.88482806  1
  O  O423  1  0.62962499  0.12718114  0.38420611  1
  O  O424  1  0.62063737  0.12851877  0.88469769  1
  O  O425  1  0.63408736  0.63458878  0.38063503  1
  O  O426  1  0.63115402  0.63166170  0.88089245  1
