# generated using pymatgen
data_V85Zn86O256
_symmetry_space_group_name_H-M   'P 1'
_cell_length_a   16.96949969
_cell_length_b   16.98989840
_cell_length_c   16.97240396
_cell_angle_alpha   89.98703928
_cell_angle_beta   89.98608348
_cell_angle_gamma   89.91685800
_symmetry_Int_Tables_number   1
_chemical_formula_structural   V85Zn86O256
_chemical_formula_sum   'V85 Zn86 O256'
_cell_volume   4893.30964708
_cell_formula_units_Z   1
loop_
 _symmetry_equiv_pos_site_id
 _symmetry_equiv_pos_as_xyz
  1  'x, y, z'
loop_
 _atom_site_type_symbol
 _atom_site_label
 _atom_site_symmetry_multiplicity
 _atom_site_fract_x
 _atom_site_fract_y
 _atom_site_fract_z
 _atom_site_occupancy
  V  V0  1  0.00446474  0.12391839  0.61603699  1
  V  V1  1  0.87387568  0.24785073  0.62216649  1
  V  V2  1  0.00184596  0.75671108  0.74345761  1
  V  V3  1  0.74644645  0.62568830  0.37681976  1
  V  V4  1  0.37178909  0.49796452  0.36905649  1
  V  V5  1  0.24688111  -0.00905335  0.75243429  1
  V  V6  1  0.74782200  0.37547484  0.62620432  1
  V  V7  1  0.12731673  -0.00317881  0.62745529  1
  V  V8  1  0.62692679  0.00902082  0.12676250  1
  V  V9  1  0.18139623  0.44515880  0.18879630  1
  V  V10  1  0.49828795  0.11864129  0.62640087  1
  V  V11  1  0.23686968  0.24344684  0.49661074  1
  V  V12  1  0.38687848  0.62198107  0.74195611  1
  V  V13  1  0.61325653  0.87964495  0.25571792  1
  V  V14  1  0.12506925  0.74583941  0.88129584  1
  V  V15  1  0.62646498  0.25027165  0.87398456  1
  V  V16  1  0.25175457  0.50122268  0.74849001  1
  V  V17  1  0.12802367  0.87793748  0.24914212  1
  V  V18  1  -0.00106842  0.24867564  0.74884249  1
  V  V19  1  0.87388487  0.38071288  0.01874180  1
  V  V20  1  0.75556525  0.74771388  0.50586943  1
  V  V21  1  0.12549976  -0.00241610  0.12787703  1
  V  V22  1  0.61941053  0.51306651  0.13073347  1
  V  V23  1  0.24635559  0.61872851  0.36439574  1
  V  V24  1  0.24930196  0.62394177  0.87850423  1
  V  V25  1  0.00600540  0.50587213  -0.00522004  1
  V  V26  1  0.62458191  0.37665626  0.24883497  1
  V  V27  1  -0.01464449  0.38318956  0.87250766  1
  V  V28  1  0.13224081  0.12515124  -0.00102084  1
  V  V29  1  0.50758978  0.75856164  0.74171282  1
  V  V30  1  0.12257279  0.25182021  0.87722189  1
  V  V31  1  0.87327203  0.37545106  0.50023149  1
  V  V32  1  0.87606894  0.75014418  0.12541473  1
  V  V33  1  0.87541523  0.62982453  0.74462181  1
  V  V34  1  0.87164276  0.50017985  0.37575801  1
  V  V35  1  0.00544606  0.37752406  0.36416268  1
  V  V36  1  0.62875503  0.76079254  0.87223365  1
  V  V37  1  0.62271028  0.25127317  0.37798548  1
  V  V38  1  0.25970619  0.86733531  0.12068169  1
  V  V39  1  0.00694250  0.87525374  0.87393629  1
  V  V40  1  0.62571074  0.62745123  0.00286993  1
  V  V41  1  0.37314545  0.37281812  0.49958876  1
  V  V42  1  0.49418945  0.24184894  0.23523686  1
  V  V43  1  0.75612663  0.49964664  0.75524084  1
  V  V44  1  0.35401353  0.12365973  0.24991208  1
  V  V45  1  -0.00105667  0.50090919  0.50298490  1
  V  V46  1  0.37220674  0.24624133  0.62339559  1
  V  V47  1  0.49672437  -0.00872435  0.48693759  1
  V  V48  1  0.00501987  -0.00185225  0.49822554  1
  V  V49  1  -0.00032733  0.74874017  0.24756288  1
  V  V50  1  0.61583454  0.50352923  0.62783600  1
  V  V51  1  0.75478671  0.88272031  0.14069822  1
  V  V52  1  0.12395229  0.50115603  0.62582411  1
  V  V53  1  0.38272874  0.48837038  0.87563160  1
  V  V54  1  0.74666916  -0.00435480  0.74968502  1
  V  V55  1  0.12613271  0.62440185  0.50241679  1
  V  V56  1  -0.00349984  0.15483288  0.12118313  1
  V  V57  1  0.25184553  0.86665066  0.62637112  1
  V  V58  1  0.44118432  0.68457309  0.07617590  1
  V  V59  1  -0.00004602  0.00296085  0.00038439  1
  V  V60  1  0.61580248  0.62645850  0.50469070  1
  V  V61  1  0.75080854  0.49894974  0.24398203  1
  V  V62  1  0.24832359  0.37302104  0.62726880  1
  V  V63  1  0.75166096  0.12662538  0.87723986  1
  V  V64  1  0.62229108  -0.01064342  0.62996538  1
  V  V65  1  0.62062287  0.37639905  0.75602237  1
  V  V66  1  0.12338918  0.74788867  0.37447346  1
  V  V67  1  0.87585564  0.87735119  0.00075716  1
  V  V68  1  0.75178586  0.75278633  0.00133177  1
  V  V69  1  0.87326450  0.62475947  0.24788973  1
  V  V70  1  0.12381921  0.37519111  0.74922958  1
  V  V71  1  0.01313157  0.61971072  0.11986271  1
  V  V72  1  0.49464622  0.37438883  0.37638880  1
  V  V73  1  0.87926254  0.87263059  0.50622239  1
  V  V74  1  0.49683144  -0.00063972  0.00127604  1
  V  V75  1  0.75530735  0.62314270  0.87772116  1
  V  V76  1  0.38104848  0.63101438  0.25067461  1
  V  V77  1  0.75261931  0.87001185  0.63134376  1
  V  V78  1  0.11775385  0.24425424  0.36528084  1
  V  V79  1  0.50403376  0.47954292  0.00248202  1
  V  V80  1  0.25184396  0.12315429  0.87885274  1
  V  V81  1  0.87429344  0.12367024  0.74482313  1
  V  V82  1  0.49598810  0.25056499  0.75354803  1
  V  V83  1  0.62316828  0.12558098  0.50228461  1
  V  V84  1  0.37501248  0.12043537  0.75429608  1
  Zn  Zn85  1  0.35180067  -0.00114077  0.36373500  1
  Zn  Zn86  1  0.35024842  0.38053114  0.03547602  1
  Zn  Zn87  1  0.86264103  -0.00235261  0.36175999  1
  Zn  Zn88  1  0.74605001  0.25254196  0.49920876  1
  Zn  Zn89  1  0.87523080  0.00002391  0.87304893  1
  Zn  Zn90  1  -0.00561422  0.63042400  0.62310194  1
  Zn  Zn91  1  0.25477266  0.74499748  0.49962252  1
  Zn  Zn92  1  0.62670626  0.12897883  0.00538208  1
  Zn  Zn93  1  0.37214549  -0.01033575  0.88318691  1
  Zn  Zn94  1  0.25714747  0.74854058  0.00058942  1
  Zn  Zn95  1  0.74794701  0.11742996  0.35813511  1
  Zn  Zn96  1  0.49474793  0.50260709  0.50472564  1
  Zn  Zn97  1  0.86923719  0.13396939  0.23312552  1
  Zn  Zn98  1  0.62153427  0.75888775  0.37870908  1
  Zn  Zn99  1  0.32331154  0.20898899  0.07022069  1
  Zn  Zn100  1  0.49225118  0.87281976  0.87955062  1
  Zn  Zn101  1  -0.00295321  0.87414573  0.37448235  1
  Zn  Zn102  1  0.49602926  0.75157212  0.25418976  1
  Zn  Zn103  1  0.76724034  0.25082645  0.01820958  1
  Zn  Zn104  1  0.38271479  0.74644670  0.62018136  1
  Zn  Zn105  1  0.37885024  0.86542642  0.48842529  1
  Zn  Zn106  1  0.17749188  0.08533992  0.43605149  1
  Zn  Zn107  1  0.17425548  0.18486801  0.19157218  1
  Zn  Zn108  1  0.18764847  0.18387176  0.68961188  1
  Zn  Zn109  1  0.19068840  0.68812219  0.18764796  1
  Zn  Zn110  1  0.18428262  0.68660508  0.69532042  1
  Zn  Zn111  1  0.69401737  0.19464619  0.18847341  1
  Zn  Zn112  1  0.68679794  0.18497766  0.68565266  1
  Zn  Zn113  1  0.68755338  0.69428125  0.18947898  1
  Zn  Zn114  1  0.68674392  0.68627571  0.68792516  1
  Zn  Zn115  1  0.30774498  0.31497542  0.21091991  1
  Zn  Zn116  1  0.30987649  0.30713625  0.89976095  1
  Zn  Zn117  1  0.31149254  0.81421053  0.31224776  1
  Zn  Zn118  1  0.31645495  0.80980515  0.81242562  1
  Zn  Zn119  1  0.81084113  0.31203863  0.30440020  1
  Zn  Zn120  1  0.80949291  0.30954129  0.81115844  1
  Zn  Zn121  1  0.81280741  0.81132452  0.31977672  1
  Zn  Zn122  1  0.81870153  0.81258664  0.81407685  1
  Zn  Zn123  1  0.18968141  0.43429434  0.43365910  1
  Zn  Zn124  1  0.18249266  0.44435712  0.92972425  1
  Zn  Zn125  1  0.19287355  0.92230075  0.43728857  1
  Zn  Zn126  1  0.18906782  0.93324410  0.94030638  1
  Zn  Zn127  1  0.68420501  0.43983784  0.43811412  1
  Zn  Zn128  1  0.69166537  0.43736739  0.94149872  1
  Zn  Zn129  1  0.68491052  0.93550789  0.44350988  1
  Zn  Zn130  1  0.68910856  0.93993024  0.94229747  1
  Zn  Zn131  1  0.31530899  0.04614462  0.07495711  1
  Zn  Zn132  1  0.31417673  0.05722034  0.56236902  1
  Zn  Zn133  1  0.30806379  0.55535732  0.05937585  1
  Zn  Zn134  1  0.31114497  0.56208065  0.55906353  1
  Zn  Zn135  1  0.81337762  0.06452114  0.06305463  1
  Zn  Zn136  1  0.81505447  0.06667466  0.50980117  1
  Zn  Zn137  1  0.81849771  0.55878454  0.06310117  1
  Zn  Zn138  1  0.80739882  0.56114318  0.56731227  1
  Zn  Zn139  1  0.44319636  0.44388938  0.19026528  1
  Zn  Zn140  1  0.43611504  0.43267616  0.68961197  1
  Zn  Zn141  1  0.43931066  0.94672316  0.18704645  1
  Zn  Zn142  1  0.43231270  0.93347085  0.68795599  1
  Zn  Zn143  1  1.00090745  0.39215917  0.14950081  1
  Zn  Zn144  1  0.93610049  0.43999725  0.68792072  1
  Zn  Zn145  1  0.94019905  0.94145863  0.18908594  1
  Zn  Zn146  1  0.93398473  0.93711594  0.68446004  1
  Zn  Zn147  1  0.03145186  0.05808073  0.29883676  1
  Zn  Zn148  1  0.06324895  0.06091630  0.80972946  1
  Zn  Zn149  1  0.05685835  0.56223093  0.31205477  1
  Zn  Zn150  1  0.06114618  0.56526093  0.81287275  1
  Zn  Zn151  1  0.56566701  0.06576924  0.31027053  1
  Zn  Zn152  1  0.56392296  0.05933230  0.81718908  1
  Zn  Zn153  1  0.55763508  0.56805285  0.31798984  1
  Zn  Zn154  1  0.56567261  0.56376212  0.81916264  1
  Zn  Zn155  1  0.43182017  0.18499637  0.43169410  1
  Zn  Zn156  1  0.44572345  0.18356245  0.94145298  1
  Zn  Zn157  1  0.43883030  0.69206262  0.43211017  1
  Zn  Zn158  1  0.43974728  0.68392638  0.91426328  1
  Zn  Zn159  1  0.91971640  0.20510540  0.39427682  1
  Zn  Zn160  1  0.93746069  0.19268465  0.93984348  1
  Zn  Zn161  1  0.93672855  0.68758074  0.43825683  1
  Zn  Zn162  1  0.93550892  0.68762423  0.93417109  1
  Zn  Zn163  1  0.17200064  0.31880287  0.05811296  1
  Zn  Zn164  1  0.05821783  0.31465969  0.56092242  1
  Zn  Zn165  1  0.06390998  0.81077743  0.06163051  1
  Zn  Zn166  1  0.06936753  0.81438422  0.56510492  1
  Zn  Zn167  1  0.59307178  0.30733302  0.07368117  1
  Zn  Zn168  1  0.55823650  0.31320675  0.56691303  1
  Zn  Zn169  1  0.57046183  0.82253820  0.06340763  1
  Zn  Zn170  1  0.56490751  0.81177833  0.56164018  1
  O  O171  1  0.11823659  0.11814416  0.11264860  1
  O  O172  1  0.11611502  0.11178295  0.63387598  1
  O  O173  1  0.11123368  0.63487950  0.12317499  1
  O  O174  1  0.12419646  0.62066322  0.61720431  1
  O  O175  1  0.62846716  0.10970947  0.12723367  1
  O  O176  1  0.61118616  0.11608621  0.62547521  1
  O  O177  1  0.63177671  0.61993544  0.12038885  1
  O  O178  1  0.63223261  0.61412569  0.61725848  1
  O  O179  1  0.38509361  0.38192633  0.38000898  1
  O  O180  1  0.37626050  0.39015664  0.85786675  1
  O  O181  1  0.36338684  0.88537904  0.37733199  1
  O  O182  1  0.37756115  0.87731033  0.87392275  1
  O  O183  1  0.88206131  0.38295000  0.38453438  1
  O  O184  1  0.88537738  0.37665806  0.86310263  1
  O  O185  1  0.87658567  0.87783521  0.39062709  1
  O  O186  1  0.88769588  0.87688993  0.88322535  1
  O  O187  1  0.24053729  0.00800737  0.38860657  1
  O  O188  1  0.24757215  0.00757517  0.86979620  1
  O  O189  1  0.25889823  0.50809321  0.38162225  1
  O  O190  1  0.25812482  0.50670870  0.86644767  1
  O  O191  1  0.75739692  0.01086039  0.40892698  1
  O  O192  1  0.75148032  0.00752462  0.86770593  1
  O  O193  1  0.75226036  0.50840150  0.37064596  1
  O  O194  1  0.74037591  0.51113963  0.86560820  1
  O  O195  1  0.24299221  0.48862038  0.11991174  1
  O  O196  1  0.24398650  0.49396954  0.62839819  1
  O  O197  1  0.23208115  0.98518346  0.12129554  1
  O  O198  1  0.24559115  0.99217416  0.63198806  1
  O  O199  1  0.74379309  0.50800833  0.14002981  1
  O  O200  1  0.73930891  0.49297722  0.63569216  1
  O  O201  1  0.74097630  0.99199411  0.11896940  1
  O  O202  1  0.74065590  0.98719079  0.63225787  1
  O  O203  1  -0.00460761  0.38275186  0.26674950  1
  O  O204  1  0.00506729  0.37077617  0.75213216  1
  O  O205  1  0.00834413  0.86376092  0.25038645  1
  O  O206  1  -0.00754165  0.86402857  0.75738337  1
  O  O207  1  0.50632536  0.36916143  0.26149541  1
  O  O208  1  0.50884811  0.36240442  0.74438280  1
  O  O209  1  0.51145699  0.87554276  0.24629887  1
  O  O210  1  0.49990252  0.86030477  0.75024972  1
  O  O211  1  0.50640266  0.14211425  0.24945045  1
  O  O212  1  0.49359232  0.12449599  0.74424873  1
  O  O213  1  0.48898514  0.62658886  0.24808676  1
  O  O214  1  0.49104137  0.63001186  0.75594580  1
  O  O215  1  1.01020070  0.13969512  0.22130947  1
  O  O216  1  0.99141864  0.12801671  0.74441254  1
  O  O217  1  0.99256884  0.62964588  0.24051682  1
  O  O218  1  0.99094006  0.63485550  0.74963627  1
  O  O219  1  0.37480476  0.26096706  -0.01472421  1
  O  O220  1  0.36463874  0.25302535  0.50371428  1
  O  O221  1  0.38530726  0.73567230  0.00819115  1
  O  O222  1  0.37218965  0.74668899  0.50496599  1
  O  O223  1  0.87709183  0.27340216  -0.00779827  1
  O  O224  1  0.87096607  0.26607792  0.50346212  1
  O  O225  1  0.87090610  0.75677216  0.00540257  1
  O  O226  1  0.86342385  0.75316166  0.49921696  1
  O  O227  1  0.13498891  0.25005370  0.50690368  1
  O  O228  1  0.12394966  0.24053981  0.98414557  1
  O  O229  1  0.12368532  0.73971527  0.49241334  1
  O  O230  1  0.12429026  0.75049858  0.98457849  1
  O  O231  1  0.61802813  0.24361969  0.49561673  1
  O  O232  1  0.60647584  0.24573637  0.97482357  1
  O  O233  1  0.63673641  0.74239378  0.50168824  1
  O  O234  1  0.63318366  0.74631572  0.99495704  1
  O  O235  1  0.50809388  0.25512379  0.13854882  1
  O  O236  1  0.49441717  0.23869437  0.63332637  1
  O  O237  1  0.49978904  0.75090961  0.12705192  1
  O  O238  1  0.50445373  0.74891229  0.63785242  1
  O  O239  1  1.00633705  0.25033443  0.11150615  1
  O  O240  1  0.99652189  0.24164496  0.62921089  1
  O  O241  1  0.99296422  0.74356162  0.12746284  1
  O  O242  1  1.00673389  0.75035123  0.64029695  1
  O  O243  1  0.01170093  0.26962445  0.39254975  1
  O  O244  1  0.00547889  0.25765670  0.86709948  1
  O  O245  1  0.00929373  0.74636045  0.36831964  1
  O  O246  1  0.00506492  0.75647942  0.86919701  1
  O  O247  1  0.50650107  0.25819912  0.37304819  1
  O  O248  1  0.50557834  0.23904003  0.85648763  1
  O  O249  1  0.51129658  0.74360143  0.36757113  1
  O  O250  1  0.51239921  0.75300713  0.86376238  1
  O  O251  1  0.24994312  0.13950625  0.51054151  1
  O  O252  1  0.24499091  0.12102187  0.99560762  1
  O  O253  1  0.23794540  0.62488692  0.49146313  1
  O  O254  1  0.25983845  0.62683350  0.98296730  1
  O  O255  1  0.72581983  0.13550554  0.52456533  1
  O  O256  1  0.74897278  0.13182618  0.99083176  1
  O  O257  1  0.74574004  0.63058625  0.49620856  1
  O  O258  1  0.74887428  0.63060990  0.99388254  1
  O  O259  1  0.24752899  0.36779424  -0.01762793  1
  O  O260  1  0.25378075  0.36349668  0.50699966  1
  O  O261  1  0.24836396  0.86905897  0.01430945  1
  O  O262  1  0.24958526  0.86312216  0.51432335  1
  O  O263  1  0.76937927  0.37953624  0.00014809  1
  O  O264  1  0.75524699  0.37776762  0.50804355  1
  O  O265  1  0.75922367  0.87077143  0.00726671  1
  O  O266  1  0.75568102  0.86496478  0.51005260  1
  O  O267  1  0.12565904  0.51054004  0.24128820  1
  O  O268  1  0.12921697  0.49713644  0.74420095  1
  O  O269  1  0.11063272  0.98925171  0.23942112  1
  O  O270  1  0.13681682  1.00176060  0.74395960  1
  O  O271  1  0.62878422  0.50162804  0.24787577  1
  O  O272  1  0.62925226  0.49425612  0.74713338  1
  O  O273  1  0.62165171  0.99108603  0.23947022  1
  O  O274  1  0.63760668  1.00415114  0.74320459  1
  O  O275  1  0.37755319  0.01915644  0.24770855  1
  O  O276  1  0.36797367  0.00921932  0.74997845  1
  O  O277  1  0.38054955  0.51080894  0.26439703  1
  O  O278  1  0.37490459  0.50837883  0.75235716  1
  O  O279  1  0.91186490  0.02231765  0.26198965  1
  O  O280  1  0.86489967  0.00650179  0.74968250  1
  O  O281  1  0.86298500  0.51014284  0.26010370  1
  O  O282  1  0.86141814  0.50757479  0.74685139  1
  O  O283  1  0.11002725  0.37048902  0.38377793  1
  O  O284  1  0.11525785  0.36649228  0.86683267  1
  O  O285  1  0.12092491  0.86247148  0.36728299  1
  O  O286  1  0.11271521  0.86889791  0.87740917  1
  O  O287  1  0.61247809  0.37371338  0.37251662  1
  O  O288  1  0.63185995  0.36891943  0.86223858  1
  O  O289  1  0.63352169  0.87913312  0.35830037  1
  O  O290  1  0.63126535  0.86206720  0.87723520  1
  O  O291  1  0.36562587  0.12704505  0.13725345  1
  O  O292  1  0.38405426  0.12447716  0.63092198  1
  O  O293  1  0.37562823  0.62310617  0.13002142  1
  O  O294  1  0.36995709  0.62366782  0.63911558  1
  O  O295  1  0.89113568  0.13211117  0.11461594  1
  O  O296  1  0.88313760  0.13310524  0.62791943  1
  O  O297  1  0.87814864  0.63248471  0.13200648  1
  O  O298  1  0.87314178  0.62350507  0.63921836  1
  O  O299  1  0.23927956  0.25697919  0.13021905  1
  O  O300  1  0.25327551  0.25462193  0.62170129  1
  O  O301  1  0.24660823  0.76161761  0.11941630  1
  O  O302  1  0.24672449  0.75967789  0.63287034  1
  O  O303  1  0.69719610  0.26342476  0.10370222  1
  O  O304  1  0.75435857  0.26080726  0.62708346  1
  O  O305  1  0.75761471  0.76114626  0.12094291  1
  O  O306  1  0.74422017  0.76127106  0.62150424  1
  O  O307  1  0.22746024  0.25032773  0.39327443  1
  O  O308  1  0.23650709  0.23022890  0.86295762  1
  O  O309  1  0.23512383  0.73893055  0.37447328  1
  O  O310  1  0.24288368  0.74205526  0.87360971  1
  O  O311  1  0.72981485  0.25674846  0.38031551  1
  O  O312  1  0.74138150  0.24261902  0.87348000  1
  O  O313  1  0.74533288  0.74189134  0.38545524  1
  O  O314  1  0.74624594  0.74444594  0.87912284  1
  O  O315  1  0.00919271  0.12015559  0.00207612  1
  O  O316  1  -0.00031706  0.11370782  0.51533097  1
  O  O317  1  -0.01069289  0.61383109  0.00394091  1
  O  O318  1  0.00850753  0.62005815  0.50154833  1
  O  O319  1  0.51096101  0.10688978  -0.00556752  1
  O  O320  1  0.50542866  0.11800580  0.50820687  1
  O  O321  1  0.50107960  0.63013262  0.00827246  1
  O  O322  1  0.51354254  0.62307413  0.49851275  1
  O  O323  1  0.49062906  0.37500378  0.49547239  1
  O  O324  1  0.51776695  0.38217281  1.00671654  1
  O  O325  1  0.50125572  0.88814656  0.50291928  1
  O  O326  1  0.51262282  0.89230272  0.99631993  1
  O  O327  1  0.98924206  0.38499092  0.49931123  1
  O  O328  1  0.98823437  0.39039373  0.98668494  1
  O  O329  1  0.99461627  0.87694293  0.50217809  1
  O  O330  1  0.99607802  0.88256051  0.99327044  1
  O  O331  1  0.49266676  0.49208756  0.38092468  1
  O  O332  1  0.49423009  0.50726281  0.89030845  1
  O  O333  1  0.50642950  1.00333694  0.38851446  1
  O  O334  1  0.50181378  0.99467442  0.88604374  1
  O  O335  1  0.99393556  0.49354863  0.38334562  1
  O  O336  1  0.99823492  0.49529048  0.87942819  1
  O  O337  1  1.00405267  0.99537086  0.39295944  1
  O  O338  1  1.00083314  0.99373375  0.88287807  1
  O  O339  1  0.00977420  -0.00277683  0.10865310  1
  O  O340  1  0.00976809  0.00320865  0.62387428  1
  O  O341  1  -0.00184109  0.50807434  0.10630537  1
  O  O342  1  0.00548437  0.50499196  0.62006062  1
  O  O343  1  0.51693489  -0.00596472  0.11471883  1
  O  O344  1  0.50567353  0.00327952  0.62534480  1
  O  O345  1  0.50924452  0.50574118  0.11591802  1
  O  O346  1  0.51224324  0.49414698  0.62591220  1
  O  O347  1  0.23428344  0.38956329  0.25474822  1
  O  O348  1  0.24002232  0.38426812  0.74019759  1
  O  O349  1  0.23256502  0.86494391  0.23864412  1
  O  O350  1  0.25539595  0.88534941  0.74410577  1
  O  O351  1  0.73846375  0.38816336  0.26154112  1
  O  O352  1  0.74343236  0.38341257  0.74619760  1
  O  O353  1  0.75512515  0.87726005  0.24275922  1
  O  O354  1  0.75856587  0.88308842  0.74422424  1
  O  O355  1  0.25508105  0.13021902  0.25330055  1
  O  O356  1  0.25753740  0.11410971  0.75639447  1
  O  O357  1  0.25594430  0.62548464  0.26006933  1
  O  O358  1  0.26028230  0.61965441  0.75688204  1
  O  O359  1  0.75509079  0.12578420  0.24663910  1
  O  O360  1  0.75753265  0.11781753  0.75222713  1
  O  O361  1  0.75140365  0.62246739  0.26044331  1
  O  O362  1  0.75495954  0.61998601  0.75685076  1
  O  O363  1  0.37843519  0.12056589  0.35605755  1
  O  O364  1  0.36705205  0.11907895  0.86906745  1
  O  O365  1  0.36565116  0.61740752  0.36974236  1
  O  O366  1  0.36921049  0.61373076  0.86047851  1
  O  O367  1  0.85811873  0.11628500  0.40977939  1
  O  O368  1  0.86532074  0.12696276  0.86713633  1
  O  O369  1  0.86400882  0.62102222  0.37254579  1
  O  O370  1  0.86136401  0.62941052  0.86484833  1
  O  O371  1  0.11438218  0.38299496  0.13299549  1
  O  O372  1  0.12758999  0.38101382  0.62947561  1
  O  O373  1  0.12614764  0.88027273  0.13090112  1
  O  O374  1  0.13452678  0.88759274  0.62596831  1
  O  O375  1  0.61965008  0.39735669  0.14565753  1
  O  O376  1  0.62942683  0.37975287  0.63607069  1
  O  O377  1  0.63749686  0.88298941  0.13768371  1
  O  O378  1  0.63228211  0.88448359  0.62309502  1
  O  O379  1  0.12235340  0.25528828  0.26816721  1
  O  O380  1  0.11745730  0.25210200  0.75731282  1
  O  O381  1  0.11758562  0.75209187  0.25681883  1
  O  O382  1  0.10804436  0.74654383  0.76182582  1
  O  O383  1  0.61577676  0.26222088  0.26056567  1
  O  O384  1  0.61833074  0.25665226  0.75349824  1
  O  O385  1  0.62752527  0.77009171  0.24936127  1
  O  O386  1  0.61417857  0.74187882  0.75750045  1
  O  O387  1  0.38679918  0.23810376  0.25105386  1
  O  O388  1  0.38179772  0.23276740  0.74115339  1
  O  O389  1  0.37289350  0.73543202  0.25294168  1
  O  O390  1  0.39056025  0.73785472  0.74791940  1
  O  O391  1  0.88541411  0.23505206  0.28670446  1
  O  O392  1  0.87995395  0.24430532  0.74164184  1
  O  O393  1  0.88022795  0.74516577  0.24741020  1
  O  O394  1  0.88984983  0.74241992  0.75506471  1
  O  O395  1  0.37500502  0.49209840  0.49242699  1
  O  O396  1  0.38487794  0.48962107  0.99342976  1
  O  O397  1  0.39210427  1.00140923  0.50013071  1
  O  O398  1  0.39239867  1.00194534  1.00336567  1
  O  O399  1  0.87631088  0.49363175  0.49803915  1
  O  O400  1  0.88206440  0.48911075  0.99940976  1
  O  O401  1  0.89294129  0.98459997  0.51613881  1
  O  O402  1  0.88433644  0.99632677  0.99660644  1
  O  O403  1  0.11915267  0.00812402  0.00223087  1
  O  O404  1  0.11914639  -0.00037146  0.51031352  1
  O  O405  1  0.10597647  0.50163915  -0.00905786  1
  O  O406  1  0.12044848  0.50687820  0.50497936  1
  O  O407  1  0.62431310  0.00326471  0.01251828  1
  O  O408  1  0.61274750  0.00607143  0.51147920  1
  O  O409  1  0.62090907  0.50809765  0.00891185  1
  O  O410  1  0.62425625  0.50765920  0.51154248  1
  O  O411  1  0.37668069  0.37125326  0.14069187  1
  O  O412  1  0.36779424  0.36710418  0.62083338  1
  O  O413  1  0.35684990  0.88199142  0.13511325  1
  O  O414  1  0.36458049  0.86940866  0.62129334  1
  O  O415  1  0.88861401  0.37705186  0.11706495  1
  O  O416  1  0.86867580  0.37162055  0.61916230  1
  O  O417  1  0.87208550  0.87353831  0.12146142  1
  O  O418  1  0.86618859  0.87107631  0.61639701  1
  O  O419  1  0.10125113  0.14139999  0.37266852  1
  O  O420  1  0.12872095  0.12823614  0.88244201  1
  O  O421  1  0.12852761  0.62693328  0.38106690  1
  O  O422  1  0.13704712  0.63234139  0.86810648  1
  O  O423  1  0.62612110  0.13387187  0.38603674  1
  O  O424  1  0.64014405  0.13191471  0.86799667  1
  O  O425  1  0.63688395  0.62124431  0.38626872  1
  O  O426  1  0.63587079  0.63479052  0.88324508  1
