# generated using pymatgen
data_V85Zn86O256
_symmetry_space_group_name_H-M   'P 1'
_cell_length_a   16.93776024
_cell_length_b   16.94102567
_cell_length_c   16.93153547
_cell_angle_alpha   90.05345514
_cell_angle_beta   89.98017857
_cell_angle_gamma   89.94987682
_symmetry_Int_Tables_number   1
_chemical_formula_structural   V85Zn86O256
_chemical_formula_sum   'V85 Zn86 O256'
_cell_volume   4858.38184203
_cell_formula_units_Z   1
loop_
 _symmetry_equiv_pos_site_id
 _symmetry_equiv_pos_as_xyz
  1  'x, y, z'
loop_
 _atom_site_type_symbol
 _atom_site_label
 _atom_site_symmetry_multiplicity
 _atom_site_fract_x
 _atom_site_fract_y
 _atom_site_fract_z
 _atom_site_occupancy
  V  V0  1  0.87662866  0.12352411  0.25026567  1
  V  V1  1  0.19127645  0.68354796  0.31929730  1
  V  V2  1  0.38745448  0.74580527  0.62677906  1
  V  V3  1  0.25000829  -0.00291579  0.75011607  1
  V  V4  1  0.39294438  0.62772337  0.75016999  1
  V  V5  1  0.37496660  0.49654896  0.87869047  1
  V  V6  1  0.75066088  0.00465167  0.76617812  1
  V  V7  1  0.50244759  0.11941003  0.62660262  1
  V  V8  1  0.00568956  0.11995923  0.11367497  1
  V  V9  1  0.75259033  0.24536520  -0.01172176  1
  V  V10  1  0.62722142  0.87453708  0.24793242  1
  V  V11  1  0.87078020  0.38079960  0.50095717  1
  V  V12  1  0.12761099  0.37564449  0.75061916  1
  V  V13  1  0.62456876  0.74957329  0.86695554  1
  V  V14  1  0.76278826  0.62257870  0.37341977  1
  V  V15  1  -0.00352760  0.89133377  0.87739474  1
  V  V16  1  0.37520815  0.00449496  0.36936217  1
  V  V17  1  -0.00382799  0.61637767  0.12418766  1
  V  V18  1  0.11979770  0.49255682  0.11314575  1
  V  V19  1  0.37630711  0.62922260  0.24614657  1
  V  V20  1  0.62504502  0.25118415  0.37528001  1
  V  V21  1  0.12883959  0.12862336  0.50150311  1
  V  V22  1  0.12895686  0.87325675  0.74826027  1
  V  V23  1  0.62536663  0.37562128  0.25187581  1
  V  V24  1  0.24704728  0.51613889  0.75308851  1
  V  V25  1  0.75228561  0.49486459  0.73792192  1
  V  V26  1  0.87384849  0.62580191  0.74899568  1
  V  V27  1  0.13493291  0.24542138  0.88125559  1
  V  V28  1  0.63021624  0.12823995  -0.00245242  1
  V  V29  1  0.36636810  -0.00321555  0.87865768  1
  V  V30  1  0.75736116  0.75372808  0.50201664  1
  V  V31  1  0.62584182  0.12184861  0.50298154  1
  V  V32  1  0.12150214  -0.01309497  0.11454193  1
  V  V33  1  -0.00214342  0.62889657  0.62325376  1
  V  V34  1  0.62736484  0.74755480  0.37438864  1
  V  V35  1  0.75130796  0.00048865  0.24881089  1
  V  V36  1  0.76151959  0.50242582  0.25490569  1
  V  V37  1  0.74926541  0.25500372  0.50905245  1
  V  V38  1  0.74757909  0.37223413  0.12556572  1
  V  V39  1  -0.00289738  0.75118964  0.75706321  1
  V  V40  1  0.75623534  0.88871892  0.61909343  1
  V  V41  1  0.00213418  0.38131273  0.88103166  1
  V  V42  1  0.25210881  0.12805190  0.37125454  1
  V  V43  1  0.62311378  0.49860189  0.12598483  1
  V  V44  1  0.37045702  0.87570276  0.50762031  1
  V  V45  1  0.62408571  0.62552184  0.00040390  1
  V  V46  1  0.49826239  0.75081944  0.24213380  1
  V  V47  1  0.23831349  -0.00478641  0.25215147  1
  V  V48  1  0.61960350  0.62558965  0.50709628  1
  V  V49  1  0.48753313  0.13029331  0.12760811  1
  V  V50  1  0.37074599  0.50727049  0.37880474  1
  V  V51  1  0.75166914  0.12655241  0.37579791  1
  V  V52  1  0.87364771  0.12333110  0.76625591  1
  V  V53  1  0.87620828  0.88562355  -0.00204309  1
  V  V54  1  0.12659536  0.25116293  0.37951462  1
  V  V55  1  0.87602073  0.74464612  0.12826231  1
  V  V56  1  0.36865185  0.12314988  0.75392557  1
  V  V57  1  0.62452700  0.87941289  0.74241514  1
  V  V58  1  -0.00416797  0.50290866  0.48805817  1
  V  V59  1  0.50322235  0.00064309  0.00133423  1
  V  V60  1  0.49836869  0.37882675  0.38160686  1
  V  V61  1  0.00053709  0.24533740  0.25015567  1
  V  V62  1  -0.00526217  0.12564679  0.62401168  1
  V  V63  1  0.36608165  0.24973166  0.61885960  1
  V  V64  1  0.24560658  0.75250955  0.50873678  1
  V  V65  1  0.48569566  0.24805608  0.25020107  1
  V  V66  1  -0.00321528  -0.00887893  0.50180372  1
  V  V67  1  0.87580929  -0.01145773  0.37841718  1
  V  V68  1  0.12925294  0.62960623  0.49671448  1
  V  V69  1  0.87405850  0.24739969  0.12549194  1
  V  V70  1  0.50243705  0.00018914  0.50179075  1
  V  V71  1  0.13163455  -0.00282069  0.62474720  1
  V  V72  1  0.12439278  0.37059641  0.24793762  1
  V  V73  1  0.00009373  0.25089760  0.75025009  1
  V  V74  1  0.50125869  0.87603363  0.37707738  1
  V  V75  1  0.37978644  0.86398483  0.01607264  1
  V  V76  1  0.12382911  0.49992071  0.62211699  1
  V  V77  1  0.75112927  0.62107626  0.87330753  1
  V  V78  1  0.87607782  0.38290695  0.00127416  1
  V  V79  1  0.24643230  0.49720297  0.25401261  1
  V  V80  1  0.50011710  0.24999994  0.75202299  1
  V  V81  1  0.01552822  0.87007303  0.36749491  1
  V  V82  1  0.62845193  0.37236725  0.74411115  1
  V  V83  1  0.26629790  0.36628497  0.12004716  1
  V  V84  1  0.50036872  0.87138336  0.87020578  1
  Zn  Zn85  1  0.61854636  0.49753687  0.62525742  1
  Zn  Zn86  1  0.24266759  0.86541699  0.13651152  1
  Zn  Zn87  1  0.75263168  0.87354559  0.12340326  1
  Zn  Zn88  1  0.12205436  0.62070482  -0.01265673  1
  Zn  Zn89  1  0.49643360  0.62784299  0.12074612  1
  Zn  Zn90  1  0.36510614  0.37603859  0.49952477  1
  Zn  Zn91  1  0.62663410  0.00339316  0.12660862  1
  Zn  Zn92  1  0.13556045  0.10901189  -0.01018503  1
  Zn  Zn93  1  0.49790297  0.49614038  -0.00018186  1
  Zn  Zn94  1  0.50026459  0.37106181  0.88284356  1
  Zn  Zn95  1  0.62784480  0.24692148  0.87310200  1
  Zn  Zn96  1  0.13301441  0.74018314  0.87629097  1
  Zn  Zn97  1  0.24443132  0.37110958  0.61866332  1
  Zn  Zn98  1  -0.00588791  0.37672604  0.37275214  1
  Zn  Zn99  1  0.25571239  0.73978664  0.00116218  1
  Zn  Zn100  1  0.87784426  0.50230132  0.87720421  1
  Zn  Zn101  1  0.49043609  0.50972173  0.50992877  1
  Zn  Zn102  1  0.87099140  0.25518644  0.62827495  1
  Zn  Zn103  1  0.87657663  0.75825149  0.62346851  1
  Zn  Zn104  1  0.75375573  0.75114466  -0.00159501  1
  Zn  Zn105  1  0.26923561  0.23885889  0.00230669  1
  Zn  Zn106  1  0.00658443  0.74716361  0.25099704  1
  Zn  Zn107  1  0.19024866  0.18144373  0.18510973  1
  Zn  Zn108  1  0.18631784  0.18411378  0.69217300  1
  Zn  Zn109  1  0.19683248  0.67589967  0.13806421  1
  Zn  Zn110  1  0.18597521  0.69200954  0.68423199  1
  Zn  Zn111  1  0.68132976  0.18937458  0.18293771  1
  Zn  Zn112  1  0.68614566  0.18181322  0.68867743  1
  Zn  Zn113  1  0.69236768  0.68650380  0.18731639  1
  Zn  Zn114  1  0.69030129  0.69254461  0.68636028  1
  Zn  Zn115  1  0.30940180  0.31594910  0.31844494  1
  Zn  Zn116  1  0.31234616  0.31647273  0.80809190  1
  Zn  Zn117  1  0.31778132  0.81755922  0.31421160  1
  Zn  Zn118  1  0.31411485  0.80783057  0.81231067  1
  Zn  Zn119  1  0.81309097  0.31468240  0.31752634  1
  Zn  Zn120  1  0.81559517  0.31500341  0.81107152  1
  Zn  Zn121  1  0.81441836  0.81114445  0.31235343  1
  Zn  Zn122  1  0.81160158  0.81412060  0.81271224  1
  Zn  Zn123  1  0.18763837  0.43578226  0.43863231  1
  Zn  Zn124  1  0.19570521  0.43463743  0.93576468  1
  Zn  Zn125  1  0.18930196  0.93916088  0.44033730  1
  Zn  Zn126  1  0.20088008  0.89971106  0.92954707  1
  Zn  Zn127  1  0.68893582  0.44111879  0.43923802  1
  Zn  Zn128  1  0.68176421  0.43276330  0.93601895  1
  Zn  Zn129  1  0.68699958  0.93888200  0.43667062  1
  Zn  Zn130  1  0.68744441  0.93528469  0.93854970  1
  Zn  Zn131  1  0.30803364  0.05679745  0.06177253  1
  Zn  Zn132  1  0.31243032  0.06496472  0.56031990  1
  Zn  Zn133  1  0.31039332  0.55567569  0.06486219  1
  Zn  Zn134  1  0.30966383  0.56601186  0.56618971  1
  Zn  Zn135  1  0.81307205  0.06276647  0.06313730  1
  Zn  Zn136  1  0.81380547  0.06385938  0.56314345  1
  Zn  Zn137  1  0.80732190  0.56370880  0.06452935  1
  Zn  Zn138  1  0.81203303  0.56638213  0.56011513  1
  Zn  Zn139  1  0.44093606  0.44342081  0.19582515  1
  Zn  Zn140  1  0.43929299  0.43698670  0.68752521  1
  Zn  Zn141  1  0.44149637  0.94582357  0.19139156  1
  Zn  Zn142  1  0.43684574  0.93564232  0.68697915  1
  Zn  Zn143  1  0.93810722  0.43389969  0.18715374  1
  Zn  Zn144  1  0.93864115  0.43807807  0.68379301  1
  Zn  Zn145  1  0.94079510  0.93368372  0.18648740  1
  Zn  Zn146  1  0.93542366  0.94085850  0.69084397  1
  Zn  Zn147  1  0.06227062  0.06104582  0.31224943  1
  Zn  Zn148  1  0.06258422  0.06435684  0.81076724  1
  Zn  Zn149  1  0.05271799  0.56036811  0.30039262  1
  Zn  Zn150  1  0.06088216  0.56374690  0.81359238  1
  Zn  Zn151  1  0.56258497  0.06508086  0.31224818  1
  Zn  Zn152  1  0.56237034  0.05949736  0.81405589  1
  Zn  Zn153  1  0.56493189  0.56365926  0.31694367  1
  Zn  Zn154  1  0.56405596  0.55745976  0.81040819  1
  Zn  Zn155  1  0.43823388  0.18796055  0.43736045  1
  Zn  Zn156  1  0.43731349  0.18157352  0.93522073  1
  Zn  Zn157  1  0.43585541  0.69078453  0.43284735  1
  Zn  Zn158  1  0.44059639  0.68391247  0.93009950  1
  Zn  Zn159  1  0.93693074  0.18707591  0.43888530  1
  Zn  Zn160  1  0.94432699  0.19457196  0.93922094  1
  Zn  Zn161  1  0.93934709  0.69235148  0.43659485  1
  Zn  Zn162  1  0.93988345  0.68881003  0.94300095  1
  Zn  Zn163  1  0.06222492  0.30956145  0.06190150  1
  Zn  Zn164  1  0.05809340  0.31466332  0.56110452  1
  Zn  Zn165  1  0.05887295  0.80707434  0.05830978  1
  Zn  Zn166  1  0.06096537  0.81361698  0.56347298  1
  Zn  Zn167  1  0.44709119  0.31776053  0.05695089  1
  Zn  Zn168  1  0.55879331  0.31120083  0.56575083  1
  Zn  Zn169  1  0.56579351  0.81213146  0.06067123  1
  Zn  Zn170  1  0.56699734  0.81263325  0.56292282  1
  O  O171  1  0.11834632  0.11278736  0.12471046  1
  O  O172  1  0.11574627  0.11973052  0.62039486  1
  O  O173  1  0.11238247  0.60402568  0.13158543  1
  O  O174  1  0.11854081  0.62065427  0.61553130  1
  O  O175  1  0.61664658  0.12375625  0.11324279  1
  O  O176  1  0.61322380  0.12781175  0.61669334  1
  O  O177  1  0.62696764  0.61919271  0.11580966  1
  O  O178  1  0.63010808  0.63092195  0.60929680  1
  O  O179  1  0.38097916  0.38749800  0.37621596  1
  O  O180  1  0.37935777  0.39282333  0.86213953  1
  O  O181  1  0.38248829  0.88371959  0.38727943  1
  O  O182  1  0.38667646  0.88078873  0.87895754  1
  O  O183  1  0.87904559  0.36953606  0.39241989  1
  O  O184  1  0.88426275  0.37506328  0.88408020  1
  O  O185  1  0.88097003  0.88605578  0.37383804  1
  O  O186  1  0.88418399  0.87121786  0.88544906  1
  O  O187  1  0.25493293  0.00712278  0.37131408  1
  O  O188  1  0.26205195  -0.01182599  0.87201158  1
  O  O189  1  0.25481126  0.49595115  0.36212003  1
  O  O190  1  0.26165470  0.49538518  0.86441528  1
  O  O191  1  0.75789518  0.00399064  0.36767761  1
  O  O192  1  0.75183886  -0.00257231  0.86450382  1
  O  O193  1  0.74654678  0.51135474  0.36800331  1
  O  O194  1  0.74944323  0.51148952  0.86718261  1
  O  O195  1  0.24291807  0.48405322  0.13651554  1
  O  O196  1  0.23546135  0.50129579  0.63122061  1
  O  O197  1  0.23703481  0.99539127  0.13605081  1
  O  O198  1  0.23716663  1.00513201  0.62746747  1
  O  O199  1  0.74093348  0.49607281  0.13403592  1
  O  O200  1  0.74555948  0.50638690  0.63571569  1
  O  O201  1  0.74946632  0.99823170  0.13851195  1
  O  O202  1  0.74911114  0.99087869  0.62675114  1
  O  O203  1  0.00706708  0.36491960  0.25211863  1
  O  O204  1  0.01006787  0.37152038  0.75467960  1
  O  O205  1  0.00194267  0.87282423  0.26390619  1
  O  O206  1  0.00079059  0.87039167  0.75857208  1
  O  O207  1  0.50497058  0.36939113  0.26198830  1
  O  O208  1  0.50730361  0.36331176  0.75174316  1
  O  O209  1  0.50752638  0.87114768  0.25627555  1
  O  O210  1  0.51178775  0.88423770  0.75767204  1
  O  O211  1  0.50707690  0.13367408  0.23713251  1
  O  O212  1  0.49260255  0.12585684  0.74255852  1
  O  O213  1  0.49397837  0.63418458  0.25202955  1
  O  O214  1  0.49145729  0.62607840  0.74948219  1
  O  O215  1  0.99511135  0.12893789  0.24403435  1
  O  O216  1  0.99313763  0.12863433  0.74184584  1
  O  O217  1  0.99524130  0.63003551  0.23448031  1
  O  O218  1  0.99233447  0.63254249  0.74459086  1
  O  O219  1  0.37985655  0.25522622  -0.00703689  1
  O  O220  1  0.37835405  0.24831339  0.51665197  1
  O  O221  1  0.38374857  0.76254164  -0.00453876  1
  O  O222  1  0.36835628  0.75523184  0.50422296  1
  O  O223  1  0.86969995  0.25563747  0.00719181  1
  O  O224  1  0.86535489  0.25418851  0.50246309  1
  O  O225  1  0.87480887  0.75910217  0.01076952  1
  O  O226  1  0.86150973  0.74986240  0.50184026  1
  O  O227  1  0.11679901  0.24092289  0.49162232  1
  O  O228  1  0.12783350  0.25280087  0.98496721  1
  O  O229  1  0.13201092  0.74390391  0.50406337  1
  O  O230  1  0.12803713  0.74622703  0.99670551  1
  O  O231  1  0.63023828  0.24468757  0.49536474  1
  O  O232  1  0.64051439  0.24049210  0.99655574  1
  O  O233  1  0.63494253  0.74416537  0.49490240  1
  O  O234  1  0.62847036  0.74362752  0.98846516  1
  O  O235  1  0.49526028  0.23870982  0.13439253  1
  O  O236  1  0.49022307  0.23942158  0.63414315  1
  O  O237  1  0.50815936  0.74730567  0.13861978  1
  O  O238  1  0.48684544  0.75371017  0.61949666  1
  O  O239  1  0.99595180  0.24054112  0.13119866  1
  O  O240  1  1.00120800  0.24074889  0.63207179  1
  O  O241  1  0.99033184  0.74341999  0.12906852  1
  O  O242  1  0.99711013  0.74750208  0.63562143  1
  O  O243  1  0.01084361  0.24687481  0.36831365  1
  O  O244  1  0.01071220  0.26186061  0.86847651  1
  O  O245  1  -0.00069220  0.76562597  0.37342994  1
  O  O246  1  -0.00104148  0.75506835  0.86332639  1
  O  O247  1  0.50604120  0.25566481  0.37058821  1
  O  O248  1  0.50113289  0.24605716  0.85963883  1
  O  O249  1  0.50804891  0.75803693  0.36705187  1
  O  O250  1  0.50950204  0.76270741  0.87608385  1
  O  O251  1  0.23539775  0.11973266  0.49109506  1
  O  O252  1  0.24552607  0.12847294  1.00567556  1
  O  O253  1  0.23659030  0.63219866  0.50010334  1
  O  O254  1  0.23456286  0.62661962  1.02661929  1
  O  O255  1  0.74498122  0.13029434  0.49469656  1
  O  O256  1  0.74413762  0.13257227  1.00572915  1
  O  O257  1  0.74273891  0.63403147  0.49292272  1
  O  O258  1  0.74023306  0.62586961  0.99047128  1
  O  O259  1  0.24991022  0.37099407  0.01893141  1
  O  O260  1  0.25097794  0.37480199  0.50543075  1
  O  O261  1  0.27691386  0.88743314  0.01514547  1
  O  O262  1  0.25926180  0.86606810  0.49386596  1
  O  O263  1  0.75561084  0.36569143  0.00483061  1
  O  O264  1  0.75597776  0.36723134  0.49729185  1
  O  O265  1  0.76260105  0.87315957  0.00030437  1
  O  O266  1  0.74239388  0.87154765  0.51245002  1
  O  O267  1  0.13001102  0.48782391  0.24673667  1
  O  O268  1  0.12836228  0.49422900  0.74213036  1
  O  O269  1  0.13325218  1.00152408  0.24453489  1
  O  O270  1  0.12996414  0.99645399  0.74357867  1
  O  O271  1  0.63030278  0.49360097  0.24656253  1
  O  O272  1  0.63466656  0.49141181  0.74796576  1
  O  O273  1  0.63388283  0.99277796  0.25286559  1
  O  O274  1  0.63928682  0.99427728  0.75361289  1
  O  O275  1  0.37074638  -0.00024864  0.26534598  1
  O  O276  1  0.36869018  0.00270890  0.75552146  1
  O  O277  1  0.36565739  0.50669993  0.25843540  1
  O  O278  1  0.36689854  0.51242976  0.75204096  1
  O  O279  1  0.86919308  0.00258202  0.25648813  1
  O  O280  1  0.86116533  0.00908598  0.74721807  1
  O  O281  1  0.86060733  0.49158590  0.24830711  1
  O  O282  1  0.86890046  0.50563635  0.75067222  1
  O  O283  1  0.12263800  0.36682971  0.36463489  1
  O  O284  1  0.12130087  0.36940426  0.86892086  1
  O  O285  1  0.11349752  0.87983527  0.37680769  1
  O  O286  1  0.10740145  0.87725939  0.86359048  1
  O  O287  1  0.61723244  0.37316343  0.37218744  1
  O  O288  1  0.62395697  0.36876833  0.86029522  1
  O  O289  1  0.62248922  0.86972037  0.36540110  1
  O  O290  1  0.62188369  0.86837318  0.86676636  1
  O  O291  1  0.38983236  0.11493546  0.12514838  1
  O  O292  1  0.37955315  0.13224655  0.63134561  1
  O  O293  1  0.37897611  0.61307877  0.14256077  1
  O  O294  1  0.37207785  0.63250982  0.63830458  1
  O  O295  1  0.88445230  0.12718428  0.13096244  1
  O  O296  1  0.88696726  0.12630108  0.62904635  1
  O  O297  1  0.87776180  0.63650332  0.11919568  1
  O  O298  1  0.88132960  0.62947170  0.63026031  1
  O  O299  1  0.25021888  0.26437325  0.13100762  1
  O  O300  1  0.26318612  0.24595541  0.63136519  1
  O  O301  1  0.26458512  0.75858531  0.11867671  1
  O  O302  1  0.25860989  0.74895150  0.61229839  1
  O  O303  1  0.75640174  0.25502127  0.12053414  1
  O  O304  1  0.75005047  0.24232220  0.61200518  1
  O  O305  1  0.76145680  0.75188259  0.12172459  1
  O  O306  1  0.75237957  0.76374785  0.61805704  1
  O  O307  1  0.23653175  0.24254126  0.37062178  1
  O  O308  1  0.23659726  0.25745234  0.87278593  1
  O  O309  1  0.24820009  0.74594340  0.37893809  1
  O  O310  1  0.24025014  0.78630565  0.89277090  1
  O  O311  1  0.74393961  0.24436445  0.38384537  1
  O  O312  1  0.75410614  0.25020035  0.88549433  1
  O  O313  1  0.74623601  0.74631008  0.38121644  1
  O  O314  1  0.74393867  0.73857863  0.87411792  1
  O  O315  1  0.00760934  0.12839761  0.01109265  1
  O  O316  1  0.00832450  0.11634970  0.50573766  1
  O  O317  1  0.00272469  0.62576701  0.01625654  1
  O  O318  1  0.00896151  0.62281526  0.50157082  1
  O  O319  1  0.50593823  0.11814957  0.01018257  1
  O  O320  1  0.50488410  0.12078190  0.50712330  1
  O  O321  1  0.51195807  0.62064159  -0.00006266  1
  O  O322  1  0.51638495  0.62935021  0.49161941  1
  O  O323  1  0.49509164  0.37231364  0.48858212  1
  O  O324  1  0.51287216  0.38375858  0.99640053  1
  O  O325  1  0.49662551  0.88100524  0.49582643  1
  O  O326  1  0.49756338  0.88185524  0.99410471  1
  O  O327  1  0.99543301  0.38739564  0.49608662  1
  O  O328  1  0.98957766  0.36798284  0.99276194  1
  O  O329  1  1.00254725  0.88617198  0.49187264  1
  O  O330  1  0.99092906  0.87335731  0.98493146  1
  O  O331  1  0.49153768  0.49386310  0.37975553  1
  O  O332  1  0.48635840  0.50012593  0.87193280  1
  O  O333  1  0.49248513  0.99802887  0.37958030  1
  O  O334  1  0.49588805  0.98971377  0.88339667  1
  O  O335  1  1.00303980  0.50096519  0.38511028  1
  O  O336  1  0.99739947  0.48510546  0.86975923  1
  O  O337  1  0.99480508  0.99243716  0.38143576  1
  O  O338  1  0.99624601  0.98969878  0.86919212  1
  O  O339  1  0.01371388  0.00560229  0.13102230  1
  O  O340  1  0.00592109  0.00581038  0.61891120  1
  O  O341  1  0.00705836  0.50189982  0.12824927  1
  O  O342  1  0.01028302  0.50819448  0.61804022  1
  O  O343  1  0.50559806  0.01060458  0.11988523  1
  O  O344  1  0.49247934  0.01191616  0.61871595  1
  O  O345  1  0.51414742  0.50443348  0.12904326  1
  O  O346  1  0.50434248  0.49673418  0.62073578  1
  O  O347  1  0.24355880  0.37986686  0.24414827  1
  O  O348  1  0.23716748  0.38323344  0.74367082  1
  O  O349  1  0.25632799  0.88986793  0.25272417  1
  O  O350  1  0.23636658  0.87983229  0.75002766  1
  O  O351  1  0.74362566  0.37962428  0.24859145  1
  O  O352  1  0.74578141  0.38447541  0.75216433  1
  O  O353  1  0.74349243  0.88315511  0.25085637  1
  O  O354  1  0.74723102  0.88726042  0.74237583  1
  O  O355  1  0.24650718  0.11458146  0.26405730  1
  O  O356  1  0.26136411  0.11614795  0.74905565  1
  O  O357  1  0.25163801  0.62102506  0.25357717  1
  O  O358  1  0.24946858  0.61736707  0.74542581  1
  O  O359  1  0.75331291  0.11861761  0.25471819  1
  O  O360  1  0.75694784  0.11271222  0.74802616  1
  O  O361  1  0.74569985  0.61631065  0.26180573  1
  O  O362  1  0.75562744  0.62004874  0.75463189  1
  O  O363  1  0.36353785  0.11730704  0.38598802  1
  O  O364  1  0.38405170  0.10848126  0.86364872  1
  O  O365  1  0.37772252  0.61413112  0.36576461  1
  O  O366  1  0.37624325  0.61835656  0.85873711  1
  O  O367  1  0.87073000  0.11681173  0.36866258  1
  O  O368  1  0.88502462  0.12991421  0.86506396  1
  O  O369  1  0.86229629  0.62930067  0.37939799  1
  O  O370  1  0.86792537  0.62384302  0.87080383  1
  O  O371  1  0.12675361  0.37521697  0.13560692  1
  O  O372  1  0.12069119  0.38340119  0.63227725  1
  O  O373  1  0.12019086  0.88422037  0.12629068  1
  O  O374  1  0.11530626  0.88653142  0.63600137  1
  O  O375  1  0.63383913  0.38473308  0.13657483  1
  O  O376  1  0.62388374  0.37137504  0.63846269  1
  O  O377  1  0.62789435  0.87713860  0.13699986  1
  O  O378  1  0.63543411  0.87189948  0.63689996  1
  O  O379  1  0.12068299  0.25332551  0.25524086  1
  O  O380  1  0.12172628  0.25731955  0.75733801  1
  O  O381  1  0.13545121  0.73582180  0.25577229  1
  O  O382  1  0.11663299  0.75924242  0.74897838  1
  O  O383  1  0.61985251  0.25937960  0.25645981  1
  O  O384  1  0.61850994  0.25174821  0.75072570  1
  O  O385  1  0.62214393  0.75702194  0.25475413  1
  O  O386  1  0.63160132  0.76054418  0.76004511  1
  O  O387  1  0.38700856  0.25161436  0.26196130  1
  O  O388  1  0.37961942  0.24018356  0.74503379  1
  O  O389  1  0.38640205  0.74167756  0.26049973  1
  O  O390  1  0.37121121  0.73713597  0.74280006  1
  O  O391  1  0.87943777  0.24442714  0.24585880  1
  O  O392  1  0.88104250  0.24288772  0.74724501  1
  O  O393  1  0.87612567  0.75921477  0.23148614  1
  O  O394  1  0.88047351  0.74506606  0.74789715  1
  O  O395  1  0.37225667  0.50277321  0.49264027  1
  O  O396  1  0.37496110  0.50688432  0.98265851  1
  O  O397  1  0.37974242  0.99354948  0.49431884  1
  O  O398  1  0.38865756  0.99350465  0.99485701  1
  O  O399  1  0.88419081  0.49524884  0.50505139  1
  O  O400  1  0.86624308  0.48605369  0.99999453  1
  O  O401  1  0.88524016  1.00748752  0.49059189  1
  O  O402  1  0.87509029  0.98504421  1.00602118  1
  O  O403  1  0.13041954  -0.00870709  0.01322238  1
  O  O404  1  0.11811533  0.00610722  0.50768310  1
  O  O405  1  0.12726810  0.49041443  0.01135839  1
  O  O406  1  0.11823875  0.50861113  0.50447725  1
  O  O407  1  0.61632593  0.00238648  0.00161921  1
  O  O408  1  0.61505584  0.00951671  0.49259214  1
  O  O409  1  0.62970110  0.50852098  0.00973487  1
  O  O410  1  0.62667254  0.51686094  0.50170141  1
  O  O411  1  0.36961247  0.37851552  0.13028665  1
  O  O412  1  0.37312473  0.35761962  0.62938553  1
  O  O413  1  0.39226464  0.87541909  0.11541792  1
  O  O414  1  0.37652443  0.86914716  0.61345507  1
  O  O415  1  0.86924891  0.36759794  0.11874985  1
  O  O416  1  0.88269103  0.37094283  0.60910180  1
  O  O417  1  0.87820359  0.86778465  0.11323065  1
  O  O418  1  0.86031616  0.87809098  0.62690398  1
  O  O419  1  0.12937064  0.13036296  0.38297497  1
  O  O420  1  0.11868387  0.14115222  0.87453830  1
  O  O421  1  0.12583681  0.62525131  0.37532562  1
  O  O422  1  0.12779227  0.62595081  0.87268228  1
  O  O423  1  0.63101097  0.13128361  0.38158450  1
  O  O424  1  0.61755096  0.12452518  0.89202197  1
  O  O425  1  0.63356218  0.63261150  0.38368578  1
  O  O426  1  0.63014559  0.63098487  0.87756308  1
