# generated using pymatgen
data_V85Zn86O256
_symmetry_space_group_name_H-M   'P 1'
_cell_length_a   16.99273038
_cell_length_b   17.00091268
_cell_length_c   17.01707966
_cell_angle_alpha   90.10055102
_cell_angle_beta   89.87971773
_cell_angle_gamma   89.90568480
_symmetry_Int_Tables_number   1
_chemical_formula_structural   V85Zn86O256
_chemical_formula_sum   'V85 Zn86 O256'
_cell_volume   4916.07181246
_cell_formula_units_Z   1
loop_
 _symmetry_equiv_pos_site_id
 _symmetry_equiv_pos_as_xyz
  1  'x, y, z'
loop_
 _atom_site_type_symbol
 _atom_site_label
 _atom_site_symmetry_multiplicity
 _atom_site_fract_x
 _atom_site_fract_y
 _atom_site_fract_z
 _atom_site_occupancy
  V  V0  1  0.63542395  0.49846368  0.12385985  1
  V  V1  1  0.24561190  0.87519851  0.12743997  1
  V  V2  1  0.37609581  0.24708151  0.13149185  1
  V  V3  1  0.12650540  0.87716153  0.25251503  1
  V  V4  1  0.11961475  0.63563560  0.49806553  1
  V  V5  1  -0.00013415  0.25339206  0.25894198  1
  V  V6  1  0.12260384  0.74843521  0.87714674  1
  V  V7  1  0.61785490  0.38042542  0.75921588  1
  V  V8  1  0.63455634  0.13012014  0.49541388  1
  V  V9  1  0.88107792  0.50524728  0.87002963  1
  V  V10  1  0.36919533  0.01729454  0.37141167  1
  V  V11  1  0.37443193  0.62996455  0.74589955  1
  V  V12  1  0.62511662  0.87677922  0.24965731  1
  V  V13  1  0.25277144  0.62223072  0.87656682  1
  V  V14  1  0.62657887  -0.01580124  0.62021458  1
  V  V15  1  0.25680315  0.50045216  0.25908925  1
  V  V16  1  0.25195515  0.24616133  0.49141665  1
  V  V17  1  0.38100808  0.12628625  0.75179830  1
  V  V18  1  0.61911111  0.23947973  0.88288085  1
  V  V19  1  0.88291296  0.36476992  0.49755675  1
  V  V20  1  0.37554155  0.25292314  0.62323971  1
  V  V21  1  0.00165690  0.00548100  0.50326175  1
  V  V22  1  0.24954408  0.37373946  0.62127815  1
  V  V23  1  0.74970981  0.75265785  0.51530954  1
  V  V24  1  0.50226802  -0.00035359  0.00190583  1
  V  V25  1  0.00025655  0.87499052  0.87010562  1
  V  V26  1  0.12606751  0.62177315  0.00318216  1
  V  V27  1  0.50192905  0.75263310  0.74950988  1
  V  V28  1  0.63165993  0.63210878  -0.00110702  1
  V  V29  1  0.11646624  0.50390215  0.62248655  1
  V  V30  1  0.00465633  0.74820735  0.25437348  1
  V  V31  1  0.12774892  0.49864763  0.12875800  1
  V  V32  1  0.49484819  0.87625334  0.37394960  1
  V  V33  1  0.00732103  0.12218605  0.13186012  1
  V  V34  1  0.87380240  0.12530577  0.25574106  1
  V  V35  1  0.87516740  0.87347026  -0.00066685  1
  V  V36  1  0.49566591  0.62698524  0.12298260  1
  V  V37  1  0.37910127  0.37494295  -0.00166767  1
  V  V38  1  0.49948027  0.12343800  0.12676490  1
  V  V39  1  0.74963122  0.00370167  0.25230346  1
  V  V40  1  0.75218269  0.87246368  0.12326473  1
  V  V41  1  0.75654672  0.50552085  0.74523031  1
  V  V42  1  0.25486805  0.74593948  0.00825315  1
  V  V43  1  0.25013633  0.01203172  0.24926065  1
  V  V44  1  0.49978519  0.38333436  0.37212488  1
  V  V45  1  0.25094236  0.50031923  0.74646945  1
  V  V46  1  0.37800505  0.62249165  0.25737736  1
  V  V47  1  0.25576753  0.86648388  0.62633227  1
  V  V48  1  0.25431120  0.12426411  0.87844855  1
  V  V49  1  0.12233708  0.37714924  0.26169711  1
  V  V50  1  0.25838054  -0.00002044  0.74859190  1
  V  V51  1  0.86879858  0.37596477  0.01290143  1
  V  V52  1  0.50038059  0.24697483  0.25266965  1
  V  V53  1  -0.00309066  0.50314432  0.49070925  1
  V  V54  1  0.38081786  -0.00229992  0.87965900  1
  V  V55  1  0.63553030  0.37335013  0.24526261  1
  V  V56  1  0.75499601  0.63489521  0.87408379  1
  V  V57  1  0.63541022  0.24777404  0.37628856  1
  V  V58  1  0.37511524  0.38762094  0.49442008  1
  V  V59  1  0.87536941  0.74890482  0.12110438  1
  V  V60  1  0.62535108  0.49895096  0.61915574  1
  V  V61  1  0.00256473  0.87203911  0.37700122  1
  V  V62  1  0.25252406  0.37601078  0.12847210  1
  V  V63  1  0.63041467  0.75102370  0.37421341  1
  V  V64  1  0.87007213  -0.00155594  0.37722453  1
  V  V65  1  0.49832472  0.62904865  0.62078353  1
  V  V66  1  0.25291543  0.75304521  0.49063905  1
  V  V67  1  0.12844715  0.25525847  0.87061430  1
  V  V68  1  0.25061084  0.24848654  0.00216596  1
  V  V69  1  0.37728402  0.86815565  0.00719843  1
  V  V70  1  0.38167506  0.49424296  0.87281846  1
  V  V71  1  0.11203067  0.01735428  0.64692195  1
  V  V72  1  0.87110128  0.87354881  0.51559615  1
  V  V73  1  0.01090600  -0.00347303  0.00895571  1
  V  V74  1  0.50202106  0.13091180  0.62248390  1
  V  V75  1  0.00475170  0.49019707  -0.00129147  1
  V  V76  1  0.49484258  0.00559744  0.49550344  1
  V  V77  1  -0.04901993  0.32056491  0.81708120  1
  V  V78  1  0.87123725  0.01682255  0.87918221  1
  V  V79  1  0.75504704  0.36609441  0.61567160  1
  V  V80  1  0.00191923  0.62400810  0.12484367  1
  V  V81  1  0.49481149  0.75170227  0.24504393  1
  V  V82  1  0.12909394  0.12285045  0.49391465  1
  V  V83  1  0.12797659  0.86611017  0.75011614  1
  V  V84  1  0.50333837  0.49737438  -0.00311614  1
  Zn  Zn85  1  0.74954853  0.24413485  0.00553551  1
  Zn  Zn86  1  -0.06277228  0.55888901  0.68444566  1
  Zn  Zn87  1  0.50324402  0.86993198  0.87766636  1
  Zn  Zn88  1  0.63798903  0.11502839  0.00079531  1
  Zn  Zn89  1  -0.10107545  0.73372202  0.64154639  1
  Zn  Zn90  1  0.37411815  0.87693501  0.50245499  1
  Zn  Zn91  1  0.12336529  0.37095077  0.74842715  1
  Zn  Zn92  1  0.87008569  0.49939129  0.37478238  1
  Zn  Zn93  1  0.76479648  0.01309974  0.74166205  1
  Zn  Zn94  1  0.49705159  0.25903867  0.75596816  1
  Zn  Zn95  1  0.75439067  0.50276505  0.25095197  1
  Zn  Zn96  1  0.87417849  0.62286655  0.25432956  1
  Zn  Zn97  1  0.49658025  0.50713642  0.49265245  1
  Zn  Zn98  1  0.86852830  0.25237361  0.13230592  1
  Zn  Zn99  1  0.13021505  0.12082751  0.00801705  1
  Zn  Zn100  1  0.12609908  0.24680231  0.37611415  1
  Zn  Zn101  1  0.25019061  0.62698502  0.37548446  1
  Zn  Zn102  1  0.62974815  0.75336099  0.87577565  1
  Zn  Zn103  1  0.63750299  0.87347471  0.75550526  1
  Zn  Zn104  1  0.62714594  0.00009679  0.12545480  1
  Zn  Zn105  1  0.75303610  0.62412792  0.37290306  1
  Zn  Zn106  1  0.62512343  0.62569967  0.49650446  1
  Zn  Zn107  1  0.18499996  0.19092789  0.18890565  1
  Zn  Zn108  1  0.07432319  0.18921236  0.68820662  1
  Zn  Zn109  1  0.18812121  0.68940550  0.19037648  1
  Zn  Zn110  1  0.07537501  0.68645137  0.68420537  1
  Zn  Zn111  1  0.69036376  0.18790147  0.17920190  1
  Zn  Zn112  1  0.69165329  0.18861800  0.68800436  1
  Zn  Zn113  1  0.68738014  0.68716923  0.18800087  1
  Zn  Zn114  1  0.68598452  0.68535903  0.68811912  1
  Zn  Zn115  1  0.31487831  0.31475530  0.31399177  1
  Zn  Zn116  1  0.31164642  0.31316337  0.81092148  1
  Zn  Zn117  1  0.31587580  0.81466912  0.31241189  1
  Zn  Zn118  1  0.31348590  0.80997193  0.81799672  1
  Zn  Zn119  1  0.81244697  0.31296521  0.31505256  1
  Zn  Zn120  1  0.78859249  0.31730241  0.81427779  1
  Zn  Zn121  1  0.81678284  0.81339195  0.31054048  1
  Zn  Zn122  1  0.82022648  0.83387608  0.79014059  1
  Zn  Zn123  1  0.18700268  0.44176719  0.43907339  1
  Zn  Zn124  1  0.19282362  0.43441926  0.93833979  1
  Zn  Zn125  1  0.18640849  0.93964586  0.43613398  1
  Zn  Zn126  1  0.19184707  0.93490017  0.93909485  1
  Zn  Zn127  1  0.68842958  0.43614408  0.43545512  1
  Zn  Zn128  1  0.69286671  0.44566890  0.93583307  1
  Zn  Zn129  1  0.68703405  0.93704230  0.43943610  1
  Zn  Zn130  1  0.69095343  0.93395663  0.93495014  1
  Zn  Zn131  1  0.31543398  0.06126422  0.06897974  1
  Zn  Zn132  1  0.31016544  0.06375748  0.56497008  1
  Zn  Zn133  1  0.31688909  0.56187500  0.06776714  1
  Zn  Zn134  1  0.30854085  0.56848437  0.56459990  1
  Zn  Zn135  1  0.81723489  0.06274199  0.06587600  1
  Zn  Zn136  1  0.80965302  0.06569201  0.55980423  1
  Zn  Zn137  1  0.81663199  0.56523464  0.05892248  1
  Zn  Zn138  1  0.80976534  0.56467672  0.55421553  1
  Zn  Zn139  1  0.44288836  0.43802008  0.18594312  1
  Zn  Zn140  1  0.43840689  0.44239175  0.68147350  1
  Zn  Zn141  1  0.43062013  0.93833605  0.18706899  1
  Zn  Zn142  1  0.44265321  0.93977022  0.68516907  1
  Zn  Zn143  1  0.94049669  0.44000297  0.19276554  1
  Zn  Zn144  1  0.88943925  0.23362797  0.63237906  1
  Zn  Zn145  1  0.93861010  0.93821606  0.18903585  1
  Zn  Zn146  1  0.93801526  1.05472943  0.68959960  1
  Zn  Zn147  1  0.06342356  0.05892733  0.31561540  1
  Zn  Zn148  1  0.07275882  0.05537189  0.83028100  1
  Zn  Zn149  1  0.06469039  0.56643271  0.31752746  1
  Zn  Zn150  1  0.07110248  0.55112392  0.81915197  1
  Zn  Zn151  1  0.56228414  0.06550039  0.31169642  1
  Zn  Zn152  1  0.59715946  0.07842721  0.78638067  1
  Zn  Zn153  1  0.56873177  0.56356053  0.30954897  1
  Zn  Zn154  1  0.56490164  0.56574195  0.81102380  1
  Zn  Zn155  1  0.43998857  0.19426408  0.43654373  1
  Zn  Zn156  1  0.44495039  0.18839687  0.93824196  1
  Zn  Zn157  1  0.43531314  0.69235331  0.43743291  1
  Zn  Zn158  1  0.43957208  0.68467549  0.93440244  1
  Zn  Zn159  1  0.93820035  0.18556958  0.43813928  1
  Zn  Zn160  1  0.94337672  0.18834039  0.94963637  1
  Zn  Zn161  1  0.93457206  0.68791400  0.44101516  1
  Zn  Zn162  1  0.93975637  0.68827444  0.82078813  1
  Zn  Zn163  1  0.06257984  0.31009552  0.07167207  1
  Zn  Zn164  1  0.06093737  0.31332816  0.56282236  1
  Zn  Zn165  1  0.06429653  0.81099967  0.06385864  1
  Zn  Zn166  1  0.06717839  0.82343321  0.56218081  1
  Zn  Zn167  1  0.56268545  0.31528505  0.06404966  1
  Zn  Zn168  1  0.56337463  0.31555702  0.55981235  1
  Zn  Zn169  1  0.56526443  0.81217263  0.06442475  1
  Zn  Zn170  1  0.55469617  0.80772025  0.55620644  1
  O  O171  1  0.11230925  0.12918612  0.12618181  1
  O  O172  1  0.13378056  0.11357769  0.61183385  1
  O  O173  1  0.12357324  0.61805181  0.12252842  1
  O  O174  1  0.13294201  0.61361005  0.61189126  1
  O  O175  1  0.61090082  0.12112179  0.12446510  1
  O  O176  1  0.61133553  0.12367574  0.61299093  1
  O  O177  1  0.61733299  0.61881905  0.11810244  1
  O  O178  1  0.61706314  0.61619402  0.62169370  1
  O  O179  1  0.38598344  0.37197797  0.38337836  1
  O  O180  1  0.36990606  0.38764955  0.88046976  1
  O  O181  1  0.38675295  0.88368705  0.37394790  1
  O  O182  1  0.37477345  0.88059705  0.89010763  1
  O  O183  1  0.86638822  0.37448473  0.39564015  1
  O  O184  1  0.88351170  0.37958488  0.87665434  1
  O  O185  1  0.88626952  0.88276043  0.37614910  1
  O  O186  1  0.88760345  0.87775666  0.88610412  1
  O  O187  1  0.25753764  -0.00605215  0.36111529  1
  O  O188  1  0.26386436  0.00115730  0.87298457  1
  O  O189  1  0.24975822  0.50244497  0.36184013  1
  O  O190  1  0.25699343  0.50337511  0.86742691  1
  O  O191  1  0.76230406  -0.00731775  0.36849347  1
  O  O192  1  0.77181897  0.00225594  0.89041391  1
  O  O193  1  0.74820656  0.50449007  0.37142053  1
  O  O194  1  0.76257308  0.50493358  0.86458841  1
  O  O195  1  0.24594961  0.49590856  0.13465774  1
  O  O196  1  0.24566282  0.49305509  0.62996366  1
  O  O197  1  0.25485413  0.99057866  0.13956080  1
  O  O198  1  0.24314817  0.99800225  0.63853616  1
  O  O199  1  0.73752988  0.50579711  0.12270913  1
  O  O200  1  0.74245097  0.49345525  0.62863852  1
  O  O201  1  0.75203497  0.98834027  0.13544890  1
  O  O202  1  0.72646906  1.00308084  0.61898545  1
  O  O203  1  0.01139450  0.36579099  0.24498316  1
  O  O204  1  0.00557228  0.37910060  0.76024054  1
  O  O205  1  0.00855864  0.87152884  0.25587788  1
  O  O206  1  0.01775165  0.88323341  0.76948310  1
  O  O207  1  0.50594309  0.36610681  0.25474085  1
  O  O208  1  0.51489991  0.37843095  0.74062756  1
  O  O209  1  0.50185010  0.86975697  0.25307156  1
  O  O210  1  0.48717879  0.85653820  0.74900567  1
  O  O211  1  0.50255059  0.13929558  0.24381050  1
  O  O212  1  0.49864522  0.13010609  0.73842690  1
  O  O213  1  0.49622164  0.63127403  0.24341751  1
  O  O214  1  0.49421038  0.63282443  0.74329320  1
  O  O215  1  0.99613463  0.12826858  0.24874459  1
  O  O216  1  1.04114479  0.08657463  0.72716939  1
  O  O217  1  1.00418483  0.63392679  0.24390968  1
  O  O218  1  1.00904363  0.62001673  0.75416199  1
  O  O219  1  0.36833990  0.25391476  0.00796695  1
  O  O220  1  0.36963102  0.25916700  0.50505030  1
  O  O221  1  0.36686359  0.75557290  -0.00547130  1
  O  O222  1  0.35936172  0.75690078  0.49842879  1
  O  O223  1  0.88025484  0.26914830  0.00114581  1
  O  O224  1  0.88346548  0.26075691  0.50698728  1
  O  O225  1  0.88326825  0.76598880  0.01788711  1
  O  O226  1  0.86794953  0.76329293  0.50282000  1
  O  O227  1  0.13374056  0.24251893  0.49855181  1
  O  O228  1  0.14008730  0.25166552  1.00040309  1
  O  O229  1  0.13926304  0.74531217  0.50589645  1
  O  O230  1  0.13394301  0.74289698  0.99567044  1
  O  O231  1  0.61782716  0.24114355  0.48961387  1
  O  O232  1  0.61959874  0.25189158  0.98987036  1
  O  O233  1  0.63309975  0.75352105  0.49018992  1
  O  O234  1  0.62142912  0.73485665  0.99944598  1
  O  O235  1  0.49395027  0.24465142  0.13083805  1
  O  O236  1  0.49372751  0.24456150  0.62393905  1
  O  O237  1  0.50663181  0.74061287  0.13459542  1
  O  O238  1  0.50217672  0.73688892  0.63040500  1
  O  O239  1  0.99455302  0.24091449  0.13878564  1
  O  O240  1  1.00210265  0.25248982  0.63456056  1
  O  O241  1  0.99677706  0.74328427  0.13112343  1
  O  O242  1  1.00971782  0.75410204  0.62505023  1
  O  O243  1  0.00398398  0.24508263  0.36256165  1
  O  O244  1  0.00890730  0.25283645  0.87502983  1
  O  O245  1  -0.00534957  0.75965301  0.36542627  1
  O  O246  1  0.01676486  0.75705289  0.88086376  1
  O  O247  1  0.50463681  0.26012379  0.36558847  1
  O  O248  1  0.51197570  0.25778128  0.87436284  1
  O  O249  1  0.50698299  0.76049416  0.36966260  1
  O  O250  1  0.50399390  0.74825329  0.86488190  1
  O  O251  1  0.24473713  0.13569619  0.50357207  1
  O  O252  1  0.25297247  0.13199309  0.99904137  1
  O  O253  1  0.24798931  0.64039659  0.49846073  1
  O  O254  1  0.24849300  0.62958116  0.99946330  1
  O  O255  1  0.73318493  0.11995452  0.49547885  1
  O  O256  1  0.74929961  0.12777244  1.00873230  1
  O  O257  1  0.74491197  0.64045579  0.49344441  1
  O  O258  1  0.74222618  0.61741215  0.98834963  1
  O  O259  1  0.25925487  0.36797407  0.00885438  1
  O  O260  1  0.25715198  0.37318821  0.50360064  1
  O  O261  1  0.25554192  0.86690917  0.00891038  1
  O  O262  1  0.24702483  0.86938734  0.50846751  1
  O  O263  1  0.76859027  0.38117416  -0.00488814  1
  O  O264  1  0.75292816  0.37502569  0.51199731  1
  O  O265  1  0.76251700  0.87946539  0.01170410  1
  O  O266  1  0.76452661  0.86957910  0.49413170  1
  O  O267  1  0.13197857  0.49506485  0.24742690  1
  O  O268  1  0.13680340  0.49559276  0.74131530  1
  O  O269  1  0.13721069  0.98705629  0.25558044  1
  O  O270  1  0.14567621  0.98417979  0.75834643  1
  O  O271  1  0.62462975  0.49136333  0.23883449  1
  O  O272  1  0.62824026  0.49446250  0.73850089  1
  O  O273  1  0.63305722  0.99514417  0.25062388  1
  O  O274  1  0.59421634  0.98299901  0.72234221  1
  O  O275  1  0.35985114  -0.00210190  0.25691811  1
  O  O276  1  0.37473762  0.00196193  0.75990161  1
  O  O277  1  0.36830099  0.50889883  0.24290784  1
  O  O278  1  0.37309932  0.50459870  0.75693615  1
  O  O279  1  0.86960271  0.00432787  0.25895117  1
  O  O280  1  0.87952360  0.00285341  0.77470641  1
  O  O281  1  0.87356599  0.50205865  0.25498225  1
  O  O282  1  0.86818827  0.49736186  0.75815153  1
  O  O283  1  0.13013909  0.37452484  0.36374583  1
  O  O284  1  0.13509529  0.36025816  0.87494059  1
  O  O285  1  0.11153517  0.87962275  0.36866819  1
  O  O286  1  0.12651496  0.86501030  0.87248129  1
  O  O287  1  0.61756459  0.36666959  0.36731500  1
  O  O288  1  0.62574224  0.38839147  0.85964364  1
  O  O289  1  0.61299696  0.87345650  0.36914989  1
  O  O290  1  0.62027123  0.87094496  0.87426353  1
  O  O291  1  0.38734815  0.13503874  0.12303887  1
  O  O292  1  0.38455058  0.12981788  0.62992613  1
  O  O293  1  0.39015169  0.62256205  0.13385085  1
  O  O294  1  0.38383249  0.61756848  0.63621016  1
  O  O295  1  0.88782514  0.12211991  0.14267352  1
  O  O296  1  0.86490352  0.12147762  0.63782855  1
  O  O297  1  0.88345042  0.63399795  0.12412613  1
  O  O298  1  0.86990199  0.62478847  0.62567222  1
  O  O299  1  0.25863569  0.25333459  0.12157424  1
  O  O300  1  0.25774777  0.26706166  0.61219848  1
  O  O301  1  0.24775576  0.75542902  0.11415639  1
  O  O302  1  0.25007577  0.76864380  0.61778122  1
  O  O303  1  0.75591489  0.25423722  0.12107661  1
  O  O304  1  0.75384231  0.26486482  0.63428673  1
  O  O305  1  0.76037426  0.76332495  0.13378814  1
  O  O306  1  0.74560941  0.75107728  0.61526433  1
  O  O307  1  0.25018507  0.25503935  0.38789954  1
  O  O308  1  0.24896901  0.24502787  0.88494451  1
  O  O309  1  0.25016330  0.75437356  0.38762312  1
  O  O310  1  0.24267155  0.74319276  0.88679002  1
  O  O311  1  0.73429370  0.24910472  0.36955779  1
  O  O312  1  0.72489628  0.25930488  0.88495554  1
  O  O313  1  0.73693308  0.75788183  0.37448265  1
  O  O314  1  0.75123051  0.73508315  0.86767379  1
  O  O315  1  0.00416733  0.11568353  0.01424210  1
  O  O316  1  0.00678729  0.11183506  0.49729578  1
  O  O317  1  0.01272893  0.60836901  0.01224584  1
  O  O318  1  0.00962663  0.61857839  0.49836252  1
  O  O319  1  0.49968732  0.11350405  0.00972133  1
  O  O320  1  0.50164418  0.11999557  0.50421186  1
  O  O321  1  0.50520003  0.61677759  0.00663967  1
  O  O322  1  0.49982962  0.62611315  0.50623547  1
  O  O323  1  0.49174031  0.37834985  0.49044557  1
  O  O324  1  0.49453007  0.39049345  1.00497534  1
  O  O325  1  0.49528673  0.88424078  0.48980440  1
  O  O326  1  0.49184913  0.87988540  1.00459375  1
  O  O327  1  0.98714754  0.38322062  0.50455906  1
  O  O328  1  0.99662339  0.38556498  1.00869070  1
  O  O329  1  0.99168120  0.88321668  0.49218290  1
  O  O330  1  0.99892562  0.88013508  0.99655515  1
  O  O331  1  0.50745124  0.48729195  0.37317358  1
  O  O332  1  0.49226492  0.50807351  0.88365368  1
  O  O333  1  0.49357528  0.99642538  0.38008821  1
  O  O334  1  0.48780956  0.99516524  0.88558701  1
  O  O335  1  1.00239031  0.49936427  0.38868704  1
  O  O336  1  0.99417080  0.50123367  0.88762352  1
  O  O337  1  0.99041331  0.99281579  0.38207948  1
  O  O338  1  0.99658850  0.99189629  0.88974875  1
  O  O339  1  -0.00009663  0.00627539  0.12028761  1
  O  O340  1  0.00884009  -0.00944221  0.61356614  1
  O  O341  1  0.01037366  0.50431928  0.12205572  1
  O  O342  1  0.01376728  0.49849591  0.61745725  1
  O  O343  1  0.49761213  0.00708394  0.12086713  1
  O  O344  1  0.49935447  0.00787886  0.60749210  1
  O  O345  1  0.50829545  0.50900635  0.11675723  1
  O  O346  1  0.50790234  0.51194293  0.62132824  1
  O  O347  1  0.24693784  0.38275117  0.24627798  1
  O  O348  1  0.25354102  0.38551402  0.73946401  1
  O  O349  1  0.24376747  0.87383373  0.24390323  1
  O  O350  1  0.25149712  0.87663914  0.74241528  1
  O  O351  1  0.73741854  0.37625466  0.25240475  1
  O  O352  1  0.73781364  0.38876235  0.73954459  1
  O  O353  1  0.74719136  0.88512619  0.24553225  1
  O  O354  1  0.74543265  0.90159460  0.75350027  1
  O  O355  1  0.24352032  0.11030060  0.24553097  1
  O  O356  1  0.26433710  0.11013288  0.76225863  1
  O  O357  1  0.25988469  0.61990734  0.25013195  1
  O  O358  1  0.26055063  0.60919618  0.75551379  1
  O  O359  1  0.75763302  0.11086898  0.24510887  1
  O  O360  1  0.70587209  0.10681434  0.75804096  1
  O  O361  1  0.75339336  0.62464474  0.25227402  1
  O  O362  1  0.74067437  0.61052287  0.75748585  1
  O  O363  1  0.38050512  0.11585882  0.37553312  1
  O  O364  1  0.37497063  0.11744817  0.87329242  1
  O  O365  1  0.37495983  0.62854559  0.36098294  1
  O  O366  1  0.37013677  0.61278373  0.86998380  1
  O  O367  1  0.88012556  0.11447991  0.36446079  1
  O  O368  1  0.88525638  0.11497893  0.88528549  1
  O  O369  1  0.87361522  0.62253433  0.37311368  1
  O  O370  1  0.87041909  0.61228159  0.87830469  1
  O  O371  1  0.13450400  0.37953556  0.13581417  1
  O  O372  1  0.13599692  0.38474356  0.62367468  1
  O  O373  1  0.13808301  0.87211161  0.13297452  1
  O  O374  1  0.13652789  0.88891162  0.63715073  1
  O  O375  1  0.61787217  0.38620279  0.13417457  1
  O  O376  1  0.63289028  0.38113524  0.62873096  1
  O  O377  1  0.63484859  0.87632729  0.13192574  1
  O  O378  1  0.62062931  0.88443416  0.61102811  1
  O  O379  1  0.11974432  0.25950422  0.25388881  1
  O  O380  1  0.13500670  0.25167139  0.76391242  1
  O  O381  1  0.11412610  0.76147179  0.24667598  1
  O  O382  1  0.13361938  0.75965845  0.76074273  1
  O  O383  1  0.61740601  0.25604084  0.25335941  1
  O  O384  1  0.62296818  0.26666925  0.76372172  1
  O  O385  1  0.61447383  0.75749488  0.25572006  1
  O  O386  1  0.61557203  0.75447773  0.75011079  1
  O  O387  1  0.38203777  0.25671543  0.23809640  1
  O  O388  1  0.37708477  0.24548248  0.74297828  1
  O  O389  1  0.38876078  0.74442602  0.25301860  1
  O  O390  1  0.37750157  0.73337403  0.75918704  1
  O  O391  1  0.88130384  0.24241268  0.25425576  1
  O  O392  1  0.88232325  0.26933354  0.76178705  1
  O  O393  1  0.88983260  0.75349054  0.23857627  1
  O  O394  1  0.88199513  0.75382963  0.75305076  1
  O  O395  1  0.37407740  0.49061049  0.50272107  1
  O  O396  1  0.38301920  0.49731129  0.99306736  1
  O  O397  1  0.37844551  1.00081246  0.49018883  1
  O  O398  1  0.38210282  0.99172605  0.99787386  1
  O  O399  1  0.88355742  0.49086335  0.49913447  1
  O  O400  1  0.88446614  0.48998490  0.99332353  1
  O  O401  1  0.87902793  0.99203554  0.49456101  1
  O  O402  1  0.88936248  0.98913926  0.99914351  1
  O  O403  1  0.11576555  -0.00040372  -0.00327874  1
  O  O404  1  0.11842656  0.00504170  0.50567752  1
  O  O405  1  0.12332678  0.49977774  0.00640901  1
  O  O406  1  0.11924876  0.50633398  0.50638482  1
  O  O407  1  0.61169396  -0.00389082  0.00300698  1
  O  O408  1  0.61381467  0.00671762  0.50292108  1
  O  O409  1  0.61915535  0.50660203  0.00476589  1
  O  O410  1  0.62157528  0.50010246  0.51050384  1
  O  O411  1  0.37220850  0.36809037  0.11926320  1
  O  O412  1  0.37020010  0.37385968  0.61564114  1
  O  O413  1  0.36384833  0.87551762  0.11415089  1
  O  O414  1  0.35850753  0.88764356  0.62158157  1
  O  O415  1  0.87795365  0.37890060  0.11389997  1
  O  O416  1  0.85824089  0.37549742  0.61215789  1
  O  O417  1  0.87069736  0.87148230  0.12161255  1
  O  O418  1  0.87577536  0.87740150  0.61107739  1
  O  O419  1  0.12510663  0.12287478  0.38917785  1
  O  O420  1  0.13649475  0.13546616  0.88511826  1
  O  O421  1  0.13188365  0.62271769  0.39260786  1
  O  O422  1  0.13443212  0.62897993  0.88345163  1
  O  O423  1  0.61420314  0.13570853  0.38439141  1
  O  O424  1  0.61108622  0.13725855  0.88523239  1
  O  O425  1  0.62231836  0.63960994  0.37597516  1
  O  O426  1  0.63528981  0.62378697  0.88329011  1
