# generated using pymatgen
data_V85Zn86O256
_symmetry_space_group_name_H-M   'P 1'
_cell_length_a   16.93687216
_cell_length_b   16.93918539
_cell_length_c   16.93244872
_cell_angle_alpha   90.04067397
_cell_angle_beta   90.00216744
_cell_angle_gamma   89.97118600
_symmetry_Int_Tables_number   1
_chemical_formula_structural   V85Zn86O256
_chemical_formula_sum   'V85 Zn86 O256'
_cell_volume   4857.86380489
_cell_formula_units_Z   1
loop_
 _symmetry_equiv_pos_site_id
 _symmetry_equiv_pos_as_xyz
  1  'x, y, z'
loop_
 _atom_site_type_symbol
 _atom_site_label
 _atom_site_symmetry_multiplicity
 _atom_site_fract_x
 _atom_site_fract_y
 _atom_site_fract_z
 _atom_site_occupancy
  V  V0  1  0.24454188  0.37981386  0.62579641  1
  V  V1  1  0.00391968  0.25913018  0.24982055  1
  V  V2  1  0.62609985  -0.00166666  0.12699904  1
  V  V3  1  0.74041183  0.74919773  0.50200013  1
  V  V4  1  0.50037621  0.74915954  0.75094552  1
  V  V5  1  0.00341475  0.62993994  0.11926147  1
  V  V6  1  0.00969939  0.25106335  0.75124152  1
  V  V7  1  -0.00177966  0.37664875  0.87824203  1
  V  V8  1  -0.00173187  0.75265193  0.24856530  1
  V  V9  1  0.87506679  0.24832847  0.62646077  1
  V  V10  1  0.25179398  0.24766204  0.49973772  1
  V  V11  1  0.12393172  0.74574177  0.87913269  1
  V  V12  1  0.37709879  0.87299257  0.00136488  1
  V  V13  1  0.62382626  0.37038082  0.74772527  1
  V  V14  1  0.00291032  0.12188001  0.62552625  1
  V  V15  1  0.37860568  0.87535903  0.49903460  1
  V  V16  1  -0.00211308  0.87705929  0.37636834  1
  V  V17  1  0.87222072  0.75293472  0.12477256  1
  V  V18  1  0.38049821  0.74575543  0.12600968  1
  V  V19  1  0.62745603  0.74270646  0.87587748  1
  V  V20  1  0.36470805  0.49908430  0.37202568  1
  V  V21  1  0.75299019  0.50257741  0.75596449  1
  V  V22  1  0.24594637  0.74423072  0.00330050  1
  V  V23  1  0.12879436  0.74538543  0.37383243  1
  V  V24  1  0.38757778  -0.00354599  0.37600683  1
  V  V25  1  0.50111880  0.12429585  0.12759478  1
  V  V26  1  0.75500989  0.37362381  0.62185787  1
  V  V27  1  0.01564511  0.11276971  0.11882284  1
  V  V28  1  0.13314362  0.87059243  0.74295976  1
  V  V29  1  0.37121293  0.24692619  0.11667207  1
  V  V30  1  0.00257293  0.61904150  0.62431171  1
  V  V31  1  0.24941033  0.00265099  0.24882002  1
  V  V32  1  0.37375175  0.62242214  0.74984596  1
  V  V33  1  0.87858762  -0.00056719  0.87861144  1
  V  V34  1  -0.00083653  0.75552825  0.75216021  1
  V  V35  1  0.62725479  0.37231354  0.23175901  1
  V  V36  1  0.62819649  0.50309237  0.62094640  1
  V  V37  1  0.36862955  0.75286800  0.62432000  1
  V  V38  1  0.87831349  0.49687112  0.37780816  1
  V  V39  1  0.87351756  0.75363615  0.62342866  1
  V  V40  1  0.50664709  0.00097864  0.51965830  1
  V  V41  1  0.25004125  0.75265167  0.49745387  1
  V  V42  1  0.87160302  0.62729617  0.25204728  1
  V  V43  1  0.25015559  0.12477160  0.37416474  1
  V  V44  1  0.37376403  0.00199357  0.87645224  1
  V  V45  1  0.74323218  0.49969595  0.23818780  1
  V  V46  1  0.38288583  0.24906333  0.62321274  1
  V  V47  1  0.74742632  0.24560144  0.48314680  1
  V  V48  1  0.62757280  0.12193190  0.50072809  1
  V  V49  1  0.51359453  0.37202794  0.37565461  1
  V  V50  1  0.74719180  0.00587064  0.25513621  1
  V  V51  1  0.62401108  0.88001342  0.74367754  1
  V  V52  1  0.49982713  0.74918243  0.25767840  1
  V  V53  1  0.37542567  0.12903648  0.25380328  1
  V  V54  1  0.61916605  0.87613270  0.26133990  1
  V  V55  1  0.02189890  0.89108691  0.90189573  1
  V  V56  1  0.86535882  0.87697687  -0.00100407  1
  V  V57  1  0.24529611  0.36365726  0.12903546  1
  V  V58  1  0.00541151  0.50427153  0.00192640  1
  V  V59  1  0.51091326  0.60853992  0.11772912  1
  V  V60  1  0.62063578  0.24857648  0.87208799  1
  V  V61  1  0.62702118  0.12293001  0.00076122  1
  V  V62  1  0.11791341  0.25632331  0.37633073  1
  V  V63  1  0.50359355  0.50489180  0.49657276  1
  V  V64  1  0.13432127  0.50704289  0.13328001  1
  V  V65  1  0.87121936  0.00468478  0.37731004  1
  V  V66  1  0.50009190  0.87342267  0.87676700  1
  V  V67  1  0.87286393  0.62849453  0.75818846  1
  V  V68  1  0.87659294  0.12628356  0.24799782  1
  V  V69  1  0.50488764  0.62562615  0.62419252  1
  V  V70  1  0.36486004  0.61802508  0.25242128  1
  V  V71  1  0.12571209  0.12225826  0.49918938  1
  V  V72  1  0.12809525  0.62019103  0.50084705  1
  V  V73  1  0.12634556  0.88029169  0.24984210  1
  V  V74  1  0.73914497  0.62371299  0.38023589  1
  V  V75  1  0.75287382  0.12539009  0.87593246  1
  V  V76  1  0.37732514  0.12424692  0.74683920  1
  V  V77  1  0.74275907  0.73281878  -0.00196837  1
  V  V78  1  0.75292881  0.25931950  0.00571970  1
  V  V79  1  0.13356922  -0.00619867  0.62189685  1
  V  V80  1  0.74860930  0.00121498  0.74470356  1
  V  V81  1  0.37844556  0.37479160  0.50032895  1
  V  V82  1  0.24652125  0.62025478  0.87795514  1
  V  V83  1  0.25137521  0.87587727  0.12837429  1
  V  V84  1  0.24264119  0.13043859  0.88439607  1
  Zn  Zn85  1  0.50167507  -0.00051171  0.00071235  1
  Zn  Zn86  1  0.51686037  0.42180504  0.92041142  1
  Zn  Zn87  1  0.87167220  0.87657619  0.50025983  1
  Zn  Zn88  1  0.74707401  0.88042967  0.62255441  1
  Zn  Zn89  1  0.87632817  0.25391111  0.12683684  1
  Zn  Zn90  1  0.37020753  0.37919259  -0.00321604  1
  Zn  Zn91  1  0.00622698  0.49204175  0.49767723  1
  Zn  Zn92  1  0.12754650  0.38524019  0.25875099  1
  Zn  Zn93  1  0.12321634  0.38643307  0.74998637  1
  Zn  Zn94  1  0.74469120  0.87314438  0.12681100  1
  Zn  Zn95  1  0.61834622  0.74903633  0.38217353  1
  Zn  Zn96  1  -0.00120782  -0.00271092  0.50175847  1
  Zn  Zn97  1  0.87096377  0.38535849  0.01266991  1
  Zn  Zn98  1  0.37211962  0.49585876  0.87785745  1
  Zn  Zn99  1  0.50512764  0.24026445  0.74103308  1
  Zn  Zn100  1  0.87592528  0.50546643  0.87923541  1
  Zn  Zn101  1  0.23685489  0.51105505  0.73470110  1
  Zn  Zn102  1  0.87824837  0.12424410  0.75223696  1
  Zn  Zn103  1  0.88312965  0.36790028  0.49142196  1
  Zn  Zn104  1  0.12544815  0.25334156  0.89193799  1
  Zn  Zn105  1  0.50856664  0.24655040  0.25853212  1
  Zn  Zn106  1  0.25090996  -0.00285847  0.74819485  1
  Zn  Zn107  1  0.18266808  0.18600305  0.06452640  1
  Zn  Zn108  1  0.19383908  0.18622452  0.68959786  1
  Zn  Zn109  1  0.18739414  0.68821511  0.18787990  1
  Zn  Zn110  1  0.18629105  0.68827340  0.68530878  1
  Zn  Zn111  1  0.68887743  0.18758227  0.19131705  1
  Zn  Zn112  1  0.68845185  0.18202048  0.68193207  1
  Zn  Zn113  1  0.68435194  0.68699298  0.18819672  1
  Zn  Zn114  1  0.68762418  0.68881816  0.69059597  1
  Zn  Zn115  1  0.31075621  0.31509571  0.31051093  1
  Zn  Zn116  1  0.31275195  0.31074541  0.80965347  1
  Zn  Zn117  1  0.31476601  0.81099734  0.31588436  1
  Zn  Zn118  1  0.31073094  0.81042366  0.81353684  1
  Zn  Zn119  1  0.81349327  0.31811311  0.30360779  1
  Zn  Zn120  1  0.81543313  0.31337309  0.81269011  1
  Zn  Zn121  1  0.80666064  0.81586210  0.31463910  1
  Zn  Zn122  1  0.81100605  0.81524944  0.81552542  1
  Zn  Zn123  1  0.18912044  0.43533584  0.44151103  1
  Zn  Zn124  1  0.18461629  0.43291770  0.94448294  1
  Zn  Zn125  1  0.19177341  0.93496533  0.43613299  1
  Zn  Zn126  1  0.19219850  0.93480890  0.93713018  1
  Zn  Zn127  1  0.69328643  0.43751544  0.43817192  1
  Zn  Zn128  1  0.68774711  0.44005493  0.93818320  1
  Zn  Zn129  1  0.68698039  0.93816977  0.43994178  1
  Zn  Zn130  1  0.68674618  0.93630838  0.93402740  1
  Zn  Zn131  1  0.31457135  0.05943729  0.06399082  1
  Zn  Zn132  1  0.31478035  0.06203331  0.56282357  1
  Zn  Zn133  1  0.32012002  0.55798621  0.06046246  1
  Zn  Zn134  1  0.31479366  0.56443458  0.55719822  1
  Zn  Zn135  1  0.81503010  0.06402415  0.06485746  1
  Zn  Zn136  1  0.81287125  0.06638538  0.56100351  1
  Zn  Zn137  1  0.81667887  0.56515808  0.06313884  1
  Zn  Zn138  1  0.81434333  0.56714908  0.56300212  1
  Zn  Zn139  1  0.43660935  0.43417746  0.18564111  1
  Zn  Zn140  1  0.44782471  0.44791250  0.71464605  1
  Zn  Zn141  1  0.43929036  0.93668969  0.19044298  1
  Zn  Zn142  1  0.43295038  0.93433791  0.68951936  1
  Zn  Zn143  1  0.93473859  0.43929630  0.18700535  1
  Zn  Zn144  1  0.93923689  0.43784657  0.68737902  1
  Zn  Zn145  1  0.93434944  0.93907403  0.18691698  1
  Zn  Zn146  1  0.94184166  0.93647703  0.69399210  1
  Zn  Zn147  1  0.06115973  0.06635845  0.30909382  1
  Zn  Zn148  1  0.06618028  0.06042429  0.80920305  1
  Zn  Zn149  1  0.05968201  0.56805317  0.31102923  1
  Zn  Zn150  1  0.06346066  0.56229015  0.81064849  1
  Zn  Zn151  1  0.56579825  0.06714175  0.31979477  1
  Zn  Zn152  1  0.56101465  0.06206959  0.81146459  1
  Zn  Zn153  1  0.55933706  0.56147292  0.30598532  1
  Zn  Zn154  1  0.57329587  0.54777961  0.83479535  1
  Zn  Zn155  1  0.44485085  0.18517223  0.43966894  1
  Zn  Zn156  1  0.43989403  0.19233617  0.93814437  1
  Zn  Zn157  1  0.43577197  0.68301567  0.43639860  1
  Zn  Zn158  1  0.43689154  0.68127734  0.93801327  1
  Zn  Zn159  1  0.93655663  0.18593108  0.43754098  1
  Zn  Zn160  1  0.94134769  0.18784911  0.94137606  1
  Zn  Zn161  1  0.93432896  0.68626035  0.43860928  1
  Zn  Zn162  1  0.93818485  0.69588607  0.93984801  1
  Zn  Zn163  1  0.05651225  0.31922342  0.06925158  1
  Zn  Zn164  1  0.06121099  0.31236067  0.55935162  1
  Zn  Zn165  1  0.06629165  0.83133332  0.05951340  1
  Zn  Zn166  1  0.05988967  0.80912731  0.56069760  1
  Zn  Zn167  1  0.55897980  0.30691410  0.06268363  1
  Zn  Zn168  1  0.56722141  0.31148755  0.55965314  1
  Zn  Zn169  1  0.56339844  0.80946279  0.06613383  1
  Zn  Zn170  1  0.55903074  0.81605278  0.56297310  1
  O  O171  1  0.11589624  0.11745619  0.12813891  1
  O  O172  1  0.12103909  0.11760456  0.62110026  1
  O  O173  1  0.11641438  0.61866042  0.13048360  1
  O  O174  1  0.11465664  0.63493224  0.61342867  1
  O  O175  1  0.61827575  0.11927109  0.12388649  1
  O  O176  1  0.62183076  0.13485694  0.60446702  1
  O  O177  1  0.60994950  0.62484497  0.13017399  1
  O  O178  1  0.61306009  0.61855995  0.63217478  1
  O  O179  1  0.38329186  0.38240430  0.37970634  1
  O  O180  1  0.35791942  0.38039077  0.88013853  1
  O  O181  1  0.37214310  0.88193572  0.38861361  1
  O  O182  1  0.37928511  0.88085891  0.87895634  1
  O  O183  1  0.86936872  0.39342201  0.37283012  1
  O  O184  1  0.88895447  0.37850397  0.87562364  1
  O  O185  1  0.88258036  0.88550960  0.37272814  1
  O  O186  1  0.88059479  0.88347949  0.88202785  1
  O  O187  1  0.26128899  0.00350485  0.36878656  1
  O  O188  1  0.25988480  0.00438189  0.87585179  1
  O  O189  1  0.26529927  0.49628339  0.38118809  1
  O  O190  1  0.23972336  0.51640998  0.87920165  1
  O  O191  1  0.75883952  -0.00374026  0.36832067  1
  O  O192  1  0.75717576  0.00707960  0.86815418  1
  O  O193  1  0.75655536  0.50846369  0.36943567  1
  O  O194  1  0.75769773  0.49453024  0.85876909  1
  O  O195  1  0.23544987  0.50697443  0.12591037  1
  O  O196  1  0.25400864  0.48285677  0.61410529  1
  O  O197  1  0.25852708  0.99236184  0.14073290  1
  O  O198  1  0.23728886  1.00120274  0.62430145  1
  O  O199  1  0.75308512  0.50735926  0.13984752  1
  O  O200  1  0.74663422  0.49380318  0.62745838  1
  O  O201  1  0.74100711  1.00051646  0.13382530  1
  O  O202  1  0.75849700  1.00114611  0.64049752  1
  O  O203  1  0.00143771  0.36206409  0.25079113  1
  O  O204  1  0.00181843  0.36760716  0.75525926  1
  O  O205  1  0.00681734  0.87320887  0.25753694  1
  O  O206  1  0.01262912  0.87044715  0.76079801  1
  O  O207  1  0.51459208  0.37618835  0.25599181  1
  O  O208  1  0.52177835  0.36067679  0.72966863  1
  O  O209  1  0.50694374  0.86437023  0.24831862  1
  O  O210  1  0.50448879  0.86967315  0.75653029  1
  O  O211  1  0.49410226  0.12438023  0.24605484  1
  O  O212  1  0.48343189  0.12202633  0.75266322  1
  O  O213  1  0.49202922  0.63254451  0.24066459  1
  O  O214  1  0.48937586  0.63277312  0.74156324  1
  O  O215  1  0.99290198  0.13222219  0.24280654  1
  O  O216  1  1.00123989  0.13070668  0.74075344  1
  O  O217  1  0.99168189  0.63502763  0.24111185  1
  O  O218  1  0.99293440  0.63517373  0.74278926  1
  O  O219  1  0.36901031  0.23756125  0.01581923  1
  O  O220  1  0.36994789  0.25224336  0.50367688  1
  O  O221  1  0.36929880  0.75365546  0.00931775  1
  O  O222  1  0.37158902  0.75503284  0.50333588  1
  O  O223  1  0.85955864  0.25028953  -0.00199732  1
  O  O224  1  0.86650020  0.24609275  0.50950217  1
  O  O225  1  0.85702915  0.75225520  0.00447566  1
  O  O226  1  0.86526952  0.75246762  0.50839924  1
  O  O227  1  0.13064245  0.24087232  0.49428395  1
  O  O228  1  0.12276320  0.25711965  1.00437270  1
  O  O229  1  0.13238585  0.74714732  0.49263156  1
  O  O230  1  0.13531760  0.75767386  0.99297599  1
  O  O231  1  0.64276048  0.24786060  0.49927337  1
  O  O232  1  0.63632528  0.24321514  0.99144814  1
  O  O233  1  0.63507823  0.75439043  0.50148212  1
  O  O234  1  0.63586939  0.75442464  0.99323002  1
  O  O235  1  0.49296467  0.23602745  0.13386762  1
  O  O236  1  0.48663818  0.25064298  0.61697980  1
  O  O237  1  0.48890167  0.74864545  0.13464693  1
  O  O238  1  0.49215313  0.74310811  0.62792876  1
  O  O239  1  0.99990327  0.24130225  0.14057019  1
  O  O240  1  0.99512415  0.24222202  0.63119724  1
  O  O241  1  0.99629576  0.74815353  0.12963679  1
  O  O242  1  0.99127375  0.74519552  0.63073635  1
  O  O243  1  0.00727043  0.24215088  0.36569772  1
  O  O244  1  0.00117163  0.25615865  0.86767657  1
  O  O245  1  0.00325810  0.75819428  0.36848743  1
  O  O246  1  0.01015198  0.76196270  0.87438052  1
  O  O247  1  0.49423770  0.26507963  0.37416313  1
  O  O248  1  0.51765350  0.23557497  0.86587203  1
  O  O249  1  0.50025981  0.74378297  0.36332292  1
  O  O250  1  0.50393332  0.75459034  0.87045113  1
  O  O251  1  0.24609299  0.12812190  0.49376494  1
  O  O252  1  0.24815495  0.11757382  0.98987793  1
  O  O253  1  0.24244425  0.63945732  0.50514845  1
  O  O254  1  0.25553397  0.63797863  0.99478818  1
  O  O255  1  0.74427308  0.13606868  0.49973332  1
  O  O256  1  0.74721931  0.12965637  0.99008744  1
  O  O257  1  0.75212608  0.63470487  0.49199296  1
  O  O258  1  0.74825164  0.63415694  0.99931484  1
  O  O259  1  0.25074686  0.38436825  0.02409872  1
  O  O260  1  0.25757825  0.36607789  0.50631447  1
  O  O261  1  0.25849107  0.86540990  0.00725154  1
  O  O262  1  0.25854278  0.86212176  0.49901920  1
  O  O263  1  0.75133272  0.36347152  -0.00734344  1
  O  O264  1  0.75678503  0.36308013  0.50509103  1
  O  O265  1  0.75577379  0.87012620  0.00196145  1
  O  O266  1  0.75224130  0.86760664  0.50422491  1
  O  O267  1  0.11837720  0.50252735  0.23885125  1
  O  O268  1  0.12583960  0.50097924  0.74269965  1
  O  O269  1  0.13754543  0.99135211  0.26202615  1
  O  O270  1  0.12837779  0.98910994  0.74077593  1
  O  O271  1  0.63639235  0.49089454  0.25210824  1
  O  O272  1  0.63526858  0.49045199  0.73885643  1
  O  O273  1  0.62894048  0.99664616  0.24928951  1
  O  O274  1  0.63523819  0.99264102  0.75809589  1
  O  O275  1  0.37219870  0.00608576  0.25869580  1
  O  O276  1  0.37072796  0.00330808  0.75821285  1
  O  O277  1  0.37888650  0.51052003  0.25610236  1
  O  O278  1  0.35629372  0.51788269  0.73844739  1
  O  O279  1  0.86576529  0.00585220  0.25574687  1
  O  O280  1  0.86867106  -0.00014220  0.76252096  1
  O  O281  1  0.86423288  0.50639208  0.25859333  1
  O  O282  1  0.87002664  0.51132713  0.74816968  1
  O  O283  1  0.13050464  0.36092448  0.37645299  1
  O  O284  1  0.11321359  0.37401071  0.87276714  1
  O  O285  1  0.11845842  0.86730660  0.36823761  1
  O  O286  1  0.12892030  0.86172286  0.86084012  1
  O  O287  1  0.61593501  0.38178362  0.37282448  1
  O  O288  1  0.63098366  0.36034745  0.86082045  1
  O  O289  1  0.62708372  0.87262011  0.36463041  1
  O  O290  1  0.61710850  0.86864339  0.86707977  1
  O  O291  1  0.38199187  0.12523462  0.13501777  1
  O  O292  1  0.36649299  0.13425134  0.63483411  1
  O  O293  1  0.37956102  0.63031130  0.13676999  1
  O  O294  1  0.38364466  0.63251271  0.62792210  1
  O  O295  1  0.87657636  0.12930497  0.13851390  1
  O  O296  1  0.88464873  0.13125915  0.62817081  1
  O  O297  1  0.88204279  0.63436479  0.13268851  1
  O  O298  1  0.88154347  0.63812951  0.63151683  1
  O  O299  1  0.25677186  0.25306161  0.12882309  1
  O  O300  1  0.25835552  0.25512171  0.61720284  1
  O  O301  1  0.25965510  0.75334031  0.12095902  1
  O  O302  1  0.26339136  0.74768390  0.61877883  1
  O  O303  1  0.74826015  0.24318302  0.10723069  1
  O  O304  1  0.76109558  0.25606067  0.62260684  1
  O  O305  1  0.75072890  0.75032349  0.11406826  1
  O  O306  1  0.75639378  0.75185770  0.61937364  1
  O  O307  1  0.24473051  0.24354777  0.38089629  1
  O  O308  1  0.24591804  0.23270123  0.87126993  1
  O  O309  1  0.23977950  0.75328947  0.38251998  1
  O  O310  1  0.24495706  0.74294576  0.88414420  1
  O  O311  1  0.75999689  0.25298450  0.38583429  1
  O  O312  1  0.74544488  0.24137477  0.87967268  1
  O  O313  1  0.74758093  0.74264385  0.38405009  1
  O  O314  1  0.74219359  0.75547715  0.88915688  1
  O  O315  1  -0.00413107  0.12824147  0.01992881  1
  O  O316  1  0.00583927  0.12371317  0.51237508  1
  O  O317  1  -0.00434327  0.62499711  0.01278630  1
  O  O318  1  0.00836581  0.62825124  0.50786164  1
  O  O319  1  0.50808398  0.12416489  0.01000554  1
  O  O320  1  0.50340360  0.10722494  0.50120269  1
  O  O321  1  0.49530905  0.63336119  0.02050794  1
  O  O322  1  0.49659140  0.61309281  0.50806334  1
  O  O323  1  0.49854591  0.38493665  0.49461969  1
  O  O324  1  0.48399690  0.34459127  0.99099800  1
  O  O325  1  0.49465534  0.88952147  0.50140769  1
  O  O326  1  0.49485308  0.87411588  0.99477561  1
  O  O327  1  0.99463915  0.37962424  0.50372192  1
  O  O328  1  0.99563813  0.38687548  0.99434563  1
  O  O329  1  0.99699184  0.87430907  0.48629935  1
  O  O330  1  0.97122832  0.85101992  0.99595517  1
  O  O331  1  0.49588674  0.49573792  0.38269839  1
  O  O332  1  0.47993178  0.48396293  0.82634950  1
  O  O333  1  0.48922057  0.99996074  0.37926880  1
  O  O334  1  0.48818662  0.99429176  0.87719664  1
  O  O335  1  0.98151043  0.51138527  0.37476286  1
  O  O336  1  1.00011813  0.49685899  0.88498560  1
  O  O337  1  0.99383550  0.99204752  0.37446795  1
  O  O338  1  0.99289439  0.99306010  0.86953667  1
  O  O339  1  -0.00201756  0.01329861  0.13195183  1
  O  O340  1  0.00844999  0.00719270  0.62557605  1
  O  O341  1  0.00523939  0.51219875  0.12209817  1
  O  O342  1  -0.00862271  0.51642580  0.62041060  1
  O  O343  1  0.50577911  0.00977522  0.12612056  1
  O  O344  1  0.49800998  -0.00150630  0.61771132  1
  O  O345  1  0.49900231  0.50910813  0.12725567  1
  O  O346  1  0.50791217  0.50697341  0.62202001  1
  O  O347  1  0.24625663  0.37579718  0.23713235  1
  O  O348  1  0.24786025  0.37417535  0.73286235  1
  O  O349  1  0.24494122  0.88081695  0.25047073  1
  O  O350  1  0.23811449  0.87344524  0.74938815  1
  O  O351  1  0.73777992  0.38786350  0.25140752  1
  O  O352  1  0.74657549  0.37983583  0.74008580  1
  O  O353  1  0.74078189  0.88688192  0.24803774  1
  O  O354  1  0.74138662  0.88371130  0.75074947  1
  O  O355  1  0.26079570  0.11451899  0.25842198  1
  O  O356  1  0.26019337  0.11977775  0.76145923  1
  O  O357  1  0.26643718  0.63098711  0.24945330  1
  O  O358  1  0.25522725  0.63193048  0.75941683  1
  O  O359  1  0.75653930  0.11437841  0.24956583  1
  O  O360  1  0.75247127  0.11939500  0.76023087  1
  O  O361  1  0.75176064  0.61665576  0.25644190  1
  O  O362  1  0.76076961  0.61536171  0.74125212  1
  O  O363  1  0.37290632  0.11751526  0.37039515  1
  O  O364  1  0.36721259  0.11797470  0.87292367  1
  O  O365  1  0.38006032  0.61575657  0.36098430  1
  O  O366  1  0.36536809  0.62496410  0.86508577  1
  O  O367  1  0.88270896  0.11184063  0.36464255  1
  O  O368  1  0.87021381  0.11832952  0.87480509  1
  O  O369  1  0.86399796  0.62090426  0.36849098  1
  O  O370  1  0.88141718  0.62958342  0.86145546  1
  O  O371  1  0.12920827  0.39017333  0.13308140  1
  O  O372  1  0.14225600  0.36645547  0.62203854  1
  O  O373  1  0.13415769  0.87052097  0.14316448  1
  O  O374  1  0.11727150  0.88167022  0.62988670  1
  O  O375  1  0.62148276  0.37474336  0.13298856  1
  O  O376  1  0.63990556  0.37999247  0.62525342  1
  O  O377  1  0.62309826  0.88408737  0.13583224  1
  O  O378  1  0.62515169  0.87312363  0.63976091  1
  O  O379  1  0.10966982  0.25134958  0.26062705  1
  O  O380  1  0.11467978  0.25048093  0.74975078  1
  O  O381  1  0.12078113  0.75663984  0.25776451  1
  O  O382  1  0.11921795  0.75439212  0.75458960  1
  O  O383  1  0.62847500  0.26710478  0.24832630  1
  O  O384  1  0.63078394  0.25213639  0.75447015  1
  O  O385  1  0.61667843  0.75909203  0.25158925  1
  O  O386  1  0.62066519  0.76076351  0.75520716  1
  O  O387  1  0.37505976  0.23604557  0.24735281  1
  O  O388  1  0.37759104  0.24186871  0.74024291  1
  O  O389  1  0.38041678  0.74235157  0.24587686  1
  O  O390  1  0.37810693  0.74461653  0.74192246  1
  O  O391  1  0.88490441  0.24236919  0.25470726  1
  O  O392  1  0.88477368  0.24810925  0.74007137  1
  O  O393  1  0.87596659  0.74904421  0.24414550  1
  O  O394  1  0.87733184  0.74755220  0.74530564  1
  O  O395  1  0.38521971  0.49542920  0.49314885  1
  O  O396  1  0.38150333  0.49748091  0.99337929  1
  O  O397  1  0.38354070  0.99368181  0.49731092  1
  O  O398  1  0.37820603  0.99168576  0.99362979  1
  O  O399  1  0.87241843  0.50287832  0.48516713  1
  O  O400  1  0.88695218  0.50361821  0.99859008  1
  O  O401  1  0.87716963  0.99875244  0.49196837  1
  O  O402  1  0.86809621  0.99210436  0.98864890  1
  O  O403  1  0.08813639  -0.07002603  -0.01915978  1
  O  O404  1  0.12305812  0.00282782  0.50433741  1
  O  O405  1  0.11196480  0.50046745  0.01592690  1
  O  O406  1  0.12466596  0.51642503  0.49095252  1
  O  O407  1  0.62485379  0.00489479  0.00726092  1
  O  O408  1  0.61515098  0.00497287  0.50176096  1
  O  O409  1  0.59706774  0.50043588  -0.06047598  1
  O  O410  1  0.62049576  0.49596403  0.51310230  1
  O  O411  1  0.36692697  0.36074428  0.12985403  1
  O  O412  1  0.36758856  0.36560817  0.61792254  1
  O  O413  1  0.37120498  0.86577832  0.12378953  1
  O  O414  1  0.37936323  0.86569775  0.61262508  1
  O  O415  1  0.87693168  0.36785263  0.12509035  1
  O  O416  1  0.86665930  0.36809979  0.62499373  1
  O  O417  1  0.86906335  0.86994004  0.11891993  1
  O  O418  1  0.87635374  0.86383937  0.62723512  1
  O  O419  1  0.13019621  0.13203479  0.38029325  1
  O  O420  1  0.14009686  0.12116924  0.87274224  1
  O  O421  1  0.11782851  0.63965750  0.38159497  1
  O  O422  1  0.12925271  0.63937326  0.87253582  1
  O  O423  1  0.61602355  0.13135087  0.39671260  1
  O  O424  1  0.63528864  0.12627639  0.87980627  1
  O  O425  1  0.63555074  0.62598348  0.36951212  1
  O  O426  1  0.62508163  0.64520220  0.85777102  1
