# generated using pymatgen
data_V85Zn86O256
_symmetry_space_group_name_H-M   'P 1'
_cell_length_a   16.98443996
_cell_length_b   16.96651588
_cell_length_c   16.97228279
_cell_angle_alpha   89.99773268
_cell_angle_beta   89.95512863
_cell_angle_gamma   89.97391540
_symmetry_Int_Tables_number   1
_chemical_formula_structural   V85Zn86O256
_chemical_formula_sum   'V85 Zn86 O256'
_cell_volume   4890.84590675
_cell_formula_units_Z   1
loop_
 _symmetry_equiv_pos_site_id
 _symmetry_equiv_pos_as_xyz
  1  'x, y, z'
loop_
 _atom_site_type_symbol
 _atom_site_label
 _atom_site_symmetry_multiplicity
 _atom_site_fract_x
 _atom_site_fract_y
 _atom_site_fract_z
 _atom_site_occupancy
  V  V0  1  -0.00953896  0.73707742  0.74329764  1
  V  V1  1  0.88154210  -0.01054110  0.37189900  1
  V  V2  1  0.86306089  0.75202329  0.12517808  1
  V  V3  1  0.74818157  0.37436338  0.62038691  1
  V  V4  1  0.37633450  0.87682501  0.50364674  1
  V  V5  1  0.25102055  0.38760114  0.11940246  1
  V  V6  1  0.75585537  0.51152944  0.75323141  1
  V  V7  1  0.74436297  -0.00729007  0.74564992  1
  V  V8  1  0.37485560  0.62822399  0.24927428  1
  V  V9  1  0.50169642  0.25026145  0.24780156  1
  V  V10  1  0.24724317  0.87370479  0.12336565  1
  V  V11  1  0.13922008  0.62199522  0.00410636  1
  V  V12  1  0.87935793  0.37871373  -0.01315463  1
  V  V13  1  0.75056547  0.12175851  0.37383853  1
  V  V14  1  0.49686893  0.00111192  -0.00851435  1
  V  V15  1  0.75185185  0.25049181  -0.00169324  1
  V  V16  1  0.75528543  0.37683704  0.12408484  1
  V  V17  1  0.75301677  0.50109751  0.25100657  1
  V  V18  1  0.37446047  0.25271458  0.62565100  1
  V  V19  1  0.88541614  0.62803877  0.25559476  1
  V  V20  1  0.24565406  0.50360759  0.24606745  1
  V  V21  1  0.87223523  -0.00546330  0.87390587  1
  V  V22  1  0.48931956  0.74409502  0.75064514  1
  V  V23  1  0.61893434  0.61594438  0.49973168  1
  V  V24  1  0.00067059  0.25336878  0.24751771  1
  V  V25  1  0.37781797  0.38379471  0.50285129  1
  V  V26  1  0.38010675  0.37920728  -0.00460173  1
  V  V27  1  0.37668431  0.25272782  0.12215898  1
  V  V28  1  0.06787984  0.29627044  0.80006762  1
  V  V29  1  0.12676328  0.12715585  0.49954746  1
  V  V30  1  0.37679254  0.12241999  0.75623342  1
  V  V31  1  0.37074391  0.75258913  0.11791696  1
  V  V32  1  0.12512111  0.37948723  0.24372442  1
  V  V33  1  0.62620458  0.37473070  0.25052615  1
  V  V34  1  0.67269197  0.67347309  -0.05508833  1
  V  V35  1  -0.00086643  0.00162327  -0.00127530  1
  V  V36  1  0.74241760  0.76293683  0.51433432  1
  V  V37  1  0.86041011  0.87037868  0.00386867  1
  V  V38  1  0.25293091  0.00161957  0.75648124  1
  V  V39  1  0.62761983  0.86542634  0.74499965  1
  V  V40  1  0.00592595  0.50159391  -0.01015073  1
  V  V41  1  0.49837906  0.75302065  0.24800944  1
  V  V42  1  0.37631625  0.12604488  0.24813788  1
  V  V43  1  0.00107827  0.11984392  0.62349115  1
  V  V44  1  0.74674416  -0.00299693  0.23679270  1
  V  V45  1  0.24947808  0.12817792  0.87655605  1
  V  V46  1  0.37153506  0.50179961  0.86110134  1
  V  V47  1  0.88357108  0.49169643  0.37447683  1
  V  V48  1  0.50263910  0.12409138  0.62569407  1
  V  V49  1  0.62436974  0.75230856  0.37348712  1
  V  V50  1  0.25235558  0.12747623  0.37260528  1
  V  V51  1  0.25259596  0.25512056  0.50192129  1
  V  V52  1  0.87577734  0.12601487  0.24685619  1
  V  V53  1  0.62757434  0.37436895  0.74851855  1
  V  V54  1  0.75489174  0.24813671  0.49648988  1
  V  V55  1  0.38013683  0.50299366  0.37515324  1
  V  V56  1  0.24330040  0.62742728  0.37904696  1
  V  V57  1  0.12950730  -0.00240845  0.62807933  1
  V  V58  1  0.00127700  0.87487833  0.87623091  1
  V  V59  1  0.62785666  0.12221517  0.50023758  1
  V  V60  1  0.74903200  0.62409800  0.37651925  1
  V  V61  1  0.50280095  0.86978262  0.87422586  1
  V  V62  1  0.62745263  0.11837342  0.00114450  1
  V  V63  1  0.62729058  0.24979402  0.87508806  1
  V  V64  1  0.36881685  0.87954459  -0.00696134  1
  V  V65  1  0.37647708  0.00049216  0.37435439  1
  V  V66  1  0.12616168  0.25118720  0.37331597  1
  V  V67  1  0.50114257  0.37662787  0.37835058  1
  V  V68  1  0.00575897  0.62416174  0.12389673  1
  V  V69  1  0.11946554  0.76243294  0.37030232  1
  V  V70  1  0.93154618  0.42397427  0.55457024  1
  V  V71  1  0.12667820  0.00342934  0.12176220  1
  V  V72  1  0.23047730  0.48554118  0.73915416  1
  V  V73  1  0.00508372  -0.00907953  0.49018235  1
  V  V74  1  0.12950242  0.75199362  0.88105478  1
  V  V75  1  0.87402559  0.23791939  0.62376948  1
  V  V76  1  0.62843754  0.87783306  0.23657981  1
  V  V77  1  0.50406922  0.11764008  0.12380834  1
  V  V78  1  0.50108434  0.37574330  0.87458448  1
  V  V79  1  0.48526276  0.61741861  0.62176563  1
  V  V80  1  0.25238533  0.62731899  0.86261397  1
  V  V81  1  0.25104862  0.74821782  0.50120106  1
  V  V82  1  0.24374624  0.25401672  -0.00400017  1
  V  V83  1  0.87503338  0.12003236  0.75069117  1
  V  V84  1  0.61994585  0.50292322  0.12200275  1
  Zn  Zn85  1  0.25355144  0.87497600  0.62926419  1
  Zn  Zn86  1  0.50001754  0.87678706  0.37433078  1
  Zn  Zn87  1  0.74920383  0.12326014  0.87426906  1
  Zn  Zn88  1  0.50077499  -0.00019485  0.49915718  1
  Zn  Zn89  1  0.12553766  0.87485054  0.75291557  1
  Zn  Zn90  1  0.00309806  0.37689481  0.38183599  1
  Zn  Zn91  1  0.00130787  0.12804951  0.12302740  1
  Zn  Zn92  1  0.87839889  0.25230616  0.12083377  1
  Zn  Zn93  1  0.36930828  0.74630388  0.62890344  1
  Zn  Zn94  1  0.62456037  -0.00809909  0.62056600  1
  Zn  Zn95  1  0.11683695  0.13645825  0.00014330  1
  Zn  Zn96  1  0.61836167  0.49740946  0.62041824  1
  Zn  Zn97  1  0.00288354  0.59752731  0.61808400  1
  Zn  Zn98  1  0.11570903  0.88291413  0.24992925  1
  Zn  Zn99  1  0.51011593  0.63555950  0.11624088  1
  Zn  Zn100  1  0.50159469  0.25023396  0.74962916  1
  Zn  Zn101  1  -0.00404474  0.76156165  0.25080043  1
  Zn  Zn102  1  0.89460125  0.85519017  0.50939705  1
  Zn  Zn103  1  0.62481143  0.24893001  0.37364588  1
  Zn  Zn104  1  0.24973913  0.00224673  0.24744085  1
  Zn  Zn105  1  0.87051851  0.52053040  0.87820029  1
  Zn  Zn106  1  0.53359515  0.53932393  -0.03358358  1
  Zn  Zn107  1  0.18967996  0.19083391  0.18217094  1
  Zn  Zn108  1  0.17953713  0.21343991  0.68640566  1
  Zn  Zn109  1  0.18795191  0.68931560  0.18830059  1
  Zn  Zn110  1  0.18391857  0.69129543  0.69347539  1
  Zn  Zn111  1  0.68824330  0.18836563  0.18437437  1
  Zn  Zn112  1  0.69128478  0.18337872  0.68791361  1
  Zn  Zn113  1  0.68918576  0.68553014  0.18865483  1
  Zn  Zn114  1  0.67506173  0.68812995  0.68444082  1
  Zn  Zn115  1  0.31389495  0.31405444  0.31041941  1
  Zn  Zn116  1  0.30889051  0.31207374  0.81007404  1
  Zn  Zn117  1  0.30971946  0.81723201  0.30969670  1
  Zn  Zn118  1  0.31158062  0.81488960  0.81473055  1
  Zn  Zn119  1  0.81450379  0.31165200  0.31174724  1
  Zn  Zn120  1  0.81853319  0.31154283  0.80751071  1
  Zn  Zn121  1  0.81024796  0.81315123  0.31475641  1
  Zn  Zn122  1  0.81089778  0.69408671  0.81294210  1
  Zn  Zn123  1  0.19441405  0.43336345  0.43135787  1
  Zn  Zn124  1  0.18041918  0.43401792  0.92231098  1
  Zn  Zn125  1  0.19194487  0.93749579  0.43963508  1
  Zn  Zn126  1  0.18830151  0.94389911  0.93638037  1
  Zn  Zn127  1  0.69054017  0.43697049  0.43656694  1
  Zn  Zn128  1  0.69192226  0.43889082  0.93619554  1
  Zn  Zn129  1  0.68573775  0.93887114  0.42830097  1
  Zn  Zn130  1  0.68422518  0.93477117  0.93125083  1
  Zn  Zn131  1  0.31412557  0.06335223  0.06080883  1
  Zn  Zn132  1  0.31352666  0.06590392  0.56407596  1
  Zn  Zn133  1  0.33875635  0.57308383  0.04731038  1
  Zn  Zn134  1  0.18889711  0.56281884  0.56456936  1
  Zn  Zn135  1  0.81407089  0.06320282  0.06171380  1
  Zn  Zn136  1  0.83190483  0.01761140  0.57643394  1
  Zn  Zn137  1  0.81529355  0.56590367  0.06180036  1
  Zn  Zn138  1  0.80155267  0.56713574  0.57205246  1
  Zn  Zn139  1  0.43682535  0.43817305  0.18969867  1
  Zn  Zn140  1  0.43571083  0.43773592  0.68723839  1
  Zn  Zn141  1  0.43773377  0.93759509  0.18489588  1
  Zn  Zn142  1  0.43910941  0.93887548  0.68788780  1
  Zn  Zn143  1  0.94101339  0.44316175  0.18377952  1
  Zn  Zn144  1  0.95287788  0.44288548  0.72815166  1
  Zn  Zn145  1  0.93743348  0.93772759  0.18357233  1
  Zn  Zn146  1  0.93677331  0.91966432  0.68760397  1
  Zn  Zn147  1  0.06362831  0.06441037  0.30804214  1
  Zn  Zn148  1  0.07520598  0.09541098  0.80490404  1
  Zn  Zn149  1  0.06556414  0.56818450  0.42804869  1
  Zn  Zn150  1  0.06502714  0.56765485  0.81383359  1
  Zn  Zn151  1  0.56370846  0.06076237  0.31143696  1
  Zn  Zn152  1  0.56267043  0.06011630  0.81363748  1
  Zn  Zn153  1  0.56146436  0.56474229  0.30762176  1
  Zn  Zn154  1  0.56427568  0.56205359  0.80039400  1
  Zn  Zn155  1  0.43983966  0.18939270  0.43782702  1
  Zn  Zn156  1  0.43697799  0.19105827  0.93609698  1
  Zn  Zn157  1  0.43606156  0.68806335  0.43971309  1
  Zn  Zn158  1  0.43563103  0.68973767  0.93687549  1
  Zn  Zn159  1  0.93908580  0.18334743  0.43455649  1
  Zn  Zn160  1  0.93799897  0.18921350  0.93276238  1
  Zn  Zn161  1  0.90836095  0.66130035  0.48077827  1
  Zn  Zn162  1  0.94395050  0.69145989  0.94220949  1
  Zn  Zn163  1  0.06272439  0.31991710  0.06238379  1
  Zn  Zn164  1  0.07110000  0.30702536  0.58349993  1
  Zn  Zn165  1  0.05958625  0.81018630  0.06346903  1
  Zn  Zn166  1  0.06912780  0.72688582  0.55965039  1
  Zn  Zn167  1  0.56444783  0.31402511  0.06073575  1
  Zn  Zn168  1  0.56357169  0.30807297  0.56017189  1
  Zn  Zn169  1  0.56260295  0.81410607  0.05990853  1
  Zn  Zn170  1  0.55689191  0.80717244  0.56362819  1
  O  O171  1  0.12478726  0.11852399  0.11924498  1
  O  O172  1  0.11607486  0.12349909  0.61900730  1
  O  O173  1  0.11905820  0.63185906  0.11643679  1
  O  O174  1  0.11769623  0.63558727  0.62024480  1
  O  O175  1  0.61521953  0.13238411  0.11333653  1
  O  O176  1  0.61869306  0.12543813  0.61696548  1
  O  O177  1  0.62436996  0.60757156  0.13279626  1
  O  O178  1  0.61565949  0.62075704  0.61310110  1
  O  O179  1  0.38338187  0.38112661  0.37748674  1
  O  O180  1  0.38240587  0.37734207  0.87727687  1
  O  O181  1  0.37559252  0.88605614  0.37979166  1
  O  O182  1  0.38298814  0.87235480  0.88757748  1
  O  O183  1  0.88066526  0.38402443  0.36847028  1
  O  O184  1  0.86707952  0.38072580  0.88604765  1
  O  O185  1  0.86846876  0.88872981  0.38278104  1
  O  O186  1  0.88333727  0.88639055  0.88869168  1
  O  O187  1  0.26144651  0.00895411  0.37274992  1
  O  O188  1  0.25638499  0.00462589  0.86273987  1
  O  O189  1  0.26294150  0.50742969  0.36523024  1
  O  O190  1  0.25360852  0.50554767  0.86358718  1
  O  O191  1  0.75869253  0.01072999  0.36834765  1
  O  O192  1  0.75672373  -0.00062799  0.86603180  1
  O  O193  1  0.75966126  0.50272592  0.36978468  1
  O  O194  1  0.74839488  0.49762823  0.85623632  1
  O  O195  1  0.26367760  0.49045579  0.12932513  1
  O  O196  1  0.24938029  0.50410007  0.64212204  1
  O  O197  1  0.24163424  0.99658326  0.12282601  1
  O  O198  1  0.24440497  1.00704331  0.63574842  1
  O  O199  1  0.74352968  0.49387074  0.13154571  1
  O  O200  1  0.74514533  0.48961437  0.63292409  1
  O  O201  1  0.75111820  1.00651461  0.13814807  1
  O  O202  1  0.73970654  1.00618693  0.64187896  1
  O  O203  1  0.01066861  0.37200667  0.24680677  1
  O  O204  1  -0.01686326  0.34745956  0.76542183  1
  O  O205  1  0.00218889  0.87447913  0.24596348  1
  O  O206  1  0.00378971  0.88196782  0.76788399  1
  O  O207  1  0.50463028  0.37013795  0.25859766  1
  O  O208  1  0.51155647  0.37260711  0.75418855  1
  O  O209  1  0.50446105  0.86627158  0.25067858  1
  O  O210  1  0.50186667  0.86981621  0.75811073  1
  O  O211  1  0.49854407  0.12932775  0.24065580  1
  O  O212  1  0.49559525  0.12691051  0.74338681  1
  O  O213  1  0.49408478  0.63825970  0.24452170  1
  O  O214  1  0.50491670  0.63304144  0.73494252  1
  O  O215  1  0.99213786  0.13533834  0.24724593  1
  O  O216  1  0.98281442  0.11087091  0.73731699  1
  O  O217  1  0.98798989  0.63018208  0.24412882  1
  O  O218  1  1.00066471  0.63287315  0.74132153  1
  O  O219  1  0.36940051  0.26255069  0.00292764  1
  O  O220  1  0.37063100  0.25570109  0.50534826  1
  O  O221  1  0.37875379  0.76324962  0.01196274  1
  O  O222  1  0.36622970  0.75959588  0.49973902  1
  O  O223  1  0.87020299  0.25845720  0.00011807  1
  O  O224  1  0.86069303  0.23819802  0.50342274  1
  O  O225  1  0.87862259  0.76517624  0.00829943  1
  O  O226  1  0.84563230  0.75657139  0.48462672  1
  O  O227  1  0.13547253  0.24907808  0.49691157  1
  O  O228  1  0.13978909  0.25256923  1.00830426  1
  O  O229  1  0.14503635  0.76409463  0.48385023  1
  O  O230  1  0.11975945  0.73979052  0.98867755  1
  O  O231  1  0.63631979  0.23915351  0.49721101  1
  O  O232  1  0.63141799  0.24288423  0.99391483  1
  O  O233  1  0.62720664  0.74277371  0.49112428  1
  O  O234  1  0.61434818  0.73197751  1.00513300  1
  O  O235  1  0.49533352  0.24360766  0.12757265  1
  O  O236  1  0.49489688  0.23920719  0.62583528  1
  O  O237  1  0.49023430  0.75226415  0.13225452  1
  O  O238  1  0.49437872  0.73877655  0.63219068  1
  O  O239  1  1.00002643  0.25126913  0.13586769  1
  O  O240  1  0.98074390  0.23079224  0.61309193  1
  O  O241  1  0.99084357  0.73878628  0.12583148  1
  O  O242  1  1.00475500  0.76862994  0.64726300  1
  O  O243  1  0.00642625  0.25347004  0.36353691  1
  O  O244  1  0.01256063  0.24168281  0.87017947  1
  O  O245  1  0.02189471  0.75398988  0.37407492  1
  O  O246  1  0.00779870  0.75982715  0.86901423  1
  O  O247  1  0.50177232  0.25798166  0.36608257  1
  O  O248  1  0.51028869  0.25725994  0.87241613  1
  O  O249  1  0.50837464  0.74940923  0.36675421  1
  O  O250  1  0.49429934  0.75749874  0.86616234  1
  O  O251  1  0.24722373  0.13540242  0.49284375  1
  O  O252  1  0.25943848  0.13929407  0.99469662  1
  O  O253  1  0.25316999  0.63583883  0.49010790  1
  O  O254  1  0.24158581  0.61646585  0.99321023  1
  O  O255  1  0.74259440  0.12898797  0.48894520  1
  O  O256  1  0.74288375  0.12988533  0.99819221  1
  O  O257  1  0.73626386  0.63359200  0.49309175  1
  O  O258  1  0.73856973  0.62094487  1.00080967  1
  O  O259  1  0.25385417  0.37168929  0.00293820  1
  O  O260  1  0.26305508  0.36184630  0.49259122  1
  O  O261  1  0.25960407  0.88441253  0.00892225  1
  O  O262  1  0.26401885  0.87190793  0.50282754  1
  O  O263  1  0.75807538  0.37235491  0.00717544  1
  O  O264  1  0.74210913  0.36381056  0.51121570  1
  O  O265  1  0.76224197  0.88013739  -0.00455320  1
  O  O266  1  0.73223700  0.86249622  0.49962966  1
  O  O267  1  0.14394073  0.49185112  0.25214103  1
  O  O268  1  0.12981904  0.49652539  0.75173307  1
  O  O269  1  0.12762306  1.00353633  0.23459780  1
  O  O270  1  0.13564222  1.00812261  0.74337952  1
  O  O271  1  0.63251592  0.49289707  0.24421295  1
  O  O272  1  0.63642938  0.48762286  0.74578709  1
  O  O273  1  0.63440133  0.99047547  0.25526621  1
  O  O274  1  0.62851137  0.98969483  0.75049319  1
  O  O275  1  0.37574933  0.00828355  0.25616421  1
  O  O276  1  0.36873785  0.01479446  0.74168901  1
  O  O277  1  0.36817667  0.50590204  0.25538881  1
  O  O278  1  0.36777630  0.49533911  0.75928479  1
  O  O279  1  0.86908923  0.00819887  0.25410257  1
  O  O280  1  0.86498612  -0.00198630  0.75895610  1
  O  O281  1  0.87266659  0.50790376  0.25705300  1
  O  O282  1  0.85986799  0.50108353  0.75371338  1
  O  O283  1  0.12620544  0.36768151  0.35969035  1
  O  O284  1  0.12340213  0.35769449  0.85912623  1
  O  O285  1  0.14042544  0.86633639  0.36633999  1
  O  O286  1  0.11918987  0.86971256  0.87909957  1
  O  O287  1  0.61771991  0.37453339  0.36946231  1
  O  O288  1  0.62204105  0.37091912  0.86805721  1
  O  O289  1  0.61953728  0.86637388  0.36516430  1
  O  O290  1  0.60942308  0.87782730  0.86411859  1
  O  O291  1  0.38381679  0.13225217  0.12863657  1
  O  O292  1  0.38420004  0.13487505  0.62936129  1
  O  O293  1  0.36618038  0.63990322  0.13598731  1
  O  O294  1  0.38774593  0.62486690  0.61883524  1
  O  O295  1  0.87549217  0.12898691  0.13646240  1
  O  O296  1  0.87757745  0.12109190  0.63003503  1
  O  O297  1  0.88026592  0.63295076  0.13366381  1
  O  O298  1  0.89301642  0.62194662  0.58992966  1
  O  O299  1  0.25978413  0.26329808  0.11863839  1
  O  O300  1  0.26289798  0.24236238  0.61323009  1
  O  O301  1  0.25833223  0.76172985  0.12796329  1
  O  O302  1  0.25072710  0.75355622  0.61686456  1
  O  O303  1  0.75205640  0.26033626  0.11694595  1
  O  O304  1  0.75688625  0.25284250  0.61669316  1
  O  O305  1  0.76352451  0.74659091  0.12905512  1
  O  O306  1  0.74167644  0.75012860  0.61262093  1
  O  O307  1  0.24680697  0.24628063  0.37983343  1
  O  O308  1  0.25687242  0.24207614  0.88558095  1
  O  O309  1  0.25413359  0.74195324  0.37881524  1
  O  O310  1  0.24251270  0.74124125  0.87130667  1
  O  O311  1  0.74970355  0.24050826  0.37916049  1
  O  O312  1  0.74417032  0.24966464  0.88047962  1
  O  O313  1  0.73375847  0.74322377  0.37165349  1
  O  O314  1  0.72076927  0.72848772  0.87463872  1
  O  O315  1  -0.00153680  0.11693464  0.00259154  1
  O  O316  1  0.01135972  0.12180588  0.50286583  1
  O  O317  1  0.01254991  0.61935910  0.00703172  1
  O  O318  1  0.01694340  0.64258687  0.49812947  1
  O  O319  1  0.50463521  0.11964556  0.00363983  1
  O  O320  1  0.51039545  0.12681169  0.50633795  1
  O  O321  1  0.46176369  0.61048395  0.01555180  1
  O  O322  1  0.50565223  0.63030562  0.51124228  1
  O  O323  1  0.49486254  0.36725339  0.48567661  1
  O  O324  1  0.49277894  0.37383602  0.99085808  1
  O  O325  1  0.48907553  0.87601986  0.49633088  1
  O  O326  1  0.49593685  0.88335420  0.99335448  1
  O  O327  1  1.00048746  0.36557003  0.50631294  1
  O  O328  1  0.99059746  0.38833933  1.00799648  1
  O  O329  1  1.00542030  0.89132594  0.49462727  1
  O  O330  1  0.99459061  0.88177808  0.99219852  1
  O  O331  1  0.48832174  0.49309594  0.36592074  1
  O  O332  1  0.49051099  0.49202011  0.86823299  1
  O  O333  1  0.48773344  1.00181825  0.37685870  1
  O  O334  1  0.49923518  0.99384006  0.88588415  1
  O  O335  1  0.98753640  0.49747765  0.37764700  1
  O  O336  1  0.99478300  0.50702543  0.88583226  1
  O  O337  1  0.99387987  1.00677863  0.37724302  1
  O  O338  1  0.99387096  0.99681879  0.88693954  1
  O  O339  1  0.00595306  0.00345427  0.11308777  1
  O  O340  1  0.01015360  0.00949150  0.61348591  1
  O  O341  1  -0.00489925  0.51776677  0.11546109  1
  O  O342  1  -0.01289185  0.47794165  0.62350993  1
  O  O343  1  0.49743809  0.01303702  0.11607567  1
  O  O344  1  0.50138384  0.01390348  0.62132150  1
  O  O345  1  0.51786983  0.49693455  0.13373365  1
  O  O346  1  0.50067124  0.51240362  0.62906158  1
  O  O347  1  0.24834880  0.38157770  0.24028435  1
  O  O348  1  0.25194297  0.38708201  0.74910355  1
  O  O349  1  0.25136149  0.88290089  0.23368648  1
  O  O350  1  0.24778923  0.88642415  0.74932391  1
  O  O351  1  0.74638792  0.37892774  0.24252391  1
  O  O352  1  0.74715194  0.37784429  0.73657541  1
  O  O353  1  0.74128294  0.88538149  0.25436754  1
  O  O354  1  0.72824584  0.87734413  0.75428887  1
  O  O355  1  0.25869587  0.12738287  0.25405042  1
  O  O356  1  0.26133000  0.12217972  0.75932796  1
  O  O357  1  0.25602213  0.61883473  0.25532441  1
  O  O358  1  0.24410604  0.61701523  0.76058052  1
  O  O359  1  0.75473844  0.12187791  0.25570472  1
  O  O360  1  0.75762325  0.11337106  0.75375720  1
  O  O361  1  0.75954767  0.61867702  0.25750799  1
  O  O362  1  0.74615724  0.61487771  0.74126511  1
  O  O363  1  0.37273593  0.12097605  0.36921101  1
  O  O364  1  0.37016638  0.12980870  0.86476400  1
  O  O365  1  0.37157861  0.61828149  0.36949561  1
  O  O366  1  0.36254636  0.61437742  0.87988426  1
  O  O367  1  0.86800449  0.12283890  0.36075849  1
  O  O368  1  0.87387952  0.11201693  0.86799565  1
  O  O369  1  0.86904005  0.61504105  0.37254298  1
  O  O370  1  0.87291660  0.63251489  0.88252650  1
  O  O371  1  0.13704041  0.37432560  0.13554181  1
  O  O372  1  0.11165122  0.30907076  0.68560245  1
  O  O373  1  0.13317522  0.88194645  0.12202354  1
  O  O374  1  0.12976170  0.89560577  0.62914918  1
  O  O375  1  0.63565251  0.38056395  0.13092290  1
  O  O376  1  0.63098631  0.37360612  0.63059457  1
  O  O377  1  0.62125504  0.87352025  0.13729886  1
  O  O378  1  0.61114567  0.87669250  0.64068927  1
  O  O379  1  0.11952944  0.25712159  0.25164180  1
  O  O380  1  0.12148432  0.20041675  0.78083017  1
  O  O381  1  0.12870615  0.75527585  0.26139520  1
  O  O382  1  0.11529865  0.75397354  0.76600052  1
  O  O383  1  0.62000275  0.25744247  0.25031747  1
  O  O384  1  0.62933181  0.25967976  0.75500330  1
  O  O385  1  0.61748688  0.75457301  0.25372889  1
  O  O386  1  0.61010750  0.76079289  0.74664888  1
  O  O387  1  0.38226020  0.24604280  0.24290940  1
  O  O388  1  0.37671961  0.24211928  0.74084924  1
  O  O389  1  0.38247540  0.75066550  0.24331428  1
  O  O390  1  0.38500432  0.75495375  0.74779291  1
  O  O391  1  0.88377869  0.24427789  0.24704395  1
  O  O392  1  0.86205312  0.23161290  0.73627745  1
  O  O393  1  0.87438721  0.74390423  0.24683249  1
  O  O394  1  0.89208738  0.75407699  0.75464344  1
  O  O395  1  0.37264356  0.48434685  0.48866185  1
  O  O396  1  0.36577269  0.48278027  0.98277563  1
  O  O397  1  0.37575969  0.99591844  0.49252187  1
  O  O398  1  0.38593969  0.99161786  1.00533977  1
  O  O399  1  0.87166496  0.48194659  0.49495976  1
  O  O400  1  0.88159233  0.49395698  0.99833811  1
  O  O401  1  0.89280596  1.01817441  0.48051857  1
  O  O402  1  0.88001586  0.99323244  0.99651516  1
  O  O403  1  0.11609122  -0.00086671  0.01022469  1
  O  O404  1  0.12494543  0.00860686  0.50479017  1
  O  O405  1  0.11823212  0.50690762  -0.00781219  1
  O  O406  1  0.13097683  0.50024005  0.49068947  1
  O  O407  1  0.61848259  0.01257404  -0.00631735  1
  O  O408  1  0.62366026  0.01049073  0.49884044  1
  O  O409  1  0.62418173  0.48679930  0.01815919  1
  O  O410  1  0.62681062  0.51202670  0.49721434  1
  O  O411  1  0.37225405  0.37334352  0.11508879  1
  O  O412  1  0.38592538  0.36173128  0.61584056  1
  O  O413  1  0.36883135  0.87177656  0.11654617  1
  O  O414  1  0.37442129  0.87464405  0.61615768  1
  O  O415  1  0.86422673  0.37746834  0.12103515  1
  O  O416  1  0.87009423  0.36285867  0.61640199  1
  O  O417  1  0.87571928  0.86978765  0.11095943  1
  O  O418  1  0.86954899  0.91024333  0.60359788  1
  O  O419  1  0.13225342  0.13252334  0.37815709  1
  O  O420  1  0.14874435  0.10364125  0.89400865  1
  O  O421  1  0.14069797  0.63881008  0.36910898  1
  O  O422  1  0.13364583  0.63262654  0.88330714  1
  O  O423  1  0.63328053  0.12589370  0.38004776  1
  O  O424  1  0.62531624  0.13282742  0.88220729  1
  O  O425  1  0.62623909  0.63070366  0.37901104  1
  O  O426  1  0.60530233  0.60566076  0.89753265  1
