# generated using pymatgen
data_V85Zn86O256
_symmetry_space_group_name_H-M   'P 1'
_cell_length_a   16.92849612
_cell_length_b   16.92560842
_cell_length_c   16.91689450
_cell_angle_alpha   89.98306388
_cell_angle_beta   90.02243483
_cell_angle_gamma   89.99699497
_symmetry_Int_Tables_number   1
_chemical_formula_structural   V85Zn86O256
_chemical_formula_sum   'V85 Zn86 O256'
_cell_volume   4847.11423686
_cell_formula_units_Z   1
loop_
 _symmetry_equiv_pos_site_id
 _symmetry_equiv_pos_as_xyz
  1  'x, y, z'
loop_
 _atom_site_type_symbol
 _atom_site_label
 _atom_site_symmetry_multiplicity
 _atom_site_fract_x
 _atom_site_fract_y
 _atom_site_fract_z
 _atom_site_occupancy
  V  V0  1  0.38861194  0.00216494  0.87454598  1
  V  V1  1  0.88044645  0.74595396  0.62881515  1
  V  V2  1  0.51141026  0.86120641  0.85405728  1
  V  V3  1  -0.00239771  0.62135598  0.11727308  1
  V  V4  1  -0.00092225  -0.00088927  0.50168139  1
  V  V5  1  0.87499624  0.12512700  0.75145695  1
  V  V6  1  -0.00192913  0.37938364  0.89072932  1
  V  V7  1  0.62267719  0.25308485  0.37026190  1
  V  V8  1  0.87182903  0.87377188  0.50647086  1
  V  V9  1  0.12600305  0.37480055  0.24961488  1
  V  V10  1  0.86951864  -0.00199511  0.36998117  1
  V  V11  1  0.12365397  0.38112133  0.75002319  1
  V  V12  1  0.74493615  0.49377170  0.24340540  1
  V  V13  1  0.75033029  0.25109455  0.49782572  1
  V  V14  1  0.12670832  0.12021250  0.00651378  1
  V  V15  1  0.25385388  0.50497012  0.74729187  1
  V  V16  1  0.26271951  0.24597220  0.00422278  1
  V  V17  1  0.75309142  0.26405756  0.00264490  1
  V  V18  1  0.24760700  0.37438367  0.62587484  1
  V  V19  1  0.75055111  0.12611637  0.87585009  1
  V  V20  1  0.62512422  0.25149191  0.87593259  1
  V  V21  1  0.12362625  0.87719231  0.24044588  1
  V  V22  1  0.48541501  0.25160925  0.74723340  1
  V  V23  1  0.62046198  0.12716165  0.49884125  1
  V  V24  1  0.25456937  0.12194342  0.86947360  1
  V  V25  1  -0.00046524  0.87454593  0.37567877  1
  V  V26  1  0.12693310  0.12489063  0.49985736  1
  V  V27  1  0.25691796  0.62571021  0.87550467  1
  V  V28  1  0.37163271  0.00557847  0.37386145  1
  V  V29  1  0.37760713  0.87035747  0.50025139  1
  V  V30  1  0.49992942  0.50012372  0.49920407  1
  V  V31  1  0.50298465  0.86605215  0.37327591  1
  V  V32  1  0.74697518  0.11945364  0.36806869  1
  V  V33  1  -0.00242922  0.24541078  0.24894087  1
  V  V34  1  0.49505573  0.62497635  0.63609374  1
  V  V35  1  0.87229916  0.62806555  0.24805358  1
  V  V36  1  0.62476363  0.37608553  0.74926416  1
  V  V37  1  0.75122390  0.63574948  0.87698468  1
  V  V38  1  0.62230986  0.64606356  -0.00400420  1
  V  V39  1  0.87647834  0.37529056  0.49949406  1
  V  V40  1  0.62321728  0.11948652  0.00681501  1
  V  V41  1  0.87600330  0.24905773  0.62568141  1
  V  V42  1  0.12486674  0.62182596  0.50304254  1
  V  V43  1  0.24617523  0.00419792  0.24926541  1
  V  V44  1  0.87264717  0.25981797  0.12094367  1
  V  V45  1  0.87716583  0.50029180  0.89407367  1
  V  V46  1  0.25510256  0.24412235  0.50158229  1
  V  V47  1  0.25112504  0.87345652  0.62659100  1
  V  V48  1  0.87401397  -0.00275998  0.88091591  1
  V  V49  1  0.71075252  0.84317819  0.64506586  1
  V  V50  1  0.74452337  0.62703097  0.37095789  1
  V  V51  1  0.39364239  0.87272285  0.00438925  1
  V  V52  1  0.37208698  0.50151030  0.37227107  1
  V  V53  1  0.00199280  0.61717133  0.63192911  1
  V  V54  1  0.62076176  0.62720655  0.49598158  1
  V  V55  1  0.38327980  0.38152481  0.00354415  1
  V  V56  1  0.12569498  0.00030296  0.62727254  1
  V  V57  1  0.25724224  0.37297912  0.12682655  1
  V  V58  1  0.13066617  0.24385225  0.37476248  1
  V  V59  1  0.48322928  0.13105312  0.62720052  1
  V  V60  1  0.75243402  0.88335549  0.10506378  1
  V  V61  1  0.25486953  0.87132504  0.12174907  1
  V  V62  1  0.12045486  0.49702543  0.11728542  1
  V  V63  1  0.12663528  0.87585645  0.75224713  1
  V  V64  1  0.12924129  0.74860075  0.88000625  1
  V  V65  1  0.37531185  0.63683138  0.24448673  1
  V  V66  1  0.49167714  0.24560056  0.24029063  1
  V  V67  1  0.12394835  0.74919068  0.37438374  1
  V  V68  1  0.37436615  0.74462823  0.64120927  1
  V  V69  1  -0.00009412  0.74544368  0.75237769  1
  V  V70  1  0.86756593  0.75348301  0.10833418  1
  V  V71  1  0.12543320  0.25099740  0.87803628  1
  V  V72  1  0.37537284  0.37215119  0.50444322  1
  V  V73  1  0.00196264  -0.00261812  0.00686683  1
  V  V74  1  0.62611572  0.00959008  0.63296831  1
  V  V75  1  0.64282127  0.87609829  0.26233587  1
  V  V76  1  0.61949820  0.49626872  0.11030058  1
  V  V77  1  0.75134027  0.37653576  0.62469574  1
  V  V78  1  0.74587052  0.74730479  0.49964330  1
  V  V79  1  0.00096120  0.12513398  0.62772855  1
  V  V80  1  -0.00008277  0.37354115  0.37520585  1
  V  V81  1  0.38337261  0.50401753  0.87601374  1
  V  V82  1  -0.00254170  0.87364597  0.88046228  1
  V  V83  1  0.00384408  0.49848913  0.50124918  1
  V  V84  1  0.76322131  0.50238199  0.75062658  1
  Zn  Zn85  1  0.50152807  0.37970124  0.87792263  1
  Zn  Zn86  1  0.36659416  0.12701807  0.24256034  1
  Zn  Zn87  1  0.24773218  0.62365542  0.37473329  1
  Zn  Zn88  1  0.49892873  -0.00072141  0.50035559  1
  Zn  Zn89  1  0.25578660  0.00532701  0.74952977  1
  Zn  Zn90  1  0.86832880  0.11944086  0.24283025  1
  Zn  Zn91  1  0.47882973  0.11615487  0.11216133  1
  Zn  Zn92  1  -0.00184377  0.12090106  0.12532692  1
  Zn  Zn93  1  0.62369851  0.37494509  0.24186211  1
  Zn  Zn94  1  -0.00173061  0.74929907  0.24693003  1
  Zn  Zn95  1  0.24935256  0.74561782  0.50193133  1
  Zn  Zn96  1  -0.00035012  0.25360007  0.75432139  1
  Zn  Zn97  1  0.50729455  0.75153279  0.24356610  1
  Zn  Zn98  1  0.49307549  0.63009989  0.11201771  1
  Zn  Zn99  1  0.25805532  0.74720350  0.00765834  1
  Zn  Zn100  1  0.49853501  0.37345828  0.37157380  1
  Zn  Zn101  1  0.87398811  0.50038243  0.37199712  1
  Zn  Zn102  1  0.12475723  0.62084067  -0.00055945  1
  Zn  Zn103  1  0.62531547  0.49857694  0.62473441  1
  Zn  Zn104  1  0.24936044  0.50146070  0.24972715  1
  Zn  Zn105  1  0.74910217  -0.00347335  0.74919576  1
  Zn  Zn106  1  0.62132675  -0.00035353  0.13237412  1
  Zn  Zn107  1  0.18988018  0.18722685  0.18526610  1
  Zn  Zn108  1  0.18968211  0.19271207  0.68864355  1
  Zn  Zn109  1  0.18822483  0.68694279  0.18906713  1
  Zn  Zn110  1  0.18622713  0.68664825  0.68874202  1
  Zn  Zn111  1  0.68924672  0.19138828  0.18702220  1
  Zn  Zn112  1  0.68692372  0.18899441  0.68851799  1
  Zn  Zn113  1  0.68247611  0.69390009  0.18217730  1
  Zn  Zn114  1  0.68321470  0.67545222  0.68749533  1
  Zn  Zn115  1  0.31360840  0.31335901  0.31600069  1
  Zn  Zn116  1  0.31022983  0.31769183  0.81853607  1
  Zn  Zn117  1  0.30840486  0.81580945  0.31508426  1
  Zn  Zn118  1  0.31672575  0.81807052  0.81826918  1
  Zn  Zn119  1  0.81288725  0.31131750  0.31032857  1
  Zn  Zn120  1  0.81433899  0.31598507  0.81599257  1
  Zn  Zn121  1  0.81324395  0.80770453  0.31475208  1
  Zn  Zn122  1  0.81649870  0.81370451  0.80942033  1
  Zn  Zn123  1  0.18741907  0.43553241  0.43741822  1
  Zn  Zn124  1  0.19347504  0.43673239  0.93839216  1
  Zn  Zn125  1  0.18853387  0.93550775  0.43687104  1
  Zn  Zn126  1  0.19063723  0.93804078  0.94031769  1
  Zn  Zn127  1  0.68726745  0.43998005  0.43382673  1
  Zn  Zn128  1  0.68910355  0.44077378  0.93527458  1
  Zn  Zn129  1  0.68578293  0.93520248  0.44745750  1
  Zn  Zn130  1  0.68246937  0.93767072  0.93228080  1
  Zn  Zn131  1  0.31356138  0.05200219  0.06302357  1
  Zn  Zn132  1  0.31121904  0.05840154  0.55974446  1
  Zn  Zn133  1  0.30920506  0.56029761  0.06262879  1
  Zn  Zn134  1  0.31164173  0.56055023  0.56381210  1
  Zn  Zn135  1  0.81243101  0.06849326  0.06119381  1
  Zn  Zn136  1  0.80949620  0.06351634  0.55906327  1
  Zn  Zn137  1  0.80305965  0.56610403  0.06337752  1
  Zn  Zn138  1  0.81587771  0.56285740  0.56232793  1
  Zn  Zn139  1  0.44385760  0.44045048  0.18783820  1
  Zn  Zn140  1  0.43511681  0.43790066  0.68728608  1
  Zn  Zn141  1  0.44209662  0.94016515  0.18847552  1
  Zn  Zn142  1  0.43728742  0.94362087  0.68815712  1
  Zn  Zn143  1  0.93698200  0.43922435  0.18711457  1
  Zn  Zn144  1  0.94105553  0.43640543  0.69009404  1
  Zn  Zn145  1  0.93291388  0.93307328  0.18770367  1
  Zn  Zn146  1  0.93731701  0.93515940  0.69201257  1
  Zn  Zn147  1  0.06219274  0.06088457  0.31327212  1
  Zn  Zn148  1  0.06353846  0.06245669  0.81605872  1
  Zn  Zn149  1  0.06019280  0.56172592  0.30880191  1
  Zn  Zn150  1  0.06410097  0.55993492  0.81677583  1
  Zn  Zn151  1  0.55749393  0.05598501  0.30817053  1
  Zn  Zn152  1  0.55887630  0.06952491  0.81197299  1
  Zn  Zn153  1  0.55997136  0.56295690  0.31053973  1
  Zn  Zn154  1  0.56990683  0.56295562  0.81622832  1
  Zn  Zn155  1  0.43740089  0.18718951  0.43329380  1
  Zn  Zn156  1  0.44046685  0.18862588  0.93430068  1
  Zn  Zn157  1  0.43471796  0.68794632  0.43783481  1
  Zn  Zn158  1  0.44129933  0.69381552  0.93151358  1
  Zn  Zn159  1  0.93733504  0.18461667  0.43577741  1
  Zn  Zn160  1  0.93908052  0.18810886  0.94065407  1
  Zn  Zn161  1  0.93600760  0.68563468  0.43705089  1
  Zn  Zn162  1  0.93549862  0.68265020  0.93552883  1
  Zn  Zn163  1  0.06531669  0.30821159  0.06446909  1
  Zn  Zn164  1  0.06524969  0.31186015  0.56549031  1
  Zn  Zn165  1  0.05915649  0.80859237  0.06242320  1
  Zn  Zn166  1  0.06285423  0.81042310  0.56214799  1
  Zn  Zn167  1  0.56378473  0.31023981  0.06335588  1
  Zn  Zn168  1  0.56067103  0.31193528  0.56381979  1
  Zn  Zn169  1  0.56507767  0.81307617  0.07037100  1
  Zn  Zn170  1  0.55829049  0.80937413  0.57409261  1
  O  O171  1  0.12108379  0.13033705  0.11024603  1
  O  O172  1  0.12054055  0.12174694  0.62191701  1
  O  O173  1  0.11592329  0.61658342  0.12669615  1
  O  O174  1  0.11640896  0.62897139  0.61180433  1
  O  O175  1  0.63386303  0.12427354  0.11185401  1
  O  O176  1  0.61899698  0.12328103  0.61723884  1
  O  O177  1  0.63058384  0.62104657  0.10604915  1
  O  O178  1  0.61654006  0.61687166  0.61063249  1
  O  O179  1  0.37522588  0.38356758  0.38674407  1
  O  O180  1  0.37536930  0.38630965  0.88524892  1
  O  O181  1  0.38096679  0.87819509  0.38334247  1
  O  O182  1  0.38911650  0.88372258  0.88128319  1
  O  O183  1  0.88177341  0.37526747  0.38129598  1
  O  O184  1  0.88414747  0.38892901  0.87285468  1
  O  O185  1  0.87769424  0.87978963  0.38397696  1
  O  O186  1  0.88510301  0.88486720  0.86868313  1
  O  O187  1  0.26010773  -0.01100187  0.36526950  1
  O  O188  1  0.25658276  0.00803236  0.87292238  1
  O  O189  1  0.25759482  0.49997471  0.37279795  1
  O  O190  1  0.25779493  0.50755100  0.86912952  1
  O  O191  1  0.75818922  0.00767219  0.38866572  1
  O  O192  1  0.75843325  0.00479757  0.87063590  1
  O  O193  1  0.75131426  0.51248458  0.36800810  1
  O  O194  1  0.76263634  0.50284802  0.86935215  1
  O  O195  1  0.24091344  0.48841453  0.12802788  1
  O  O196  1  0.25312689  0.48735580  0.63346986  1
  O  O197  1  0.24885958  0.98312388  0.13572514  1
  O  O198  1  0.24426286  0.99221981  0.62863275  1
  O  O199  1  0.73454664  0.50592512  0.13312247  1
  O  O200  1  0.75082407  0.49571810  0.63192131  1
  O  O201  1  0.75529262  0.98615485  0.12085165  1
  O  O202  1  0.73416321  1.00864629  0.62638215  1
  O  O203  1  0.00427937  0.36319114  0.25469462  1
  O  O204  1  0.00954155  0.37466678  0.75955193  1
  O  O205  1  0.00622609  0.87377934  0.25713453  1
  O  O206  1  0.00763711  0.86915070  0.76134786  1
  O  O207  1  0.50197822  0.36172012  0.25155227  1
  O  O208  1  0.50946310  0.37004054  0.74863856  1
  O  O209  1  0.50713610  0.87212407  0.26082419  1
  O  O210  1  0.49954487  0.87636244  0.75494048  1
  O  O211  1  0.49803595  0.13830762  0.25261332  1
  O  O212  1  0.50290629  0.13949152  0.73981504  1
  O  O213  1  0.48395377  0.62986563  0.25659883  1
  O  O214  1  0.51181980  0.61801016  0.73435763  1
  O  O215  1  0.99999405  0.13599526  0.24989419  1
  O  O216  1  0.99311564  0.12778211  0.74651730  1
  O  O217  1  0.98871180  0.62541568  0.23969732  1
  O  O218  1  1.00908898  0.62678017  0.73898841  1
  O  O219  1  0.36573087  0.25729812  -0.00669527  1
  O  O220  1  0.36535015  0.25820903  0.49182078  1
  O  O221  1  0.37378508  0.76914865  -0.00944049  1
  O  O222  1  0.36941332  0.76027636  0.50457206  1
  O  O223  1  0.86935131  0.24728920  0.01175177  1
  O  O224  1  0.87099621  0.25507851  0.50436447  1
  O  O225  1  0.87488711  0.74890325  0.00981662  1
  O  O226  1  0.86664107  0.75372198  0.50470986  1
  O  O227  1  0.13181293  0.24592656  0.49361329  1
  O  O228  1  0.13427017  0.24456627  0.99137005  1
  O  O229  1  0.12356823  0.74022809  0.49249383  1
  O  O230  1  0.12668203  0.74911349  0.98780800  1
  O  O231  1  0.62816026  0.24313343  0.49305908  1
  O  O232  1  0.63339678  0.24662278  0.99304302  1
  O  O233  1  0.63682652  0.74130294  0.50778470  1
  O  O234  1  0.63055605  0.74389466  0.99927281  1
  O  O235  1  0.50397203  0.24406797  0.13826646  1
  O  O236  1  0.50233512  0.24329145  0.63441966  1
  O  O237  1  0.50442354  0.74158911  0.12968590  1
  O  O238  1  0.48466925  0.73627114  0.61916274  1
  O  O239  1  0.99200123  0.24746429  0.13208800  1
  O  O240  1  0.99364569  0.24381498  0.62869232  1
  O  O241  1  0.98532515  0.74525450  0.12674168  1
  O  O242  1  0.99872237  0.74035971  0.63094880  1
  O  O243  1  0.00537562  0.25409572  0.36894240  1
  O  O244  1  0.00831873  0.25806982  0.87629183  1
  O  O245  1  0.00747122  0.75470801  0.37431966  1
  O  O246  1  0.00514232  0.75414498  0.87235901  1
  O  O247  1  0.50903749  0.25122259  0.36782148  1
  O  O248  1  0.51171124  0.25274767  0.86604546  1
  O  O249  1  0.49723864  0.76321487  0.37614783  1
  O  O250  1  0.50261149  0.76120113  0.86349719  1
  O  O251  1  0.24411767  0.13656106  0.50651836  1
  O  O252  1  0.24418121  0.12974153  0.99208099  1
  O  O253  1  0.23804006  0.62319499  0.49848773  1
  O  O254  1  0.24671526  0.62900390  0.99214749  1
  O  O255  1  0.74162689  0.13404298  0.49190364  1
  O  O256  1  0.74231379  0.13606153  0.99224760  1
  O  O257  1  0.74310162  0.62748957  0.49363945  1
  O  O258  1  0.74199988  0.62478575  0.98444176  1
  O  O259  1  0.25949100  0.36634574  0.00704907  1
  O  O260  1  0.25404579  0.36867221  0.50756202  1
  O  O261  1  0.25445331  0.87194195  0.00883178  1
  O  O262  1  0.25445778  0.87330738  0.51339298  1
  O  O263  1  0.74968377  0.36309114  -0.00615511  1
  O  O264  1  0.75568962  0.37157964  0.50384373  1
  O  O265  1  0.74927991  0.87787553  0.00640777  1
  O  O266  1  0.74866805  0.86174521  0.52031612  1
  O  O267  1  0.12532820  0.49072650  0.24222200  1
  O  O268  1  0.13591869  0.48724070  0.75901673  1
  O  O269  1  0.13130840  0.98744089  0.25898167  1
  O  O270  1  0.12663581  0.99403043  0.74448285  1
  O  O271  1  0.63045712  0.50038714  0.24295665  1
  O  O272  1  0.63432317  0.48659409  0.75099995  1
  O  O273  1  0.62538289  0.98246381  0.25140682  1
  O  O274  1  0.62645906  1.01055803  0.73624938  1
  O  O275  1  0.36433758  -0.00275400  0.25896411  1
  O  O276  1  0.37214137  -0.00309202  0.76835631  1
  O  O277  1  0.37695994  0.50389464  0.26304660  1
  O  O278  1  0.36217262  0.49264942  0.75934424  1
  O  O279  1  0.88024176  0.00084998  0.26596441  1
  O  O280  1  0.87600954  0.01104381  0.75767573  1
  O  O281  1  0.86461764  0.51182408  0.24597020  1
  O  O282  1  0.86534723  0.49771402  0.75259393  1
  O  O283  1  0.11901450  0.36436134  0.37076778  1
  O  O284  1  0.12131304  0.36970665  0.87251294  1
  O  O285  1  0.11789945  0.86681292  0.37118246  1
  O  O286  1  0.12094301  0.86806114  0.87076527  1
  O  O287  1  0.62467576  0.36171761  0.37558507  1
  O  O288  1  0.62322121  0.36913889  0.86856216  1
  O  O289  1  0.62035182  0.87852851  0.37058784  1
  O  O290  1  0.60982700  0.88113450  0.86978005  1
  O  O291  1  0.36629029  0.12604374  0.12666437  1
  O  O292  1  0.38398455  0.12169788  0.62171933  1
  O  O293  1  0.37452707  0.61659603  0.14100083  1
  O  O294  1  0.38140423  0.63192655  0.62179772  1
  O  O295  1  0.87896658  0.13516952  0.12741842  1
  O  O296  1  0.87908352  0.12830430  0.63206053  1
  O  O297  1  0.87607271  0.63438663  0.12764843  1
  O  O298  1  0.88886419  0.63546873  0.61751891  1
  O  O299  1  0.24415250  0.26224336  0.11615723  1
  O  O300  1  0.24726658  0.26279133  0.61640934  1
  O  O301  1  0.24633607  0.76458095  0.12661638  1
  O  O302  1  0.25418516  0.75639852  0.62377754  1
  O  O303  1  0.76304834  0.25001279  0.11894927  1
  O  O304  1  0.75629706  0.25491351  0.61826217  1
  O  O305  1  0.76239831  0.76001869  0.12558597  1
  O  O306  1  0.76488295  0.74184948  0.61860303  1
  O  O307  1  0.23969955  0.25476634  0.38542075  1
  O  O308  1  0.24461522  0.24503702  0.88440265  1
  O  O309  1  0.23465040  0.74989757  0.37915928  1
  O  O310  1  0.24395622  0.74308483  0.87329998  1
  O  O311  1  0.74286158  0.24299766  0.37862386  1
  O  O312  1  0.74288057  0.24721992  0.87949505  1
  O  O313  1  0.75422326  0.73653113  0.38593941  1
  O  O314  1  0.75839986  0.73416008  0.86548754  1
  O  O315  1  0.00961230  0.11554776  -0.00215704  1
  O  O316  1  0.00527076  0.11936973  0.50773589  1
  O  O317  1  0.00263807  0.62775783  0.01279498  1
  O  O318  1  0.00470600  0.61624280  0.50600703  1
  O  O319  1  0.51937804  0.13706789  0.00079087  1
  O  O320  1  0.50576505  0.12743764  0.50742324  1
  O  O321  1  0.51742863  0.63065765  -0.00780103  1
  O  O322  1  0.50538172  0.61830650  0.50198519  1
  O  O323  1  0.49231986  0.38161578  0.49958533  1
  O  O324  1  0.48669200  0.36729825  0.99902519  1
  O  O325  1  0.49193074  0.87581255  0.49725113  1
  O  O326  1  0.49477656  0.87345471  0.99555071  1
  O  O327  1  0.99809657  0.38063633  0.49717087  1
  O  O328  1  1.00638684  0.37310008  0.98979061  1
  O  O329  1  0.99542647  0.87972704  0.49438374  1
  O  O330  1  1.00559752  0.88101119  0.98809178  1
  O  O331  1  0.49304802  0.49727497  0.38508643  1
  O  O332  1  0.48705036  0.50062396  0.86762215  1
  O  O333  1  0.48934043  0.98874562  0.37838745  1
  O  O334  1  0.49104282  0.99983932  0.87366550  1
  O  O335  1  0.99719661  0.49192183  0.38090634  1
  O  O336  1  0.98548579  0.49694978  0.87514416  1
  O  O337  1  0.99163942  0.99560994  0.38390649  1
  O  O338  1  0.99469956  0.99172077  0.88123468  1
  O  O339  1  -0.00812039  -0.00266370  0.11057087  1
  O  O340  1  0.00546868  0.00413755  0.62155067  1
  O  O341  1  0.00712917  0.50792878  0.12889644  1
  O  O342  1  -0.00317968  0.50704183  0.61686865  1
  O  O343  1  0.50707607  0.00725162  0.12848482  1
  O  O344  1  0.50769920  0.01344385  0.62299525  1
  O  O345  1  0.51662523  0.51229662  0.12942974  1
  O  O346  1  0.49680529  0.50512255  0.61272289  1
  O  O347  1  0.24517927  0.37355510  0.24268044  1
  O  O348  1  0.24407761  0.37956078  0.74431650  1
  O  O349  1  0.24153872  0.87967192  0.24465045  1
  O  O350  1  0.24535850  0.87594113  0.74052524  1
  O  O351  1  0.74794407  0.39051374  0.25680756  1
  O  O352  1  0.74554349  0.38057726  0.74441253  1
  O  O353  1  0.74437739  0.87664484  0.25486408  1
  O  O354  1  0.75686249  0.87828795  0.73209085  1
  O  O355  1  0.24343889  0.10896843  0.24877075  1
  O  O356  1  0.24665185  0.12845620  0.76542368  1
  O  O357  1  0.26061291  0.62159004  0.25333549  1
  O  O358  1  0.24265058  0.61253430  0.75680997  1
  O  O359  1  0.74856913  0.12676902  0.26423998  1
  O  O360  1  0.75893160  0.12559975  0.75674107  1
  O  O361  1  0.75158497  0.62220462  0.25566180  1
  O  O362  1  0.73981041  0.61282770  0.76265895  1
  O  O363  1  0.37612658  0.10853382  0.37436152  1
  O  O364  1  0.36957096  0.11158513  0.88459741  1
  O  O365  1  0.37009870  0.61793735  0.37003255  1
  O  O366  1  0.36459520  0.62067581  0.87873515  1
  O  O367  1  0.86466148  0.11576959  0.37650075  1
  O  O368  1  0.87221882  0.12084535  0.86816166  1
  O  O369  1  0.86726466  0.62271882  0.36553480  1
  O  O370  1  0.86531272  0.61157632  0.87746657  1
  O  O371  1  0.13043261  0.37928284  0.13058028  1
  O  O372  1  0.13241107  0.37155410  0.63765449  1
  O  O373  1  0.12692604  0.87000089  0.13663782  1
  O  O374  1  0.13171100  0.87806064  0.63018776  1
  O  O375  1  0.62159809  0.39121551  0.12244832  1
  O  O376  1  0.63295160  0.37634845  0.63114968  1
  O  O377  1  0.64408799  0.87710600  0.13268943  1
  O  O378  1  0.62170643  0.90423972  0.60770586  1
  O  O379  1  0.11928203  0.25283834  0.25687174  1
  O  O380  1  0.12655456  0.25973879  0.76412300  1
  O  O381  1  0.12069454  0.75624474  0.25827942  1
  O  O382  1  0.11987696  0.75458397  0.76095827  1
  O  O383  1  0.61846428  0.25295595  0.25542389  1
  O  O384  1  0.62510186  0.26119077  0.75759500  1
  O  O385  1  0.62754830  0.76891509  0.25043721  1
  O  O386  1  0.63486250  0.77806530  0.68103984  1
  O  O387  1  0.38777775  0.24707008  0.25841607  1
  O  O388  1  0.38648955  0.25896396  0.75652452  1
  O  O389  1  0.37181036  0.73798845  0.25574207  1
  O  O390  1  0.36883064  0.75156843  0.74007876  1
  O  O391  1  0.88142316  0.24658329  0.24189556  1
  O  O392  1  0.87604691  0.24004790  0.74720676  1
  O  O393  1  0.87460633  0.73797092  0.24512333  1
  O  O394  1  0.88632053  0.75057791  0.73991719  1
  O  O395  1  0.37998178  0.49509425  0.49103878  1
  O  O396  1  0.37051387  0.49259640  0.99085048  1
  O  O397  1  0.37334855  0.98675837  0.49314146  1
  O  O398  1  0.36921707  0.98350575  0.98507185  1
  O  O399  1  0.88619869  0.49367447  0.49758761  1
  O  O400  1  0.87046807  0.50029983  0.99260632  1
  O  O401  1  0.87923161  0.99306353  0.49651150  1
  O  O402  1  0.88348644  1.00834062  0.98591300  1
  O  O403  1  0.11554812  0.00914630  -0.00742827  1
  O  O404  1  0.12091961  0.00485938  0.50594157  1
  O  O405  1  0.12981610  0.49877453  0.01315205  1
  O  O406  1  0.11227276  0.50524783  0.49499232  1
  O  O407  1  0.63198017  0.01823919  -0.00080350  1
  O  O408  1  0.62282015  0.01750750  0.50422820  1
  O  O409  1  0.62688193  0.50425289  0.00805853  1
  O  O410  1  0.61527335  0.50484045  0.49980883  1
  O  O411  1  0.36675320  0.38446922  0.11938418  1
  O  O412  1  0.36759894  0.37855672  0.61127565  1
  O  O413  1  0.37176693  0.87983087  0.11049594  1
  O  O414  1  0.36888737  0.87031016  0.62050466  1
  O  O415  1  0.87961047  0.35921050  0.12874954  1
  O  O416  1  0.87191665  0.36836122  0.62046846  1
  O  O417  1  0.86424735  0.86304548  0.12766311  1
  O  O418  1  0.88615214  0.86015628  0.61903351  1
  O  O419  1  0.11860082  0.13664311  0.38307519  1
  O  O420  1  0.13157572  0.13342762  0.88220032  1
  O  O421  1  0.12145368  0.63118771  0.38293386  1
  O  O422  1  0.13450706  0.63113179  0.87723929  1
  O  O423  1  0.62817812  0.13148842  0.38025945  1
  O  O424  1  0.63047004  0.13416135  0.88092223  1
  O  O425  1  0.63005491  0.62193041  0.38627747  1
  O  O426  1  0.63905328  0.62169317  0.88542763  1
