# generated using pymatgen
data_V85Zn86O256
_symmetry_space_group_name_H-M   'P 1'
_cell_length_a   16.97543562
_cell_length_b   16.97481268
_cell_length_c   16.98292000
_cell_angle_alpha   89.94913076
_cell_angle_beta   89.95020791
_cell_angle_gamma   90.01811282
_symmetry_Int_Tables_number   1
_chemical_formula_structural   V85Zn86O256
_chemical_formula_sum   'V85 Zn86 O256'
_cell_volume   4893.70656740
_cell_formula_units_Z   1
loop_
 _symmetry_equiv_pos_site_id
 _symmetry_equiv_pos_as_xyz
  1  'x, y, z'
loop_
 _atom_site_type_symbol
 _atom_site_label
 _atom_site_symmetry_multiplicity
 _atom_site_fract_x
 _atom_site_fract_y
 _atom_site_fract_z
 _atom_site_occupancy
  V  V0  1  0.74937571  0.00549196  0.25037657  1
  V  V1  1  0.86834789  0.50211443  0.88905595  1
  V  V2  1  -0.00348191  0.38137068  0.88895814  1
  V  V3  1  0.12373154  0.61768305  0.50017081  1
  V  V4  1  -0.00453786  0.87159532  0.88738421  1
  V  V5  1  0.87244620  0.25492196  0.62969556  1
  V  V6  1  0.37837173  0.37786806  0.48966995  1
  V  V7  1  0.12614248  0.87708018  0.25573817  1
  V  V8  1  0.62506651  0.87808085  0.74701414  1
  V  V9  1  0.74980461  0.24759693  0.49139700  1
  V  V10  1  0.49395239  -0.00269185  -0.00066015  1
  V  V11  1  0.25096358  0.00005719  0.75034333  1
  V  V12  1  0.37340348  0.50855655  0.86198481  1
  V  V13  1  0.26173827  0.62296870  0.37065135  1
  V  V14  1  -0.00083301  0.75308059  0.75006504  1
  V  V15  1  0.48770759  0.63075289  0.13838408  1
  V  V16  1  0.49690214  0.49751370  0.49182277  1
  V  V17  1  0.62902569  0.12182547  0.49291224  1
  V  V18  1  0.62915208  0.87012399  0.24735226  1
  V  V19  1  0.63188149  0.74749544  0.87759708  1
  V  V20  1  0.24851579  0.51036255  0.74865048  1
  V  V21  1  0.37692389  0.13171407  0.74746527  1
  V  V22  1  0.24991598  -0.00025935  0.24995581  1
  V  V23  1  -0.00112715  0.24955609  0.75063171  1
  V  V24  1  0.24907433  0.37497047  0.12208679  1
  V  V25  1  0.25173137  0.25218314  0.50162252  1
  V  V26  1  -0.00178154  -0.00052092  0.50138390  1
  V  V27  1  0.74741344  0.88825665  0.62542937  1
  V  V28  1  0.12367610  0.12740203  0.50233926  1
  V  V29  1  -0.01258954  0.12535252  0.62848809  1
  V  V30  1  0.50713859  -0.00203265  0.51107844  1
  V  V31  1  0.12055517  0.24996699  0.36994922  1
  V  V32  1  -0.00058808  0.61967634  0.62589229  1
  V  V33  1  0.25142391  0.24833050  -0.00028924  1
  V  V34  1  0.25055053  0.38030745  0.62459863  1
  V  V35  1  0.12247949  0.74553056  0.37329624  1
  V  V36  1  0.24782864  0.87570882  0.62547989  1
  V  V37  1  0.49356750  0.87239450  0.87706157  1
  V  V38  1  0.25052656  0.12669000  0.37658939  1
  V  V39  1  0.12304956  0.38170060  0.74325406  1
  V  V40  1  0.62238414  0.62692517  0.50255075  1
  V  V41  1  0.62962913  -0.00278121  0.12215323  1
  V  V42  1  0.74774320  0.37899992  0.62606748  1
  V  V43  1  0.87520877  0.37619610  0.49853650  1
  V  V44  1  0.50575756  0.87660426  0.37709491  1
  V  V45  1  0.12524339  0.25113822  0.87309643  1
  V  V46  1  0.76476542  0.87177358  0.12123175  1
  V  V47  1  0.49911396  0.74147274  0.75020593  1
  V  V48  1  0.37563389  0.87544385  0.50310960  1
  V  V49  1  0.87187530  0.87655229  0.49860676  1
  V  V50  1  -0.00242206  0.74838470  0.24176791  1
  V  V51  1  0.76128420  0.75016288  0.00169126  1
  V  V52  1  0.00032919  0.37389120  0.37294262  1
  V  V53  1  0.87085275  0.00579239  0.37539605  1
  V  V54  1  0.24828189  0.74832111  0.50158540  1
  V  V55  1  0.00256871  0.12978173  0.12823102  1
  V  V56  1  0.50099296  0.50379736  -0.00830092  1
  V  V57  1  -0.00146182  0.87318766  0.37627506  1
  V  V58  1  0.37737701  0.00327272  0.38039007  1
  V  V59  1  0.37662309  0.37316270  -0.00763618  1
  V  V60  1  0.74593282  0.62966115  0.37469434  1
  V  V61  1  0.50687465  0.13392476  0.12216774  1
  V  V62  1  0.13969874  0.62344206  -0.00891317  1
  V  V63  1  0.62084048  0.49591698  0.13270456  1
  V  V64  1  0.12306057  0.00231979  0.62616261  1
  V  V65  1  0.00110962  0.50026939  0.50162844  1
  V  V66  1  0.62707381  0.62601893  -0.00535467  1
  V  V67  1  0.63389520  0.12604635  -0.01596122  1
  V  V68  1  0.37888867  0.13240016  0.24828087  1
  V  V69  1  0.25007454  0.12407641  0.87337643  1
  V  V70  1  0.87063713  0.74937487  0.62573865  1
  V  V71  1  -0.01008021  -0.00152675  0.00259931  1
  V  V72  1  0.12172330  0.37443018  0.24786354  1
  V  V73  1  0.25731694  0.50541921  0.25059772  1
  V  V74  1  0.12686175  -0.00752297  0.12028612  1
  V  V75  1  0.50112098  0.36171945  0.86439416  1
  V  V76  1  0.87150579  0.00709496  0.86624285  1
  V  V77  1  0.87144645  0.62724008  0.24253066  1
  V  V78  1  0.62612807  0.36209615  0.75229265  1
  V  V79  1  0.37314656  0.74239888  0.63026081  1
  V  V80  1  0.87591817  0.50331981  0.37172683  1
  V  V81  1  0.12044309  0.50199705  0.11800574  1
  V  V82  1  0.51189273  0.13043218  0.62912267  1
  V  V83  1  -0.00042664  0.62223906  0.11532770  1
  V  V84  1  0.87944399  0.13353268  0.25151809  1
  Zn  Zn85  1  0.74465589  0.75366674  0.49802701  1
  Zn  Zn86  1  0.12909996  0.74782645  0.87554116  1
  Zn  Zn87  1  0.76086722  0.36882913  0.12451132  1
  Zn  Zn88  1  0.86958220  0.62163628  0.75732603  1
  Zn  Zn89  1  0.53003041  0.28673653  0.23912950  1
  Zn  Zn90  1  0.61661727  0.74515310  0.37025657  1
  Zn  Zn91  1  0.49531010  0.62129402  0.62681657  1
  Zn  Zn92  1  0.28435250  0.87167055  0.11740957  1
  Zn  Zn93  1  0.38077105  0.25243755  0.62597004  1
  Zn  Zn94  1  0.62082040  0.27870350  0.37536196  1
  Zn  Zn95  1  0.76210474  0.25477427  -0.00959564  1
  Zn  Zn96  1  0.27092635  0.76465695  -0.01016033  1
  Zn  Zn97  1  0.12300251  0.87537036  0.75222564  1
  Zn  Zn98  1  0.74590965  0.50818683  0.75893687  1
  Zn  Zn99  1  0.12607216  0.12084204  -0.00155489  1
  Zn  Zn100  1  0.36874817  -0.00539021  0.88251099  1
  Zn  Zn101  1  0.45437920  0.78613579  0.21984435  1
  Zn  Zn102  1  0.74591580  0.00462232  0.76124799  1
  Zn  Zn103  1  0.88249172  0.25862936  0.11503662  1
  Zn  Zn104  1  0.61952618  0.50091731  0.62975834  1
  Zn  Zn105  1  0.73654592  0.49342376  0.25556907  1
  Zn  Zn106  1  0.37966260  0.25292118  0.12511544  1
  Zn  Zn107  1  0.18684711  0.18568569  0.18642537  1
  Zn  Zn108  1  0.18620766  0.19000577  0.68621115  1
  Zn  Zn109  1  0.30286867  0.68917014  0.18119722  1
  Zn  Zn110  1  0.18086716  0.68812777  0.68595879  1
  Zn  Zn111  1  0.69550331  0.19025416  0.18160450  1
  Zn  Zn112  1  0.69831010  0.18522960  0.81035599  1
  Zn  Zn113  1  0.68134983  0.68504108  0.18007292  1
  Zn  Zn114  1  0.68856521  0.68909300  0.68885693  1
  Zn  Zn115  1  0.31182384  0.31579401  0.30985391  1
  Zn  Zn116  1  0.31173665  0.31489917  0.81007919  1
  Zn  Zn117  1  0.30995323  0.81627760  0.31990626  1
  Zn  Zn118  1  0.31093447  0.80794438  0.81335551  1
  Zn  Zn119  1  0.80561337  0.31706500  0.30536928  1
  Zn  Zn120  1  0.81607003  0.31945097  0.81508351  1
  Zn  Zn121  1  0.81272721  0.81196703  0.30870366  1
  Zn  Zn122  1  0.81392228  0.81499423  0.81414362  1
  Zn  Zn123  1  0.19073073  0.43853690  0.43468543  1
  Zn  Zn124  1  0.18620227  0.43837580  0.93272746  1
  Zn  Zn125  1  0.18733580  0.93882194  0.43979372  1
  Zn  Zn126  1  0.18337178  0.93003600  0.93803309  1
  Zn  Zn127  1  0.69058559  0.44595219  0.44416724  1
  Zn  Zn128  1  0.68871027  0.43145643  0.93837430  1
  Zn  Zn129  1  0.68654220  0.94379190  0.43755601  1
  Zn  Zn130  1  0.68563989  0.93187266  0.93957910  1
  Zn  Zn131  1  0.31345881  0.06291972  0.06472453  1
  Zn  Zn132  1  0.31542258  0.06524249  0.56606451  1
  Zn  Zn133  1  0.31375500  0.55684127  0.05638941  1
  Zn  Zn134  1  0.31202604  0.55977477  0.56092986  1
  Zn  Zn135  1  0.81461511  0.06958492  0.06277585  1
  Zn  Zn136  1  0.75060926  0.11325458  0.62860188  1
  Zn  Zn137  1  0.80728021  0.56108113  0.06197446  1
  Zn  Zn138  1  0.81090325  0.56510097  0.56281265  1
  Zn  Zn139  1  0.43572122  0.44138306  0.17543285  1
  Zn  Zn140  1  0.43841599  0.43689491  0.68218729  1
  Zn  Zn141  1  0.44720647  0.95744135  0.19506557  1
  Zn  Zn142  1  0.43576771  0.93501106  0.69029845  1
  Zn  Zn143  1  0.93614782  0.43739942  0.18705001  1
  Zn  Zn144  1  0.93334907  0.44071406  0.69368926  1
  Zn  Zn145  1  0.93959502  0.93927872  0.18946009  1
  Zn  Zn146  1  0.93461645  0.93553576  0.68899104  1
  Zn  Zn147  1  0.06079238  0.06265620  0.31369440  1
  Zn  Zn148  1  0.06053331  0.06231685  0.81380363  1
  Zn  Zn149  1  0.06434946  0.56176877  0.30698207  1
  Zn  Zn150  1  0.05675603  0.55954208  0.81097233  1
  Zn  Zn151  1  0.56704724  0.13775687  0.31095223  1
  Zn  Zn152  1  0.55747614  0.05693685  0.80953493  1
  Zn  Zn153  1  0.55423949  0.44834907  0.31257672  1
  Zn  Zn154  1  0.56760191  0.55857960  0.81071714  1
  Zn  Zn155  1  0.44201315  0.19292548  0.43925480  1
  Zn  Zn156  1  0.43740304  0.18214711  0.93676808  1
  Zn  Zn157  1  0.44006971  0.68926061  0.43655193  1
  Zn  Zn158  1  0.43760348  0.68265700  0.92872128  1
  Zn  Zn159  1  0.93658619  0.18785944  0.43949055  1
  Zn  Zn160  1  0.93867325  0.18355309  0.93588575  1
  Zn  Zn161  1  0.93480483  0.68787891  0.43686234  1
  Zn  Zn162  1  0.93829065  0.68535806  0.93637184  1
  Zn  Zn163  1  0.06517475  0.30870558  0.06250137  1
  Zn  Zn164  1  0.06388520  0.31399816  0.56233710  1
  Zn  Zn165  1  0.12924752  0.77563587  0.10031025  1
  Zn  Zn166  1  0.06139906  0.81052788  0.56397960  1
  Zn  Zn167  1  0.59198852  0.32656802  0.04092595  1
  Zn  Zn168  1  0.56501316  0.31177369  0.56061252  1
  Zn  Zn169  1  0.44911991  0.81313637  0.05718049  1
  Zn  Zn170  1  0.56363920  0.80865756  0.56472827  1
  O  O171  1  0.12014508  0.10946032  0.12734834  1
  O  O172  1  0.11496401  0.12199951  0.61986780  1
  O  O173  1  0.11696855  0.61398447  0.10977661  1
  O  O174  1  0.10961399  0.63225915  0.61214371  1
  O  O175  1  0.62069914  0.11306363  0.11864518  1
  O  O176  1  0.61159009  0.12158688  0.61841934  1
  O  O177  1  0.61055509  0.61877665  0.11225102  1
  O  O178  1  0.62439527  0.62873598  0.61137927  1
  O  O179  1  0.36339879  0.37438263  0.39128136  1
  O  O180  1  0.38604100  0.37903907  0.87341735  1
  O  O181  1  0.38042515  0.88442047  0.38454730  1
  O  O182  1  0.39077570  0.87880824  0.86288846  1
  O  O183  1  0.88080700  0.38383261  0.37818937  1
  O  O184  1  0.89095166  0.38446643  0.87428202  1
  O  O185  1  0.87958159  0.87935233  0.38112601  1
  O  O186  1  0.89112434  0.88244568  0.87099996  1
  O  O187  1  0.25384413  0.00841007  0.37110879  1
  O  O188  1  0.24825355  0.00479620  0.86601910  1
  O  O189  1  0.24310152  0.50869075  0.35955297  1
  O  O190  1  0.26459678  0.49030461  0.86323184  1
  O  O191  1  0.76290584  -0.00820334  0.36510323  1
  O  O192  1  0.76801868  -0.01078175  0.87911164  1
  O  O193  1  0.76005785  0.51440338  0.37471623  1
  O  O194  1  0.76415066  0.49000912  0.87783832  1
  O  O195  1  0.24035679  0.49471964  0.13091140  1
  O  O196  1  0.25379193  0.48772769  0.63169384  1
  O  O197  1  0.24471243  0.99849215  0.13495274  1
  O  O198  1  0.24362708  0.99728977  0.63049497  1
  O  O199  1  0.72698186  0.50155848  0.12239289  1
  O  O200  1  0.75009297  0.48505345  0.61852610  1
  O  O201  1  0.74785892  0.99443351  0.12841157  1
  O  O202  1  0.75657686  0.98783282  0.62591470  1
  O  O203  1  0.01501267  0.38085801  0.25796833  1
  O  O204  1  0.00850779  0.36617629  0.74939438  1
  O  O205  1  0.00389557  0.86728438  0.25727129  1
  O  O206  1  0.00099152  0.86633674  0.75436415  1
  O  O207  1  0.48099650  0.38233384  0.25720124  1
  O  O208  1  0.50782374  0.37503055  0.75717279  1
  O  O209  1  0.51233231  0.88207994  0.26130583  1
  O  O210  1  0.50771158  0.86584800  0.75299250  1
  O  O211  1  0.48826315  0.10963368  0.23465633  1
  O  O212  1  0.49242083  0.11665938  0.73617950  1
  O  O213  1  0.49455892  0.62172325  0.23306164  1
  O  O214  1  0.50774445  0.63820932  0.74763455  1
  O  O215  1  0.99193397  0.11574879  0.24073959  1
  O  O216  1  1.00712466  0.14051378  0.74193262  1
  O  O217  1  0.99312384  0.63172761  0.24462576  1
  O  O218  1  0.99602448  0.63120078  0.74016135  1
  O  O219  1  0.36468746  0.25294193  -0.00171836  1
  O  O220  1  0.36810253  0.25691739  0.50146709  1
  O  O221  1  0.38333704  0.75154520  -0.00677037  1
  O  O222  1  0.36745809  0.75736193  0.50690041  1
  O  O223  1  0.87576943  0.24176932  0.00190345  1
  O  O224  1  0.87211599  0.25601474  0.50842108  1
  O  O225  1  0.85970243  0.74520096  -0.00386347  1
  O  O226  1  0.87583304  0.76218037  0.50595752  1
  O  O227  1  0.13139911  0.24558885  0.49325134  1
  O  O228  1  0.13719182  0.24697908  0.99271099  1
  O  O229  1  0.12622497  0.74149309  0.49155817  1
  O  O230  1  0.11890461  0.72731681  0.99657503  1
  O  O231  1  0.63301041  0.24197273  0.49552521  1
  O  O232  1  0.61588233  0.22374816  0.99716798  1
  O  O233  1  0.62540616  0.74275109  0.49401836  1
  O  O234  1  0.62888030  0.74118382  0.98506062  1
  O  O235  1  0.50261745  0.23878327  0.12716130  1
  O  O236  1  0.49970046  0.23378118  0.61936901  1
  O  O237  1  0.50467581  0.73549773  0.12768695  1
  O  O238  1  0.48962335  0.74863085  0.63253924  1
  O  O239  1  1.00689054  0.23293883  0.12474489  1
  O  O240  1  0.99503453  0.24548158  0.62988530  1
  O  O241  1  1.01701319  0.74068343  0.13986068  1
  O  O242  1  0.98974546  0.74582515  0.63105493  1
  O  O243  1  0.01355004  0.25568174  0.38207795  1
  O  O244  1  0.00439267  0.25830511  0.86584622  1
  O  O245  1  0.00551904  0.75373560  0.37018841  1
  O  O246  1  -0.00102628  0.75912016  0.86903837  1
  O  O247  1  0.51353619  0.23013089  0.36319107  1
  O  O248  1  0.49421399  0.26384321  0.87653109  1
  O  O249  1  0.49870827  0.76927029  0.37913451  1
  O  O250  1  0.50887725  0.75552144  0.86631794  1
  O  O251  1  0.24443195  0.13090799  0.49626931  1
  O  O252  1  0.24938318  0.13111015  0.99389666  1
  O  O253  1  0.23949200  0.62766987  0.49561301  1
  O  O254  1  0.24024431  0.62343630  0.99711885  1
  O  O255  1  0.73934844  0.13601835  0.51822007  1
  O  O256  1  0.73507892  0.12044046  0.99791130  1
  O  O257  1  0.74335065  0.62826050  0.49278812  1
  O  O258  1  0.73886805  0.63926424  1.00824035  1
  O  O259  1  0.25355776  0.36640169  0.00024137  1
  O  O260  1  0.25344271  0.37328179  0.50742523  1
  O  O261  1  0.24761744  0.87842111  0.01015045  1
  O  O262  1  0.25335480  0.86906412  0.50607772  1
  O  O263  1  0.70589113  0.35791502  0.01921019  1
  O  O264  1  0.75745062  0.36936401  0.50620050  1
  O  O265  1  0.74505561  0.86117692  0.00946523  1
  O  O266  1  0.75714374  0.87481686  0.50532133  1
  O  O267  1  0.13253502  0.49285036  0.24043993  1
  O  O268  1  0.13125200  0.48826126  0.75513060  1
  O  O269  1  0.13314900  0.99690049  0.24780076  1
  O  O270  1  0.13464908  1.00244617  0.74324073  1
  O  O271  1  0.61834236  0.51297606  0.23444948  1
  O  O272  1  0.62892974  0.48887299  0.74595640  1
  O  O273  1  0.63892930  0.99350347  0.24089841  1
  O  O274  1  0.62441234  0.98132471  0.75458667  1
  O  O275  1  0.36625535  0.01170430  0.25889387  1
  O  O276  1  0.36114527  0.00793645  0.74734399  1
  O  O277  1  0.35443932  0.49733310  0.24043234  1
  O  O278  1  0.36630583  0.49312869  0.75620164  1
  O  O279  1  0.87137818  0.00376848  0.25957654  1
  O  O280  1  0.87343885  -0.00363188  0.76300677  1
  O  O281  1  0.87855437  0.50981094  0.26281677  1
  O  O282  1  0.86978773  0.49979676  0.76404736  1
  O  O283  1  0.12281547  0.36824847  0.36789655  1
  O  O284  1  0.11533103  0.37004369  0.86586544  1
  O  O285  1  0.11944962  0.86817323  0.37470659  1
  O  O286  1  0.10698211  0.87506172  0.87010428  1
  O  O287  1  0.62983571  0.38954914  0.37148120  1
  O  O288  1  0.61066762  0.37973311  0.86197889  1
  O  O289  1  0.61983597  0.87686837  0.36753380  1
  O  O290  1  0.61678085  0.86572501  0.86787444  1
  O  O291  1  0.38378501  0.12830725  0.13138658  1
  O  O292  1  0.38420228  0.12890005  0.63184378  1
  O  O293  1  0.38185176  0.62244802  0.12055785  1
  O  O294  1  0.37126728  0.63971143  0.61975510  1
  O  O295  1  0.88827113  0.12136768  0.13587662  1
  O  O296  1  0.88524624  0.13795889  0.62356751  1
  O  O297  1  0.88108141  0.61576169  0.13700685  1
  O  O298  1  0.88471771  0.63590778  0.61840034  1
  O  O299  1  0.24924713  0.25552831  0.11514950  1
  O  O300  1  0.24942007  0.25980138  0.61637498  1
  O  O301  1  0.24209659  0.75929202  0.11692515  1
  O  O302  1  0.25289659  0.75550655  0.62136381  1
  O  O303  1  0.76245559  0.24579264  0.11528678  1
  O  O304  1  0.76262798  0.26303578  0.61612011  1
  O  O305  1  0.74454269  0.75824107  0.11189612  1
  O  O306  1  0.76340781  0.75864547  0.62216952  1
  O  O307  1  0.24010155  0.24543191  0.38134550  1
  O  O308  1  0.24559681  0.24549611  0.88005408  1
  O  O309  1  0.23853918  0.74344199  0.38405249  1
  O  O310  1  0.24140947  0.75501930  0.87809884  1
  O  O311  1  0.75466918  0.25343099  0.39011721  1
  O  O312  1  0.74836713  0.25827218  0.87610469  1
  O  O313  1  0.75246648  0.73888858  0.37569221  1
  O  O314  1  0.74330719  0.75855866  0.88737566  1
  O  O315  1  0.00625486  0.11385299  0.00907723  1
  O  O316  1  0.00365466  0.11957729  0.50948620  1
  O  O317  1  -0.00329304  0.62615540  0.01465716  1
  O  O318  1  0.00522393  0.62061027  0.50379894  1
  O  O319  1  0.50609907  0.11574511  0.00525909  1
  O  O320  1  0.50659970  0.11654235  0.51035526  1
  O  O321  1  0.50551700  0.61235198  -0.00594550  1
  O  O322  1  0.50607079  0.61905264  0.50252950  1
  O  O323  1  0.49291831  0.38648873  0.50405735  1
  O  O324  1  0.50048235  0.38494745  0.98373055  1
  O  O325  1  0.49702771  0.88146620  0.50048495  1
  O  O326  1  0.50732365  0.88550012  0.98847682  1
  O  O327  1  0.99587594  0.38130510  0.49414483  1
  O  O328  1  1.00924463  0.37192826  0.98604344  1
  O  O329  1  0.99313372  0.87906319  0.49657903  1
  O  O330  1  1.00017416  0.88112891  0.98753534  1
  O  O331  1  0.49703550  0.50950221  0.39393017  1
  O  O332  1  0.48939668  0.49299223  0.87388376  1
  O  O333  1  0.49269158  0.98851971  0.39211342  1
  O  O334  1  0.49752695  0.99092254  0.88310124  1
  O  O335  1  0.99507374  0.49622664  0.38034705  1
  O  O336  1  0.99446642  0.48477568  0.87318350  1
  O  O337  1  0.99465709  0.99180476  0.38121287  1
  O  O338  1  0.99444470  0.99140792  0.88138038  1
  O  O339  1  0.00710576  0.00309472  0.11840848  1
  O  O340  1  0.00104902  0.00900623  0.62313805  1
  O  O341  1  0.01328368  0.50962593  0.13507825  1
  O  O342  1  -0.00756411  0.51077411  0.61796342  1
  O  O343  1  0.51204893  0.00816792  0.11519141  1
  O  O344  1  0.49026898  0.00772437  0.61594058  1
  O  O345  1  0.50097678  0.51274813  0.10962580  1
  O  O346  1  0.50046043  0.50533141  0.61652193  1
  O  O347  1  0.24037029  0.38374548  0.24487943  1
  O  O348  1  0.24185548  0.37915985  0.74142056  1
  O  O349  1  0.24565569  0.89026597  0.25576934  1
  O  O350  1  0.24682518  0.88467523  0.74248423  1
  O  O351  1  0.74914091  0.38299114  0.23945346  1
  O  O352  1  0.73938579  0.37691251  0.74185852  1
  O  O353  1  0.74714558  0.88219608  0.24260896  1
  O  O354  1  0.74308813  0.87569889  0.74237975  1
  O  O355  1  0.25520518  0.11600080  0.25463466  1
  O  O356  1  0.25531044  0.11912686  0.75198438  1
  O  O357  1  0.24554103  0.61287111  0.25593900  1
  O  O358  1  0.24020070  0.60923747  0.74122678  1
  O  O359  1  0.76367142  0.11004575  0.24436759  1
  O  O360  1  0.74227990  0.11488138  0.73757867  1
  O  O361  1  0.75598883  0.62316678  0.25437382  1
  O  O362  1  0.75744542  0.62066532  0.73999215  1
  O  O363  1  0.36977221  0.12145056  0.36964959  1
  O  O364  1  0.36911637  0.11881363  0.86569142  1
  O  O365  1  0.35888910  0.62518558  0.38806827  1
  O  O366  1  0.37810023  0.60680822  0.86628826  1
  O  O367  1  0.88469596  0.11151387  0.37045491  1
  O  O368  1  0.88582246  0.10545214  0.87065267  1
  O  O369  1  0.87054184  0.61972171  0.36774179  1
  O  O370  1  0.88535015  0.60570669  0.87483070  1
  O  O371  1  0.12847869  0.37981152  0.13062299  1
  O  O372  1  0.13353909  0.37171281  0.63348725  1
  O  O373  1  0.12008161  0.88685068  0.13948297  1
  O  O374  1  0.12950191  0.88343691  0.62530009  1
  O  O375  1  0.59894228  0.39688287  0.13197806  1
  O  O376  1  0.63201356  0.37333665  0.63382923  1
  O  O377  1  0.63415934  0.88982496  0.13363832  1
  O  O378  1  0.63644956  0.86522245  0.63435920  1
  O  O379  1  0.13257020  0.25911581  0.25939451  1
  O  O380  1  0.11972390  0.25983440  0.75422572  1
  O  O381  1  0.11761647  0.75805634  0.26558754  1
  O  O382  1  0.10946410  0.75047370  0.75039771  1
  O  O383  1  0.62492475  0.22788665  0.26012997  1
  O  O384  1  0.62506518  0.26381481  0.75040606  1
  O  O385  1  0.63222870  0.76567107  0.25073537  1
  O  O386  1  0.62005091  0.75677713  0.75840627  1
  O  O387  1  0.36692808  0.23679692  0.24726967  1
  O  O388  1  0.36834193  0.23510002  0.74804721  1
  O  O389  1  0.36397489  0.73885904  0.26321895  1
  O  O390  1  0.38538693  0.75516944  0.74079235  1
  O  O391  1  0.87393781  0.23419985  0.25731695  1
  O  O392  1  0.88549718  0.26093696  0.73767208  1
  O  O393  1  0.88628172  0.74000333  0.25404402  1
  O  O394  1  0.88351712  0.74916617  0.74242299  1
  O  O395  1  0.38692255  0.49219203  0.50555051  1
  O  O396  1  0.38048279  0.49234781  0.98437132  1
  O  O397  1  0.38001508  0.99492476  0.49829758  1
  O  O398  1  0.38911780  1.00364864  1.00121176  1
  O  O399  1  0.88012857  0.49768851  0.48859719  1
  O  O400  1  0.87179419  0.50067821  0.98910353  1
  O  O401  1  0.88208133  0.98687880  0.49110865  1
  O  O402  1  0.88677626  1.00378502  0.99389443  1
  O  O403  1  0.11492594  -0.00054168  0.00861170  1
  O  O404  1  0.11810651  0.00733467  0.50592891  1
  O  O405  1  0.13059998  0.50591683  0.00797136  1
  O  O406  1  0.12026075  0.51141664  0.49413875  1
  O  O407  1  0.61873404  0.00649849  0.00435849  1
  O  O408  1  0.61581625  0.00348395  0.50665449  1
  O  O409  1  0.61619158  0.50753470  0.00137905  1
  O  O410  1  0.61359173  0.50877900  0.50652985  1
  O  O411  1  0.36701214  0.37252765  0.10989733  1
  O  O412  1  0.36626513  0.36984287  0.61770021  1
  O  O413  1  0.39589427  0.86936660  0.14428172  1
  O  O414  1  0.36703054  0.86706356  0.62080748  1
  O  O415  1  0.87750079  0.37277658  0.12416248  1
  O  O416  1  0.87185427  0.37154731  0.61807581  1
  O  O417  1  0.86378938  0.87766610  0.13020131  1
  O  O418  1  0.87068892  0.86912359  0.61645350  1
  O  O419  1  0.12862799  0.13214127  0.38023515  1
  O  O420  1  0.13144801  0.13296885  0.87457498  1
  O  O421  1  0.12796283  0.63182580  0.38016304  1
  O  O422  1  0.11543665  0.61862753  0.89019437  1
  O  O423  1  0.63566543  0.10594404  0.39418528  1
  O  O424  1  0.62401321  0.11786161  0.87994006  1
  O  O425  1  0.63546475  0.62794449  0.38735404  1
  O  O426  1  0.62243965  0.63096962  0.88504038  1
