# generated using pymatgen
data_V85Zn86O256
_symmetry_space_group_name_H-M   'P 1'
_cell_length_a   16.94978641
_cell_length_b   16.94577578
_cell_length_c   16.94466635
_cell_angle_alpha   89.97820120
_cell_angle_beta   89.95969989
_cell_angle_gamma   90.03273929
_symmetry_Int_Tables_number   1
_chemical_formula_structural   V85Zn86O256
_chemical_formula_sum   'V85 Zn86 O256'
_cell_volume   4866.96807494
_cell_formula_units_Z   1
loop_
 _symmetry_equiv_pos_site_id
 _symmetry_equiv_pos_as_xyz
  1  'x, y, z'
loop_
 _atom_site_type_symbol
 _atom_site_label
 _atom_site_symmetry_multiplicity
 _atom_site_fract_x
 _atom_site_fract_y
 _atom_site_fract_z
 _atom_site_occupancy
  V  V0  1  0.63578543  -0.01235092  0.63428182  1
  V  V1  1  -0.00179479  0.24902705  0.25050188  1
  V  V2  1  0.75356680  0.10372569  0.87314470  1
  V  V3  1  0.81793673  0.80679087  0.67139845  1
  V  V4  1  0.37244332  0.50453330  0.87710325  1
  V  V5  1  0.12679137  0.62483527  0.49908936  1
  V  V6  1  0.87338571  0.49957043  0.87602655  1
  V  V7  1  -0.00217662  0.87537095  0.87013043  1
  V  V8  1  0.87409751  0.37779836  0.00136458  1
  V  V9  1  0.87767725  0.88492655  -0.00042138  1
  V  V10  1  0.38918924  0.38473647  0.48808953  1
  V  V11  1  0.37257315  0.74406735  0.12777123  1
  V  V12  1  0.74226811  0.37302174  0.13116388  1
  V  V13  1  0.13158633  0.88619614  0.24852414  1
  V  V14  1  0.24916336  -0.00661958  0.74787373  1
  V  V15  1  0.12425459  0.38206016  0.24943644  1
  V  V16  1  0.25312132  0.88088273  0.12692193  1
  V  V17  1  0.37015526  0.12382519  0.75064988  1
  V  V18  1  0.62088610  0.12738822  -0.00005669  1
  V  V19  1  -0.00652459  0.37525867  0.37794555  1
  V  V20  1  0.57085985  0.42150737  0.30451413  1
  V  V21  1  0.74999978  0.12167907  0.36806322  1
  V  V22  1  0.62841861  0.88028513  0.25324639  1
  V  V23  1  -0.00340318  0.50142106  0.50171701  1
  V  V24  1  0.49592221  0.74819951  0.24977680  1
  V  V25  1  0.25106077  0.74454100  -0.00496144  1
  V  V26  1  0.87404432  0.24895330  0.12363332  1
  V  V27  1  0.49426139  0.87655657  0.37583398  1
  V  V28  1  0.00117653  0.87521100  0.37340630  1
  V  V29  1  0.87230587  0.62521154  0.25740327  1
  V  V30  1  0.50176947  0.24699132  0.25218027  1
  V  V31  1  0.63153919  0.74736366  0.37648830  1
  V  V32  1  0.12502016  0.25035948  0.37453317  1
  V  V33  1  0.62327584  0.61964870  0.50283432  1
  V  V34  1  0.12903597  -0.00418407  0.62367122  1
  V  V35  1  0.37042659  0.87989495  0.50232688  1
  V  V36  1  0.00001338  -0.00028120  0.49946655  1
  V  V37  1  0.37713535  0.75309838  0.62622282  1
  V  V38  1  0.11707711  0.24250041  0.88379028  1
  V  V39  1  0.50473001  0.62860729  0.11580420  1
  V  V40  1  0.37226795  0.25223276  0.62558175  1
  V  V41  1  0.62009931  0.48525955  0.62537216  1
  V  V42  1  0.74676460  0.48283580  0.74385340  1
  V  V43  1  0.37401870  0.24907214  0.12643439  1
  V  V44  1  0.62744804  0.00210197  0.12870436  1
  V  V45  1  0.25370471  0.11404187  0.37128886  1
  V  V46  1  0.12899052  0.74886950  0.37285008  1
  V  V47  1  0.73904451  0.62045288  0.87815305  1
  V  V48  1  -0.00475352  0.63782620  0.62730855  1
  V  V49  1  0.75716772  0.25220011  0.51504207  1
  V  V50  1  0.37388606  -0.00317170  0.87749689  1
  V  V51  1  0.51055182  0.87493993  0.86854031  1
  V  V52  1  0.62726118  0.12218951  0.50176480  1
  V  V53  1  0.49784471  0.12208556  0.62505940  1
  V  V54  1  0.12571502  0.12527838  0.49826798  1
  V  V55  1  0.75241178  0.87872718  0.13039050  1
  V  V56  1  -0.00415067  0.13745586  0.62903365  1
  V  V57  1  0.37666343  0.62881479  0.75367192  1
  V  V58  1  0.74674269  0.25153048  -0.00713975  1
  V  V59  1  0.12259435  0.86681055  0.74552057  1
  V  V60  1  0.00769721  0.12531504  0.11382043  1
  V  V61  1  0.49781831  -0.00045251  0.49838257  1
  V  V62  1  0.00260000  0.50136606  -0.00047554  1
  V  V63  1  0.25217674  0.25417895  0.49641867  1
  V  V64  1  0.87677466  0.75036130  0.12345714  1
  V  V65  1  0.24958506  0.50561598  0.75323957  1
  V  V66  1  0.00406600  0.75033059  0.24822520  1
  V  V67  1  0.86975144  0.87223822  0.50040192  1
  V  V68  1  0.26723736  0.62180597  0.37355900  1
  V  V69  1  0.87384932  0.62595063  0.74716534  1
  V  V70  1  0.37586740  0.37429597  -0.00240508  1
  V  V71  1  0.25156757  0.75076660  0.50405020  1
  V  V72  1  0.37295969  0.10999896  0.25335939  1
  V  V73  1  0.12406273  0.74459927  0.87281892  1
  V  V74  1  0.86954613  -0.00168011  0.36824532  1
  V  V75  1  0.12667584  0.50224307  0.62603386  1
  V  V76  1  0.26649192  0.50275706  0.25300225  1
  V  V77  1  0.12317598  0.36676946  0.75004600  1
  V  V78  1  0.75140666  0.49964692  0.25657935  1
  V  V79  1  0.00411426  0.62522966  0.12464660  1
  V  V80  1  0.62652409  0.50303616  0.11421983  1
  V  V81  1  0.75602540  0.74136885  0.49689830  1
  V  V82  1  0.74250766  0.74266319  0.00423780  1
  V  V83  1  0.50283722  0.25513329  0.75290524  1
  V  V84  1  0.62346523  0.24827581  0.37470102  1
  Zn  Zn85  1  0.23804065  0.11862966  0.88279735  1
  Zn  Zn86  1  0.87342239  0.12027607  0.24602129  1
  Zn  Zn87  1  0.49929520  0.62034873  0.62103367  1
  Zn  Zn88  1  0.00055046  0.37795295  0.86937697  1
  Zn  Zn89  1  0.86844534  0.50280167  0.38116717  1
  Zn  Zn90  1  0.24917494  0.37684826  0.12389099  1
  Zn  Zn91  1  0.37755861  0.87303469  -0.00071288  1
  Zn  Zn92  1  0.13863900  0.01331054  0.11872278  1
  Zn  Zn93  1  0.87273173  0.37404094  0.51862735  1
  Zn  Zn94  1  0.00807765  0.00462461  -0.00607704  1
  Zn  Zn95  1  0.51382218  0.75406402  0.74275272  1
  Zn  Zn96  1  0.13129217  0.62091484  -0.00767355  1
  Zn  Zn97  1  0.50399420  0.37923606  0.87166558  1
  Zn  Zn98  1  0.49837872  0.12146362  0.12600692  1
  Zn  Zn99  1  0.24818209  0.24536177  -0.00030633  1
  Zn  Zn100  1  0.86812140  0.11872345  0.74367783  1
  Zn  Zn101  1  0.49973342  -0.00238991  0.00096359  1
  Zn  Zn102  1  0.63111192  0.25393974  0.86390047  1
  Zn  Zn103  1  0.50442061  0.50508000  -0.00693829  1
  Zn  Zn104  1  0.62349852  0.74626494  0.87338970  1
  Zn  Zn105  1  0.25145703  0.37831374  0.62237624  1
  Zn  Zn106  1  0.12879078  0.50047042  0.12321436  1
  Zn  Zn107  1  0.19007245  0.19070257  0.19075874  1
  Zn  Zn108  1  0.18645811  0.18353704  0.68750899  1
  Zn  Zn109  1  0.18995941  0.68626549  0.18804057  1
  Zn  Zn110  1  0.19052141  0.68628892  0.68643583  1
  Zn  Zn111  1  0.68642960  0.18794479  0.18854515  1
  Zn  Zn112  1  0.68414585  0.17537413  0.68998999  1
  Zn  Zn113  1  0.68756092  0.68772479  0.18984279  1
  Zn  Zn114  1  0.68334122  0.67774498  0.69112391  1
  Zn  Zn115  1  0.31360634  0.31255112  0.31206647  1
  Zn  Zn116  1  0.30605728  0.31394337  0.81516607  1
  Zn  Zn117  1  0.31333458  0.81319280  0.31375314  1
  Zn  Zn118  1  0.31071407  0.81452875  0.81255293  1
  Zn  Zn119  1  0.81060236  0.31089421  0.31405272  1
  Zn  Zn120  1  0.82906647  0.30039033  0.69866389  1
  Zn  Zn121  1  0.81354418  0.81143037  0.31219491  1
  Zn  Zn122  1  0.80499672  0.81768781  0.82997582  1
  Zn  Zn123  1  0.18873764  0.43826260  0.43494033  1
  Zn  Zn124  1  0.19074119  0.43367745  0.93583215  1
  Zn  Zn125  1  0.18858260  0.93566988  0.43723134  1
  Zn  Zn126  1  0.18582798  0.93368577  0.93925291  1
  Zn  Zn127  1  0.69172009  0.43637624  0.44607718  1
  Zn  Zn128  1  0.68620381  0.43148975  0.93335895  1
  Zn  Zn129  1  0.68829232  0.93517218  0.44373340  1
  Zn  Zn130  1  0.68394056  0.93383358  0.94814860  1
  Zn  Zn131  1  0.31284796  0.06528870  0.05965237  1
  Zn  Zn132  1  0.31004311  0.06386258  0.56093429  1
  Zn  Zn133  1  0.31427579  0.56417250  0.06577269  1
  Zn  Zn134  1  0.31513942  0.56287729  0.56330064  1
  Zn  Zn135  1  0.81100938  0.06520270  0.05947514  1
  Zn  Zn136  1  0.81376777  0.06113523  0.56051022  1
  Zn  Zn137  1  0.81329778  0.56379904  0.06706278  1
  Zn  Zn138  1  0.80998792  0.56168029  0.56580803  1
  Zn  Zn139  1  0.43665826  0.43988665  0.17777336  1
  Zn  Zn140  1  0.43459015  0.43666839  0.68352443  1
  Zn  Zn141  1  0.43928868  0.93362689  0.18575360  1
  Zn  Zn142  1  0.43963309  0.93617745  0.68634545  1
  Zn  Zn143  1  0.93642655  0.43810120  0.18742092  1
  Zn  Zn144  1  0.94078028  0.44365922  0.68733228  1
  Zn  Zn145  1  0.94122497  0.93955075  0.18673422  1
  Zn  Zn146  1  0.94280478  0.94683959  0.69170344  1
  Zn  Zn147  1  0.06030400  0.06429564  0.30941856  1
  Zn  Zn148  1  0.05387175  0.05791995  0.80891983  1
  Zn  Zn149  1  0.06381335  0.56332814  0.31546048  1
  Zn  Zn150  1  0.05973006  0.56410083  0.80974493  1
  Zn  Zn151  1  0.55951356  0.06145735  0.31428605  1
  Zn  Zn152  1  0.56244639  0.06480371  0.81278007  1
  Zn  Zn153  1  0.56396298  0.58161853  0.30928029  1
  Zn  Zn154  1  0.56029731  0.56090373  0.80592118  1
  Zn  Zn155  1  0.43646291  0.18986106  0.43548834  1
  Zn  Zn156  1  0.43274552  0.18342004  0.93743253  1
  Zn  Zn157  1  0.44171200  0.68902809  0.44005830  1
  Zn  Zn158  1  0.43650256  0.69011554  0.93569143  1
  Zn  Zn159  1  0.93635043  0.18506219  0.43951429  1
  Zn  Zn160  1  0.90333817  0.22293894  0.87870873  1
  Zn  Zn161  1  0.93989920  0.68852061  0.43731830  1
  Zn  Zn162  1  0.93618650  0.69074848  0.93623495  1
  Zn  Zn163  1  0.06105868  0.31406961  0.06219685  1
  Zn  Zn164  1  0.06486680  0.31636560  0.56226356  1
  Zn  Zn165  1  0.06792696  0.81744778  0.05863361  1
  Zn  Zn166  1  0.06270197  0.81535943  0.56115162  1
  Zn  Zn167  1  0.55942616  0.31534687  0.06269134  1
  Zn  Zn168  1  0.56065399  0.30831728  0.56173216  1
  Zn  Zn169  1  0.56160472  0.81623708  0.05971041  1
  Zn  Zn170  1  0.56407245  0.81052427  0.56316844  1
  O  O171  1  0.11252831  0.12920401  0.13237326  1
  O  O172  1  0.11998173  0.11814347  0.61567639  1
  O  O173  1  0.11264151  0.62433680  0.12480114  1
  O  O174  1  0.11875210  0.62074101  0.61939344  1
  O  O175  1  0.62406276  0.11654562  0.12234644  1
  O  O176  1  0.61729696  0.11929429  0.61291648  1
  O  O177  1  0.61778421  0.61590859  0.13230879  1
  O  O178  1  0.62311502  0.61371245  0.61680641  1
  O  O179  1  0.37368723  0.37019903  0.38942182  1
  O  O180  1  0.37745873  0.38188441  0.88145767  1
  O  O181  1  0.38788328  0.86970318  0.38361491  1
  O  O182  1  0.38127210  0.88528919  0.87440282  1
  O  O183  1  0.88701437  0.37657786  0.37542070  1
  O  O184  1  0.87890586  0.39179227  0.88391512  1
  O  O185  1  0.87927080  0.87997385  0.38116481  1
  O  O186  1  0.88449532  0.86936389  0.88840565  1
  O  O187  1  0.24798493  0.01486216  0.38088254  1
  O  O188  1  0.25639685  -0.00299068  0.86672523  1
  O  O189  1  0.24609073  0.50802697  0.36234049  1
  O  O190  1  0.26198661  0.49740060  0.86709539  1
  O  O191  1  0.75775245  0.00810570  0.38440084  1
  O  O192  1  0.74373542  0.00530412  0.88284195  1
  O  O193  1  0.74963596  0.49265609  0.36145581  1
  O  O194  1  0.75531279  0.50278389  0.86831647  1
  O  O195  1  0.24841596  0.50075171  0.14009421  1
  O  O196  1  0.24313210  0.50013192  0.63214651  1
  O  O197  1  0.25600327  0.98477490  0.12410627  1
  O  O198  1  0.23733009  1.00507716  0.62996386  1
  O  O199  1  0.74359456  0.49432789  0.13457384  1
  O  O200  1  0.74203530  0.50057629  0.63829196  1
  O  O201  1  0.73933784  0.99181948  0.12296099  1
  O  O202  1  0.73453358  1.00463907  0.61804691  1
  O  O203  1  0.00522789  0.37110837  0.25670868  1
  O  O204  1  0.02057267  0.38904155  0.75175720  1
  O  O205  1  0.00851869  0.86933272  0.25368645  1
  O  O206  1  0.01244810  0.87319288  0.75561546  1
  O  O207  1  0.50305285  0.36852016  0.24659712  1
  O  O208  1  0.49127360  0.35740513  0.74800974  1
  O  O209  1  0.50769969  0.86810054  0.25779175  1
  O  O210  1  0.49445745  0.87225452  0.76418833  1
  O  O211  1  0.49208532  0.13163210  0.25114481  1
  O  O212  1  0.48884537  0.13055748  0.74293918  1
  O  O213  1  0.50227259  0.64218035  0.23867709  1
  O  O214  1  0.48606622  0.62830599  0.74638946  1
  O  O215  1  0.99436315  0.13552047  0.24660943  1
  O  O216  1  1.00823009  0.12526726  0.72963636  1
  O  O217  1  0.99586438  0.62960677  0.24381839  1
  O  O218  1  0.98428152  0.62082790  0.74208422  1
  O  O219  1  0.37771747  0.25661077  0.00891234  1
  O  O220  1  0.36837077  0.25443903  0.50654378  1
  O  O221  1  0.36806108  0.75135466  0.00775022  1
  O  O222  1  0.37078844  0.75709190  0.50578000  1
  O  O223  1  0.86609489  0.25996950  0.00409331  1
  O  O224  1  0.85892489  0.24858037  0.49648849  1
  O  O225  1  0.86636926  0.75627827  0.00855432  1
  O  O226  1  0.86690512  0.75601790  0.49390065  1
  O  O227  1  0.13313705  0.24714337  0.49364985  1
  O  O228  1  0.12624039  0.25679134  0.98677806  1
  O  O229  1  0.13473774  0.74793527  0.49404851  1
  O  O230  1  0.13284888  0.74772441  0.99048622  1
  O  O231  1  0.63261980  0.24112984  0.49556921  1
  O  O232  1  0.63157251  0.24142838  1.00943074  1
  O  O233  1  0.63478615  0.74518414  0.49433914  1
  O  O234  1  0.63926893  0.75447338  0.99917698  1
  O  O235  1  0.49125269  0.24795532  0.13475480  1
  O  O236  1  0.49105629  0.24252795  0.63190970  1
  O  O237  1  0.49642990  0.74795423  0.13024187  1
  O  O238  1  0.49105460  0.74598173  0.62487609  1
  O  O239  1  0.99252316  0.24373377  0.12851529  1
  O  O240  1  1.00518335  0.23561163  0.61531457  1
  O  O241  1  0.99702862  0.74414329  0.12812289  1
  O  O242  1  1.00261996  0.73657629  0.61777520  1
  O  O243  1  0.00335974  0.25701114  0.37226307  1
  O  O244  1  0.01251272  0.26106834  0.87873875  1
  O  O245  1  0.00757779  0.75673116  0.36921119  1
  O  O246  1  0.00998377  0.76160683  0.88041322  1
  O  O247  1  0.51454267  0.24592238  0.37025606  1
  O  O248  1  0.49381933  0.24556931  0.85787918  1
  O  O249  1  0.50802423  0.75700942  0.36852824  1
  O  O250  1  0.50062985  0.76386144  0.87446195  1
  O  O251  1  0.24631474  0.13638544  0.49282542  1
  O  O252  1  0.25377661  0.13159330  0.99458620  1
  O  O253  1  0.24636653  0.63026469  0.49262083  1
  O  O254  1  0.24736619  0.63901748  1.00875950  1
  O  O255  1  0.74348485  0.13385615  0.49271450  1
  O  O256  1  0.73713357  0.13104393  0.99800981  1
  O  O257  1  0.74304756  0.63413194  0.50170666  1
  O  O258  1  0.75701106  0.63156116  0.99336642  1
  O  O259  1  0.26211676  0.37061022  0.00286036  1
  O  O260  1  0.25138324  0.36356192  0.49994073  1
  O  O261  1  0.25285739  0.86159415  0.01075639  1
  O  O262  1  0.26185639  0.86571172  0.49203944  1
  O  O263  1  0.75460746  0.37021880  0.01223347  1
  O  O264  1  0.75273160  0.35557342  0.49857866  1
  O  O265  1  0.75710195  0.86758988  0.01264515  1
  O  O266  1  0.76347416  0.86529826  0.49976595  1
  O  O267  1  0.12500525  0.48962752  0.25042120  1
  O  O268  1  0.13365008  0.49847776  0.74661537  1
  O  O269  1  0.12204334  0.98882748  0.24463477  1
  O  O270  1  0.13023025  0.99159914  0.74202079  1
  O  O271  1  0.62843379  0.49322788  0.24703918  1
  O  O272  1  0.63731587  0.50115866  0.73951279  1
  O  O273  1  0.62198510  0.98725751  0.24824121  1
  O  O274  1  0.61802670  1.00592883  0.73205067  1
  O  O275  1  0.38289230  0.01113933  0.24969734  1
  O  O276  1  0.36601913  0.00227581  0.75159752  1
  O  O277  1  0.36478687  0.49579665  0.25014462  1
  O  O278  1  0.36872217  0.50615012  0.75411276  1
  O  O279  1  0.87745617  -0.00147898  0.26440828  1
  O  O280  1  0.88429872  0.01081356  0.75492204  1
  O  O281  1  0.86765660  0.50773169  0.25119959  1
  O  O282  1  0.86567999  0.50657484  0.75789067  1
  O  O283  1  0.11309695  0.37148584  0.37035594  1
  O  O284  1  0.12573166  0.36901908  0.86308207  1
  O  O285  1  0.12264854  0.86975443  0.36705003  1
  O  O286  1  0.12006607  0.86455857  0.86454685  1
  O  O287  1  0.62890462  0.36698356  0.37224650  1
  O  O288  1  0.61527359  0.36397990  0.88397812  1
  O  O289  1  0.61836865  0.86852766  0.37171955  1
  O  O290  1  0.61312948  0.87646830  0.87730909  1
  O  O291  1  0.37755016  0.13125972  0.13605139  1
  O  O292  1  0.37720522  0.13429307  0.62778604  1
  O  O293  1  0.38476994  0.63735620  0.12519616  1
  O  O294  1  0.37764802  0.63574651  0.62915088  1
  O  O295  1  0.87853958  0.13690005  0.12477175  1
  O  O296  1  0.89209815  0.12141854  0.61806506  1
  O  O297  1  0.88664307  0.62951365  0.13440103  1
  O  O298  1  0.88199275  0.62092888  0.63464177  1
  O  O299  1  0.26437124  0.25407210  0.12917195  1
  O  O300  1  0.25634572  0.24925538  0.61607668  1
  O  O301  1  0.25832973  0.75423569  0.12232381  1
  O  O302  1  0.25706124  0.74489395  0.60980975  1
  O  O303  1  0.75558499  0.25606490  0.12164543  1
  O  O304  1  0.74873944  0.24194378  0.61813508  1
  O  O305  1  0.75607783  0.75518977  0.12210729  1
  O  O306  1  0.75247033  0.74707719  0.61658867  1
  O  O307  1  0.24390934  0.24483666  0.38063948  1
  O  O308  1  0.23238251  0.24753917  0.87376661  1
  O  O309  1  0.24873528  0.74176862  0.38299466  1
  O  O310  1  0.24148001  0.75592349  0.88502623  1
  O  O311  1  0.73923335  0.24244253  0.37956654  1
  O  O312  1  0.74795514  0.24683777  0.89152648  1
  O  O313  1  0.74226597  0.75570642  0.38343514  1
  O  O314  1  0.74912539  0.73777030  0.88738189  1
  O  O315  1  -0.00055114  0.12635890  0.01584297  1
  O  O316  1  0.00801776  0.11808516  0.50237798  1
  O  O317  1  -0.00061090  0.61629739  0.00741710  1
  O  O318  1  0.00508880  0.61841955  0.50398396  1
  O  O319  1  0.50994740  0.12380610  0.00286518  1
  O  O320  1  0.50540686  0.11798089  0.50204283  1
  O  O321  1  0.49963448  0.62675349  0.01155228  1
  O  O322  1  0.51806613  0.62773432  0.49848155  1
  O  O323  1  0.48821613  0.37046760  0.50002222  1
  O  O324  1  0.48640105  0.38170125  1.00204420  1
  O  O325  1  0.49318889  0.87972992  0.49384606  1
  O  O326  1  0.49738607  0.87750824  0.98706451  1
  O  O327  1  0.99780774  0.38323055  0.49434819  1
  O  O328  1  0.99357540  0.38970193  1.00323204  1
  O  O329  1  0.99091988  0.87790763  0.49223186  1
  O  O330  1  0.99033879  0.87360071  0.99580187  1
  O  O331  1  0.51814909  0.48561631  0.35758832  1
  O  O332  1  0.48754630  0.49977836  0.87381276  1
  O  O333  1  0.50493252  0.99092264  0.38865509  1
  O  O334  1  0.49399113  0.99063668  0.87417556  1
  O  O335  1  0.99926492  0.49457877  0.38724916  1
  O  O336  1  0.99255727  0.50267375  0.88386594  1
  O  O337  1  0.99412435  0.99446495  0.38024931  1
  O  O338  1  1.00755322  0.98163688  0.87808529  1
  O  O339  1  -0.00176445  0.01942796  0.12842147  1
  O  O340  1  0.01371621  0.00501882  0.61488122  1
  O  O341  1  0.00083841  0.50867355  0.11855542  1
  O  O342  1  0.00711858  0.50949077  0.61439790  1
  O  O343  1  0.51401210  -0.00171117  0.12484474  1
  O  O344  1  0.50364545  0.00374535  0.61333673  1
  O  O345  1  0.50917471  0.51103471  0.12426387  1
  O  O346  1  0.51588616  0.50054658  0.63264414  1
  O  O347  1  0.24251387  0.38707915  0.25314367  1
  O  O348  1  0.24073428  0.38706121  0.74674382  1
  O  O349  1  0.24222939  0.86944276  0.24314853  1
  O  O350  1  0.24104211  0.88650325  0.75025352  1
  O  O351  1  0.75627123  0.38178895  0.23872435  1
  O  O352  1  0.75317928  0.38583675  0.75263783  1
  O  O353  1  0.74375548  0.86955218  0.23903108  1
  O  O354  1  0.76468387  0.86390154  0.73213212  1
  O  O355  1  0.26120682  0.12899551  0.25858853  1
  O  O356  1  0.25285583  0.11203263  0.75356009  1
  O  O357  1  0.24709533  0.61147386  0.25838214  1
  O  O358  1  0.26072806  0.61353862  0.74459736  1
  O  O359  1  0.75194433  0.12808660  0.26389333  1
  O  O360  1  0.74387688  0.12234044  0.77034894  1
  O  O361  1  0.76069105  0.61493482  0.24378184  1
  O  O362  1  0.76037609  0.61587725  0.75985626  1
  O  O363  1  0.36672356  0.13065886  0.36475043  1
  O  O364  1  0.37581417  0.10993711  0.86682301  1
  O  O365  1  0.36670101  0.62799156  0.37911192  1
  O  O366  1  0.37611064  0.61875423  0.86616420  1
  O  O367  1  0.86672603  0.11566239  0.37558089  1
  O  O368  1  0.85261553  0.11950073  0.89318791  1
  O  O369  1  0.88134194  0.62341564  0.36122574  1
  O  O370  1  0.86980802  0.61623276  0.86986326  1
  O  O371  1  0.12738400  0.37677103  0.13529513  1
  O  O372  1  0.12804691  0.38228037  0.63419358  1
  O  O373  1  0.13704071  0.86936785  0.13579410  1
  O  O374  1  0.12187872  0.88266813  0.63197807  1
  O  O375  1  0.63338931  0.38400314  0.12483009  1
  O  O376  1  0.62344617  0.38626454  0.61917341  1
  O  O377  1  0.63218645  0.87977905  0.13344175  1
  O  O378  1  0.62231248  0.88863063  0.62000346  1
  O  O379  1  0.12021734  0.26259116  0.25637735  1
  O  O380  1  0.12952543  0.26402833  0.75154331  1
  O  O381  1  0.12120011  0.75496649  0.25583540  1
  O  O382  1  0.13498661  0.75908112  0.75478823  1
  O  O383  1  0.61271396  0.24533658  0.25781246  1
  O  O384  1  0.60605362  0.24175110  0.74646247  1
  O  O385  1  0.62113345  0.76050173  0.25742663  1
  O  O386  1  0.62541728  0.74205131  0.75884890  1
  O  O387  1  0.38608940  0.24725806  0.24592281  1
  O  O388  1  0.37522979  0.24490824  0.74202421  1
  O  O389  1  0.38578502  0.75652265  0.24281593  1
  O  O390  1  0.37047218  0.74423504  0.74128291  1
  O  O391  1  0.87989517  0.25037573  0.23982503  1
  O  O392  1  0.87424727  0.22915097  0.76800781  1
  O  O393  1  0.88212892  0.74394840  0.24429683  1
  O  O394  1  0.86460794  0.74551601  0.74218514  1
  O  O395  1  0.37204385  0.48346523  0.50511853  1
  O  O396  1  0.37439812  0.49538749  0.99268274  1
  O  O397  1  0.38128066  0.98922122  0.50676036  1
  O  O398  1  0.37885801  0.99657236  0.99072163  1
  O  O399  1  0.88173532  0.49811296  0.49907740  1
  O  O400  1  0.88046758  0.49822504  0.99646069  1
  O  O401  1  0.87987961  0.99048907  0.49189497  1
  O  O402  1  0.87930307  0.98715382  1.00920860  1
  O  O403  1  0.12006995  -0.01235982  0.01023213  1
  O  O404  1  0.12207840  0.00260522  0.50540879  1
  O  O405  1  0.11829141  0.50199237  -0.00003312  1
  O  O406  1  0.11901395  0.50466159  0.50500190  1
  O  O407  1  0.62240911  0.00861944  0.01174279  1
  O  O408  1  0.61728203  0.00654298  0.50454030  1
  O  O409  1  0.62674755  0.49963939  0.01163516  1
  O  O410  1  0.63543514  0.50640068  0.51445500  1
  O  O411  1  0.37270376  0.36706708  0.11781083  1
  O  O412  1  0.37193146  0.36305377  0.61727274  1
  O  O413  1  0.37036251  0.86340154  0.12455159  1
  O  O414  1  0.37813980  0.86328250  0.61634241  1
  O  O415  1  0.86928161  0.36623226  0.12118075  1
  O  O416  1  0.87719061  0.37393993  0.63098394  1
  O  O417  1  0.86930311  0.87061884  0.12376468  1
  O  O418  1  0.88448915  0.86903838  0.61744072  1
  O  O419  1  0.13053127  0.13078290  0.37828583  1
  O  O420  1  0.11773021  0.14007752  0.86675913  1
  O  O421  1  0.13116916  0.63178914  0.38204808  1
  O  O422  1  0.11935308  0.63970530  0.87195215  1
  O  O423  1  0.63032742  0.12781661  0.38385252  1
  O  O424  1  0.63109873  0.12978983  0.88488122  1
  O  O425  1  0.62777246  0.63990693  0.38107271  1
  O  O426  1  0.63650065  0.61732737  0.87580993  1
