# generated using pymatgen
data_V85Zn86O256
_symmetry_space_group_name_H-M   'P 1'
_cell_length_a   16.92953848
_cell_length_b   16.92400883
_cell_length_c   16.93923887
_cell_angle_alpha   89.93546763
_cell_angle_beta   89.97912468
_cell_angle_gamma   89.96951043
_symmetry_Int_Tables_number   1
_chemical_formula_structural   V85Zn86O256
_chemical_formula_sum   'V85 Zn86 O256'
_cell_volume   4853.35309715
_cell_formula_units_Z   1
loop_
 _symmetry_equiv_pos_site_id
 _symmetry_equiv_pos_as_xyz
  1  'x, y, z'
loop_
 _atom_site_type_symbol
 _atom_site_label
 _atom_site_symmetry_multiplicity
 _atom_site_fract_x
 _atom_site_fract_y
 _atom_site_fract_z
 _atom_site_occupancy
  V  V0  1  0.75031286  0.37508900  0.62593000  1
  V  V1  1  0.87007349  0.75094788  0.62899111  1
  V  V2  1  0.62494446  0.50776997  0.62757656  1
  V  V3  1  0.49818580  0.12909203  0.11293730  1
  V  V4  1  0.50390319  0.87621620  0.37585527  1
  V  V5  1  0.76035262  0.62179255  0.87819242  1
  V  V6  1  0.25459753  0.12559072  0.87012010  1
  V  V7  1  0.37157687  0.49776211  0.86906088  1
  V  V8  1  0.24999510  0.25111461  0.49869464  1
  V  V9  1  0.74996521  0.62631510  0.38414052  1
  V  V10  1  -0.00607540  -0.00908202  0.49387390  1
  V  V11  1  0.87456930  0.62325395  0.24861156  1
  V  V12  1  0.74879004  0.87998580  0.62149937  1
  V  V13  1  0.73653628  0.12803369  0.87605500  1
  V  V14  1  0.51062171  0.37181326  0.37346893  1
  V  V15  1  0.50184800  0.75928578  0.24733444  1
  V  V16  1  0.12757690  0.37781558  0.75297249  1
  V  V17  1  -0.00311513  0.25755045  0.25375025  1
  V  V18  1  0.37376000  0.37233111  0.00613137  1
  V  V19  1  0.12183143  0.25035014  0.87633285  1
  V  V20  1  0.24086946  0.37729329  0.12588440  1
  V  V21  1  0.50262664  0.24741588  0.75929497  1
  V  V22  1  0.37836710  0.24905959  0.62773528  1
  V  V23  1  0.12452185  0.11864479  0.50259165  1
  V  V24  1  -0.00094498  0.50011232  -0.00685865  1
  V  V25  1  0.49732758  -0.00250361  0.50197206  1
  V  V26  1  0.24800510  -0.00253669  0.24986877  1
  V  V27  1  0.12154521  0.12453120  0.00104519  1
  V  V28  1  0.37514889  0.13017138  0.24472732  1
  V  V29  1  0.00290411  0.61989366  0.12403804  1
  V  V30  1  0.87694263  0.75639758  0.11959093  1
  V  V31  1  0.37522802  -0.00320649  0.37548609  1
  V  V32  1  0.86971806  0.12016943  0.75190377  1
  V  V33  1  -0.00321799  0.12432729  0.12531130  1
  V  V34  1  -0.00752599  0.86819977  0.87480464  1
  V  V35  1  0.24194578  0.50162535  0.24495107  1
  V  V36  1  0.62731875  0.88240417  0.75582854  1
  V  V37  1  0.11691117  0.88643739  0.74698167  1
  V  V38  1  0.37447680  0.62771232  0.24683239  1
  V  V39  1  0.62748163  0.62576699  0.00037356  1
  V  V40  1  0.25994214  0.75210023  0.50206543  1
  V  V41  1  0.25158118  0.24710114  0.00944662  1
  V  V42  1  0.76061416  0.49849052  0.75598176  1
  V  V43  1  0.62631540  0.37100240  0.75839034  1
  V  V44  1  0.87852091  0.37286527  0.49833748  1
  V  V45  1  0.49974012  0.62653291  0.12511165  1
  V  V46  1  0.00140469  0.63191492  0.63439504  1
  V  V47  1  0.74584157  0.12614397  0.37308201  1
  V  V48  1  0.74980692  0.49427909  0.24745859  1
  V  V49  1  0.73492662  0.25002723  0.00126183  1
  V  V50  1  0.12661047  0.74971870  0.87213133  1
  V  V51  1  0.49895302  0.49958699  0.00021304  1
  V  V52  1  0.12806553  0.49968723  0.62815124  1
  V  V53  1  0.13224516  0.62539576  0.00288604  1
  V  V54  1  0.24911953  0.62764221  0.37354951  1
  V  V55  1  0.00375903  0.49377116  0.49810299  1
  V  V56  1  0.87125989  0.37661410  -0.00715369  1
  V  V57  1  0.24888568  0.62163661  0.86613991  1
  V  V58  1  0.62857368  0.75236460  0.37625640  1
  V  V59  1  0.74169230  0.87468147  0.12824988  1
  V  V60  1  0.25153360  0.37686135  0.63089744  1
  V  V61  1  0.25699069  0.88496468  0.61846416  1
  V  V62  1  0.62865380  0.49187471  0.12582505  1
  V  V63  1  0.75219387  0.75880225  -0.00274462  1
  V  V64  1  0.86872580  0.25598325  0.12297197  1
  V  V65  1  0.24976715  0.87328106  0.11303670  1
  V  V66  1  0.12546569  0.62860110  0.50114097  1
  V  V67  1  0.37644384  0.49722722  0.37233363  1
  V  V68  1  0.50562909  0.73678857  0.74290335  1
  V  V69  1  0.87193241  0.12264113  0.25116106  1
  V  V70  1  0.87983446  0.49459332  0.37425792  1
  V  V71  1  0.50126361  0.50557280  0.50327421  1
  V  V72  1  0.62065286  0.12798764  0.49667739  1
  V  V73  1  -0.00894993  -0.00646293  0.00139280  1
  V  V74  1  0.74353993  0.25076535  0.49640860  1
  V  V75  1  0.37217792  0.75400492  0.10988096  1
  V  V76  1  0.86671238  -0.00310901  0.87560664  1
  V  V77  1  0.11992683  0.25690443  0.37608729  1
  V  V78  1  0.00307485  0.11789314  0.62718629  1
  V  V79  1  0.30669658  -0.05172130  0.80864959  1
  V  V80  1  0.00016099  0.75640631  0.25770932  1
  V  V81  1  0.87476500  0.24700280  0.62487262  1
  V  V82  1  0.48835820  -0.01097759  -0.00716677  1
  V  V83  1  0.62012979  0.00126450  0.12307804  1
  V  V84  1  0.50447160  0.24834321  0.24933939  1
  Zn  Zn85  1  0.37836945  0.37322892  0.49900597  1
  Zn  Zn86  1  -0.00470789  0.37874039  0.87088270  1
  Zn  Zn87  1  0.11754783  0.38117472  0.25152284  1
  Zn  Zn88  1  0.38095899  0.74264263  0.62050394  1
  Zn  Zn89  1  -0.00109583  0.24941831  0.75052527  1
  Zn  Zn90  1  0.63264049  0.36546776  0.24903348  1
  Zn  Zn91  1  0.48591671  0.87203414  0.87207738  1
  Zn  Zn92  1  0.12000291  0.88092711  0.25474052  1
  Zn  Zn93  1  0.87619530  -0.01254457  0.37093434  1
  Zn  Zn94  1  0.74204264  -0.00409949  0.25297574  1
  Zn  Zn95  1  0.37527795  0.61490535  0.73733078  1
  Zn  Zn96  1  0.83922731  0.83668545  0.47170684  1
  Zn  Zn97  1  0.88269301  0.62564847  0.75679677  1
  Zn  Zn98  1  0.50165367  0.12476666  0.62719410  1
  Zn  Zn99  1  0.62761552  0.00399110  0.62764709  1
  Zn  Zn100  1  0.62556264  0.63200988  0.50652548  1
  Zn  Zn101  1  0.62258399  0.75102455  0.87540690  1
  Zn  Zn102  1  0.37288201  0.12077507  0.75047028  1
  Zn  Zn103  1  0.50281707  0.37079931  0.87991363  1
  Zn  Zn104  1  0.12169393  0.75902737  0.38054234  1
  Zn  Zn105  1  0.12078452  -0.00238763  0.12687742  1
  Zn  Zn106  1  0.24995062  0.12619617  0.37306607  1
  Zn  Zn107  1  0.18410251  0.18628117  0.18852358  1
  Zn  Zn108  1  0.18701214  0.18794980  0.68838587  1
  Zn  Zn109  1  0.18573451  0.69152265  0.18461300  1
  Zn  Zn110  1  0.18700592  0.69376136  0.68796072  1
  Zn  Zn111  1  0.68284413  0.18294450  0.18280930  1
  Zn  Zn112  1  0.68694368  0.18618231  0.68735814  1
  Zn  Zn113  1  0.68692626  0.68524548  0.19016695  1
  Zn  Zn114  1  0.69280133  0.69057063  0.69080368  1
  Zn  Zn115  1  0.31388329  0.31252437  0.31064371  1
  Zn  Zn116  1  0.31247384  0.31059081  0.81599772  1
  Zn  Zn117  1  0.31314509  0.81464569  0.31148997  1
  Zn  Zn118  1  0.31098770  0.78476536  0.80875290  1
  Zn  Zn119  1  0.81233893  0.31186739  0.31488125  1
  Zn  Zn120  1  0.81081546  0.30616327  0.81473862  1
  Zn  Zn121  1  0.81000230  0.81041870  0.30239786  1
  Zn  Zn122  1  0.81042813  0.81003859  0.80723383  1
  Zn  Zn123  1  0.18955616  0.43663203  0.43706675  1
  Zn  Zn124  1  0.18578204  0.44046536  0.94037391  1
  Zn  Zn125  1  0.18396513  0.93627341  0.43525200  1
  Zn  Zn126  1  0.17556839  0.93671960  0.94076130  1
  Zn  Zn127  1  0.68821525  0.44047437  0.43782535  1
  Zn  Zn128  1  0.69047852  0.43623822  0.93871947  1
  Zn  Zn129  1  0.68241695  0.94102300  0.43608827  1
  Zn  Zn130  1  0.68122770  0.94306329  0.94167774  1
  Zn  Zn131  1  0.31206027  0.06088168  0.06363758  1
  Zn  Zn132  1  0.31496811  0.06534599  0.56140905  1
  Zn  Zn133  1  0.31182625  0.56156308  0.06101990  1
  Zn  Zn134  1  0.31435031  0.56118791  0.56119376  1
  Zn  Zn135  1  0.80812421  0.06498370  0.06023697  1
  Zn  Zn136  1  0.81285173  0.05935005  0.56116267  1
  Zn  Zn137  1  0.81431215  0.56278729  0.06296308  1
  Zn  Zn138  1  0.81573082  0.56290834  0.56582049  1
  Zn  Zn139  1  0.43496436  0.43535356  0.18662151  1
  Zn  Zn140  1  0.44120212  0.43499801  0.68752155  1
  Zn  Zn141  1  0.43338558  0.93856866  0.18471789  1
  Zn  Zn142  1  0.44485791  0.92768364  0.68118026  1
  Zn  Zn143  1  0.93501678  0.43710192  0.18049503  1
  Zn  Zn144  1  0.94163449  0.43687705  0.68552352  1
  Zn  Zn145  1  0.93006168  0.93621817  0.18654353  1
  Zn  Zn146  1  0.93345954  0.93899062  0.68657334  1
  Zn  Zn147  1  0.06287161  0.06695157  0.31609747  1
  Zn  Zn148  1  0.05874209  0.06132915  0.81575052  1
  Zn  Zn149  1  0.06189221  0.56796297  0.31457126  1
  Zn  Zn150  1  0.06555210  0.55850230  0.81503250  1
  Zn  Zn151  1  0.56378587  0.06349028  0.30934035  1
  Zn  Zn152  1  0.55607735  0.06010194  0.81341584  1
  Zn  Zn153  1  0.56359598  0.56503880  0.31203363  1
  Zn  Zn154  1  0.56870927  0.55688935  0.81759519  1
  Zn  Zn155  1  0.43618798  0.18716684  0.43384901  1
  Zn  Zn156  1  0.43469552  0.18681810  0.93863235  1
  Zn  Zn157  1  0.43915706  0.68586791  0.43526427  1
  Zn  Zn158  1  0.43941741  0.68534982  0.92974118  1
  Zn  Zn159  1  0.93674897  0.18370698  0.43673404  1
  Zn  Zn160  1  0.93354515  0.18665740  0.93831163  1
  Zn  Zn161  1  0.93714496  0.68136002  0.44157316  1
  Zn  Zn162  1  0.93950149  0.68947993  0.93984310  1
  Zn  Zn163  1  0.05923563  0.31322702  0.06411150  1
  Zn  Zn164  1  0.06292720  0.30879225  0.56569887  1
  Zn  Zn165  1  0.06541956  0.81081210  0.06222991  1
  Zn  Zn166  1  0.06652849  0.81225818  0.56931887  1
  Zn  Zn167  1  0.55800514  0.31201182  0.06740368  1
  Zn  Zn168  1  0.56306188  0.31766677  0.56626184  1
  Zn  Zn169  1  0.56168434  0.81527599  0.05935921  1
  Zn  Zn170  1  0.56552619  0.81472994  0.56182691  1
  O  O171  1  0.11517941  0.12390266  0.11797669  1
  O  O172  1  0.11479773  0.13275285  0.61643137  1
  O  O173  1  0.11571740  0.63192297  0.11494246  1
  O  O174  1  0.12148558  0.62116497  0.62012594  1
  O  O175  1  0.61261774  0.11329493  0.12257836  1
  O  O176  1  0.62584198  0.12324811  0.61155884  1
  O  O177  1  0.62141734  0.61818194  0.11572162  1
  O  O178  1  0.63508759  0.61182506  0.62467306  1
  O  O179  1  0.38146598  0.38647257  0.37280145  1
  O  O180  1  0.37267484  0.38145659  0.88729272  1
  O  O181  1  0.38581138  0.88880274  0.36884845  1
  O  O182  1  0.36196751  0.88015498  0.86076293  1
  O  O183  1  0.87248566  0.38700685  0.38157234  1
  O  O184  1  0.87823076  0.36576951  0.88794875  1
  O  O185  1  0.86745896  0.87394147  0.37317520  1
  O  O186  1  0.87979738  0.88387615  0.86567213  1
  O  O187  1  0.25886795  0.00289214  0.36907600  1
  O  O188  1  0.24937439  0.00399407  0.87558880  1
  O  O189  1  0.25852034  0.50521991  0.36958256  1
  O  O190  1  0.25925003  0.50741327  0.88058363  1
  O  O191  1  0.74967979  0.01314456  0.37399023  1
  O  O192  1  0.75962158  0.01147743  0.88692111  1
  O  O193  1  0.75740239  0.50671610  0.36869953  1
  O  O194  1  0.74767959  0.50782667  0.86802319  1
  O  O195  1  0.25214511  0.49273510  0.13459147  1
  O  O196  1  0.24365871  0.48379172  0.61532194  1
  O  O197  1  0.24721854  0.99017549  0.13106357  1
  O  O198  1  0.25438409  0.98483373  0.61769605  1
  O  O199  1  0.74122833  0.50683796  0.13480179  1
  O  O200  1  0.74579305  0.49312914  0.63195938  1
  O  O201  1  0.73716957  0.99363762  0.11855920  1
  O  O202  1  0.74950238  0.98582087  0.62484384  1
  O  O203  1  -0.00110098  0.36205645  0.24236433  1
  O  O204  1  0.00925029  0.37058139  0.75165564  1
  O  O205  1  -0.00250480  0.85909878  0.24250682  1
  O  O206  1  0.01028889  0.88042975  0.75560587  1
  O  O207  1  0.49909118  0.36605380  0.25462292  1
  O  O208  1  0.50985498  0.36724220  0.75309747  1
  O  O209  1  0.49494055  0.86506510  0.25429159  1
  O  O210  1  0.51235639  0.86530296  0.75255575  1
  O  O211  1  0.49338980  0.13098592  0.24299857  1
  O  O212  1  0.49586407  0.13218564  0.74742276  1
  O  O213  1  0.49403095  0.63227793  0.24296598  1
  O  O214  1  0.51026366  0.63456882  0.75348192  1
  O  O215  1  0.99031619  0.13308695  0.24538718  1
  O  O216  1  0.99320546  0.12580407  0.74365627  1
  O  O217  1  0.99404927  0.62997484  0.24136769  1
  O  O218  1  1.00139001  0.61493195  0.73841137  1
  O  O219  1  0.36279173  0.25898282  -0.00434294  1
  O  O220  1  0.36729427  0.25128113  0.50613187  1
  O  O221  1  0.38099851  0.74402357  0.01133469  1
  O  O222  1  0.36343976  0.74730504  0.49682796  1
  O  O223  1  0.86851069  0.25534118  0.00737858  1
  O  O224  1  0.86609075  0.25293183  0.50348009  1
  O  O225  1  0.86464708  0.74481486  0.00847372  1
  O  O226  1  0.88127290  0.74437194  0.51769905  1
  O  O227  1  0.13034470  0.24457975  0.49475104  1
  O  O228  1  0.12984802  0.24572570  0.99493891  1
  O  O229  1  0.13115136  0.74039276  0.50168230  1
  O  O230  1  0.11541714  0.73827364  0.98623729  1
  O  O231  1  0.63656168  0.24703396  0.50494745  1
  O  O232  1  0.63602931  0.25560586  1.00337941  1
  O  O233  1  0.61582384  0.74696743  0.48246801  1
  O  O234  1  0.63174317  0.74126081  0.99964131  1
  O  O235  1  0.49855707  0.23931691  0.13222375  1
  O  O236  1  0.49190481  0.25175027  0.63280947  1
  O  O237  1  0.49479260  0.74744665  0.13067406  1
  O  O238  1  0.50203808  0.75438147  0.63824042  1
  O  O239  1  0.98961467  0.24301630  0.13056860  1
  O  O240  1  0.99059366  0.23799787  0.62411769  1
  O  O241  1  0.99229682  0.74198058  0.12853871  1
  O  O242  1  0.99615261  0.73896329  0.62375300  1
  O  O243  1  0.00556817  0.24605481  0.36591022  1
  O  O244  1  0.01295553  0.24921454  0.87723792  1
  O  O245  1  -0.00346611  0.74047808  0.35985419  1
  O  O246  1  0.00237898  0.76279632  0.87610408  1
  O  O247  1  0.49432671  0.26113284  0.36569994  1
  O  O248  1  0.49607988  0.25090400  0.86404177  1
  O  O249  1  0.50180974  0.75815554  0.36702628  1
  O  O250  1  0.50282751  0.75331088  0.86273143  1
  O  O251  1  0.24237271  0.13612119  0.50183146  1
  O  O252  1  0.24330600  0.13077545  0.99726059  1
  O  O253  1  0.24165432  0.63101645  0.49482265  1
  O  O254  1  0.23595237  0.61864197  0.99438941  1
  O  O255  1  0.74452906  0.13132295  0.49370849  1
  O  O256  1  0.75216210  0.13791794  0.98846183  1
  O  O257  1  0.74943868  0.61781643  0.48720971  1
  O  O258  1  0.74485553  0.63202632  0.99703984  1
  O  O259  1  0.25231067  0.36859342  0.00729891  1
  O  O260  1  0.25114443  0.36343470  0.50640184  1
  O  O261  1  0.24381850  0.87978323  0.01419493  1
  O  O262  1  0.24270330  0.86765586  0.51230986  1
  O  O263  1  0.75610965  0.35997943  -0.00469329  1
  O  O264  1  0.75522263  0.36770497  0.50279393  1
  O  O265  1  0.74278000  0.86307418  0.00631746  1
  O  O266  1  0.74059694  0.87607862  0.51468345  1
  O  O267  1  0.13752103  0.49968860  0.25892136  1
  O  O268  1  0.12440615  0.48595742  0.74533857  1
  O  O269  1  0.13321154  1.00432421  0.24802073  1
  O  O270  1  0.12508195  0.98548682  0.75706276  1
  O  O271  1  0.63356284  0.50222729  0.24197496  1
  O  O272  1  0.63438914  0.49219051  0.74427306  1
  O  O273  1  0.62415685  1.00371212  0.23132443  1
  O  O274  1  0.61781832  0.98604507  0.74691759  1
  O  O275  1  0.36924536  0.00901589  0.25521249  1
  O  O276  1  0.37322538  -0.00156064  0.74898218  1
  O  O277  1  0.36672618  0.50614242  0.25474559  1
  O  O278  1  0.38257172  0.49818056  0.76430374  1
  O  O279  1  0.86756328  0.00946073  0.24980634  1
  O  O280  1  0.87651752  0.01194260  0.75953121  1
  O  O281  1  0.87111422  0.50216095  0.25559584  1
  O  O282  1  0.86360021  0.49960349  0.74520512  1
  O  O283  1  0.12835977  0.36175664  0.37338809  1
  O  O284  1  0.12474833  0.36782922  0.86981089  1
  O  O285  1  0.12715412  0.87057511  0.36712667  1
  O  O286  1  0.11689168  0.86942485  0.86702133  1
  O  O287  1  0.61409886  0.38162625  0.36944460  1
  O  O288  1  0.62431531  0.37922408  0.86243220  1
  O  O289  1  0.61350627  0.86954141  0.37256340  1
  O  O290  1  0.62842547  0.87416838  0.86328458  1
  O  O291  1  0.38403444  0.11926265  0.13453526  1
  O  O292  1  0.37462760  0.13887344  0.62804262  1
  O  O293  1  0.37884750  0.63171568  0.12863686  1
  O  O294  1  0.37309475  0.62729046  0.62538732  1
  O  O295  1  0.87480409  0.13335082  0.13439735  1
  O  O296  1  0.87696847  0.12767034  0.63321709  1
  O  O297  1  0.88100838  0.63433613  0.12933136  1
  O  O298  1  0.88453665  0.62959952  0.62884844  1
  O  O299  1  0.24558514  0.25536223  0.11521752  1
  O  O300  1  0.25543576  0.25862943  0.61892776  1
  O  O301  1  0.25748191  0.76363334  0.12935926  1
  O  O302  1  0.25111205  0.75822477  0.61633415  1
  O  O303  1  0.75436980  0.24231910  0.11091893  1
  O  O304  1  0.75655982  0.25482216  0.61763344  1
  O  O305  1  0.75374500  0.75478975  0.11957020  1
  O  O306  1  0.75721619  0.76063856  0.62531638  1
  O  O307  1  0.24527621  0.24861781  0.38298468  1
  O  O308  1  0.23905592  0.24371826  0.88500554  1
  O  O309  1  0.25083800  0.74365019  0.38126403  1
  O  O310  1  0.23990438  0.73641440  0.88089129  1
  O  O311  1  0.75342092  0.23864059  0.38351921  1
  O  O312  1  0.74965964  0.23739940  0.88609388  1
  O  O313  1  0.74097318  0.74056838  0.36748953  1
  O  O314  1  0.74771068  0.74236143  0.88271516  1
  O  O315  1  0.00122625  0.11877234  0.00619096  1
  O  O316  1  0.00606102  0.11972041  0.50728581  1
  O  O317  1  0.00463018  0.61827655  0.00570589  1
  O  O318  1  0.01014382  0.61490499  0.50799015  1
  O  O319  1  0.49381445  0.11765412  0.00908309  1
  O  O320  1  0.50717090  0.12256371  0.50036700  1
  O  O321  1  0.50906621  0.62032546  0.00404653  1
  O  O322  1  0.50444287  0.60912642  0.49102954  1
  O  O323  1  0.50023865  0.38309933  0.49027721  1
  O  O324  1  0.49026694  0.37900636  1.00115241  1
  O  O325  1  0.50290474  0.88521847  0.49020614  1
  O  O326  1  0.49661957  0.88321654  0.99298390  1
  O  O327  1  0.99791566  0.38658546  0.50626685  1
  O  O328  1  0.99230268  0.38329710  1.00073042  1
  O  O329  1  1.01006301  0.89329217  0.50970081  1
  O  O330  1  1.00342866  0.88290718  0.99038625  1
  O  O331  1  0.49388740  0.49328040  0.37691017  1
  O  O332  1  0.49358408  0.49671867  0.88477482  1
  O  O333  1  0.49648255  0.99381488  0.37723881  1
  O  O334  1  0.49784895  0.99595779  0.88832228  1
  O  O335  1  0.99173212  0.50586920  0.38420403  1
  O  O336  1  0.99785002  0.49922468  0.88810023  1
  O  O337  1  0.99705013  1.00623637  0.38931598  1
  O  O338  1  0.98830696  0.99181950  0.88209389  1
  O  O339  1  -0.00355247  0.00403754  0.11824634  1
  O  O340  1  -0.00626884  0.01241296  0.61614494  1
  O  O341  1  -0.00506876  0.51371837  0.11739814  1
  O  O342  1  0.00889079  0.50633038  0.61697097  1
  O  O343  1  0.50461100  0.00336758  0.11852024  1
  O  O344  1  0.50115311  0.00244536  0.61497816  1
  O  O345  1  0.50568455  0.50686411  0.12084805  1
  O  O346  1  0.51108643  0.49193845  0.61511814  1
  O  O347  1  0.25030019  0.38273150  0.24205976  1
  O  O348  1  0.24244566  0.36785219  0.74144635  1
  O  O349  1  0.25200198  0.88874853  0.24421201  1
  O  O350  1  0.24734909  0.88117583  0.75059791  1
  O  O351  1  0.74948504  0.38849607  0.25555369  1
  O  O352  1  0.74621246  0.37883415  0.74805020  1
  O  O353  1  0.74710009  0.87683689  0.23252555  1
  O  O354  1  0.73422407  0.87028493  0.74091432  1
  O  O355  1  0.25705978  0.11594806  0.24755928  1
  O  O356  1  0.25080856  0.12779237  0.76103297  1
  O  O357  1  0.25319691  0.62012745  0.25243500  1
  O  O358  1  0.24846762  0.62642154  0.76230411  1
  O  O359  1  0.75385352  0.12613049  0.25664619  1
  O  O360  1  0.75612566  0.13093194  0.76444288  1
  O  O361  1  0.75684489  0.61514825  0.25757668  1
  O  O362  1  0.75067855  0.61582219  0.76192290  1
  O  O363  1  0.37438564  0.11416046  0.36508197  1
  O  O364  1  0.35878699  0.12736837  0.87468424  1
  O  O365  1  0.37090533  0.61442572  0.36796234  1
  O  O366  1  0.36521183  0.61551998  0.87385336  1
  O  O367  1  0.86724440  0.12502690  0.36232883  1
  O  O368  1  0.86888314  0.11830079  0.86852029  1
  O  O369  1  0.86908793  0.61456797  0.37039697  1
  O  O370  1  0.86495272  0.62705008  0.87656065  1
  O  O371  1  0.13631312  0.37191335  0.12864151  1
  O  O372  1  0.13209069  0.37612968  0.63346140  1
  O  O373  1  0.13623679  0.87444069  0.13199706  1
  O  O374  1  0.13862825  0.86994125  0.64327769  1
  O  O375  1  0.62090885  0.38839969  0.12879735  1
  O  O376  1  0.63338698  0.38377318  0.63457139  1
  O  O377  1  0.62922204  0.88536860  0.12146204  1
  O  O378  1  0.63421161  0.87662502  0.63356311  1
  O  O379  1  0.11451384  0.24987499  0.25813222  1
  O  O380  1  0.12332653  0.25885666  0.75922878  1
  O  O381  1  0.10688864  0.74643303  0.24984872  1
  O  O382  1  0.12908747  0.76191227  0.76439547  1
  O  O383  1  0.61104547  0.24905899  0.24582897  1
  O  O384  1  0.61594297  0.25888523  0.74309998  1
  O  O385  1  0.61223849  0.74246671  0.26022109  1
  O  O386  1  0.61831106  0.75672692  0.75216526  1
  O  O387  1  0.38182207  0.23678468  0.25438323  1
  O  O388  1  0.38337482  0.25107836  0.74372886  1
  O  O389  1  0.38290622  0.74408179  0.24369692  1
  O  O390  1  0.39229547  0.73846294  0.74720301  1
  O  O391  1  0.87772431  0.24560781  0.24341067  1
  O  O392  1  0.87691200  0.23886775  0.74497609  1
  O  O393  1  0.88401159  0.74230644  0.24016255  1
  O  O394  1  0.87373284  0.74347535  0.73699080  1
  O  O395  1  0.38241113  0.49534352  0.48945258  1
  O  O396  1  0.38035741  0.49384253  0.99310382  1
  O  O397  1  0.38770123  1.00909665  0.48966510  1
  O  O398  1  0.38961242  0.99908167  1.00639556  1
  O  O399  1  0.88409967  0.49524386  0.49405617  1
  O  O400  1  0.88073168  0.48708200  1.00743191  1
  O  O401  1  0.88854201  1.00150189  0.49604215  1
  O  O402  1  0.88356927  1.00503351  0.99300380  1
  O  O403  1  0.10904449  0.00745540  0.00189345  1
  O  O404  1  0.11857641  0.01498373  0.49534097  1
  O  O405  1  0.11296440  0.51044593  -0.00181172  1
  O  O406  1  0.12110521  0.50667718  0.50378245  1
  O  O407  1  0.60855456  -0.00201317  0.01244902  1
  O  O408  1  0.61287389  0.00997215  0.50039400  1
  O  O409  1  0.62194453  0.50465558  0.00768313  1
  O  O410  1  0.61953252  0.50015501  0.50994593  1
  O  O411  1  0.36293456  0.37978708  0.11272716  1
  O  O412  1  0.36853260  0.36609534  0.62418463  1
  O  O413  1  0.36064972  0.86793026  0.12719397  1
  O  O414  1  0.35936504  0.86627778  0.63088483  1
  O  O415  1  0.87454617  0.36144504  0.11610174  1
  O  O416  1  0.87055801  0.36853467  0.61835157  1
  O  O417  1  0.86470649  0.86237939  0.12454112  1
  O  O418  1  0.86077171  0.86885174  0.62994651  1
  O  O419  1  0.12816572  0.13797943  0.38428411  1
  O  O420  1  0.13093701  0.13062273  0.88108297  1
  O  O421  1  0.13060123  0.63016888  0.38562766  1
  O  O422  1  0.12966226  0.63009310  0.87927003  1
  O  O423  1  0.63069170  0.12413468  0.38628893  1
  O  O424  1  0.63845998  0.11801866  0.87136617  1
  O  O425  1  0.63446220  0.63123613  0.37604945  1
  O  O426  1  0.63497028  0.62326224  0.88946534  1
