# generated using pymatgen
data_V85Zn86O256
_symmetry_space_group_name_H-M   'P 1'
_cell_length_a   16.94849533
_cell_length_b   16.96126185
_cell_length_c   16.96155309
_cell_angle_alpha   90.01818172
_cell_angle_beta   89.98945429
_cell_angle_gamma   89.95859950
_symmetry_Int_Tables_number   1
_chemical_formula_structural   V85Zn86O256
_chemical_formula_sum   'V85 Zn86 O256'
_cell_volume   4875.89989209
_cell_formula_units_Z   1
loop_
 _symmetry_equiv_pos_site_id
 _symmetry_equiv_pos_as_xyz
  1  'x, y, z'
loop_
 _atom_site_type_symbol
 _atom_site_label
 _atom_site_symmetry_multiplicity
 _atom_site_fract_x
 _atom_site_fract_y
 _atom_site_fract_z
 _atom_site_occupancy
  V  V0  1  0.62953985  0.25136497  0.88419134  1
  V  V1  1  0.50694163  0.60834275  0.62294521  1
  V  V2  1  0.37705880  0.12579396  0.24987560  1
  V  V3  1  -0.00296644  0.37060248  0.86879566  1
  V  V4  1  -0.00384827  0.75686059  0.75101021  1
  V  V5  1  0.37775945  -0.00110953  0.87722567  1
  V  V6  1  0.12237622  0.00443928  0.62415681  1
  V  V7  1  0.50282548  0.24940128  0.24914190  1
  V  V8  1  0.50113327  0.24862280  0.75153341  1
  V  V9  1  0.12087433  0.24630071  0.87752819  1
  V  V10  1  0.38014243  0.88005891  0.00136001  1
  V  V11  1  0.25978707  0.25560900  -0.00495741  1
  V  V12  1  0.89106334  0.62752679  0.25215490  1
  V  V13  1  0.49008758  0.49462962  0.00316952  1
  V  V14  1  0.62533735  0.49853493  0.12547742  1
  V  V15  1  0.87376101  0.62362814  0.74610080  1
  V  V16  1  0.74455207  0.37415997  0.61570291  1
  V  V17  1  0.74884957  0.62200994  0.87486599  1
  V  V18  1  0.89318324  0.25179590  0.12655870  1
  V  V19  1  0.37631385  0.00737603  0.37742292  1
  V  V20  1  0.88042157  0.12880952  0.75509550  1
  V  V21  1  0.75471549  0.12919128  0.37569006  1
  V  V22  1  0.24860291  0.62598158  0.87541396  1
  V  V23  1  0.50446606  0.12225849  0.62542333  1
  V  V24  1  0.87287259  0.49847773  0.87508130  1
  V  V25  1  0.50720983  0.86942408  0.37866821  1
  V  V26  1  0.62829656  0.88184014  0.25021061  1
  V  V27  1  0.12084475  0.87397786  0.75152762  1
  V  V28  1  0.50601103  0.11066304  0.12286218  1
  V  V29  1  0.63519448  0.12435647  0.50755415  1
  V  V30  1  0.20081391  0.82813890  0.17360830  1
  V  V31  1  0.87674022  0.36718475  0.49883480  1
  V  V32  1  0.24611899  0.49815285  0.74876743  1
  V  V33  1  0.24708292  0.12273219  0.88092660  1
  V  V34  1  0.37395864  0.74571827  0.62379408  1
  V  V35  1  0.00371782  0.62528434  0.62159600  1
  V  V36  1  0.12637352  0.35956249  0.25301744  1
  V  V37  1  0.62818983  0.37453703  0.25300601  1
  V  V38  1  0.37509438  0.37949045  0.50147656  1
  V  V39  1  0.24209836  0.24216897  0.49608842  1
  V  V40  1  0.37616738  0.50686359  0.37621333  1
  V  V41  1  0.62127849  0.62232420  -0.00256027  1
  V  V42  1  0.49862756  0.62457188  0.12921398  1
  V  V43  1  0.75288577  0.50127284  0.25435612  1
  V  V44  1  0.02043374  0.86745802  0.36682195  1
  V  V45  1  0.37216498  0.49695068  0.87884818  1
  V  V46  1  0.25508282  0.50002975  0.25568954  1
  V  V47  1  0.26254904  0.37667948  0.11947344  1
  V  V48  1  0.37465374  0.24939290  0.62308173  1
  V  V49  1  0.12019242  0.37096568  0.74842456  1
  V  V50  1  0.12075812  0.02923227  0.11687832  1
  V  V51  1  0.50444408  0.88001325  0.87656171  1
  V  V52  1  0.00663524  0.36273390  0.37186249  1
  V  V53  1  0.87417915  0.87019806  0.49163661  1
  V  V54  1  0.62297911  0.61601717  0.49325400  1
  V  V55  1  -0.00148408  0.00365858  0.49810527  1
  V  V56  1  0.00088026  0.13158329  0.62643881  1
  V  V57  1  0.12404321  0.49274511  0.12498016  1
  V  V58  1  0.25105335  0.75591293  -0.00278245  1
  V  V59  1  0.88848123  0.13126946  0.24625240  1
  V  V60  1  0.37793881  0.87582565  0.50463827  1
  V  V61  1  0.13005621  0.62724943  0.48246604  1
  V  V62  1  0.37673136  0.12344181  0.75143120  1
  V  V63  1  0.75085642  0.00393034  0.73886710  1
  V  V64  1  0.62283191  0.74819650  0.86834200  1
  V  V65  1  0.75124522  0.12313693  0.87867278  1
  V  V66  1  0.62574585  0.37986631  0.74767429  1
  V  V67  1  0.50853512  0.00039477  0.50527745  1
  V  V68  1  0.75075274  0.36689391  0.12254210  1
  V  V69  1  -0.00266991  0.49998027  0.00036360  1
  V  V70  1  0.62701429  0.11632666  0.00291475  1
  V  V71  1  -0.00337358  0.00889564  -0.01080653  1
  V  V72  1  0.11762606  0.75441586  0.87725379  1
  V  V73  1  0.37375399  0.62416720  0.74879931  1
  V  V74  1  0.75002561  0.00504205  0.24081883  1
  V  V75  1  0.62297196  0.88160860  0.73711639  1
  V  V76  1  0.50825757  0.74604607  0.25491267  1
  V  V77  1  0.62945819  0.25047661  0.38337358  1
  V  V78  1  0.38374895  0.75104697  0.12794991  1
  V  V79  1  0.50206330  0.37983512  0.38235461  1
  V  V80  1  0.24895133  -0.00117141  0.75123467  1
  V  V81  1  0.86943438  0.37065705  -0.00165445  1
  V  V82  1  0.75127638  0.63710837  0.37460481  1
  V  V83  1  0.24659796  0.87181210  0.61989652  1
  V  V84  1  0.49441073  0.37193463  0.88001123  1
  Zn  Zn85  1  0.24599912  0.37316862  0.62368980  1
  Zn  Zn86  1  0.21765730  0.15155345  0.35682650  1
  Zn  Zn87  1  0.00258895  0.63136065  0.12688146  1
  Zn  Zn88  1  0.74070824  0.75214790  0.49931578  1
  Zn  Zn89  1  0.24407964  0.74821728  0.47931557  1
  Zn  Zn90  1  0.49991872  0.74913882  0.74690341  1
  Zn  Zn91  1  -0.10190953  0.87612170  0.96277633  1
  Zn  Zn92  1  0.74678711  0.87691048  0.61665599  1
  Zn  Zn93  1  0.88085210  0.76647188  0.11980944  1
  Zn  Zn94  1  0.87142912  0.75091551  0.62008579  1
  Zn  Zn95  1  0.00041124  0.49840139  0.49880508  1
  Zn  Zn96  1  0.74284186  0.50135764  0.74346187  1
  Zn  Zn97  1  0.67180475  -0.04650326  0.08211443  1
  Zn  Zn98  1  0.87835934  0.00065046  0.37054895  1
  Zn  Zn99  1  0.12349277  0.62545750  0.00034782  1
  Zn  Zn100  1  0.12254045  0.49886137  0.62218490  1
  Zn  Zn101  1  0.75360965  0.76973429  0.00789013  1
  Zn  Zn102  1  0.38198994  0.25129979  0.11736597  1
  Zn  Zn103  1  0.32390833  0.67853196  0.30742337  1
  Zn  Zn104  1  0.87834147  0.49656331  0.37799227  1
  Zn  Zn105  1  0.24384370  0.00575841  0.23598554  1
  Zn  Zn106  1  0.87255034  0.24872334  0.62467036  1
  Zn  Zn107  1  0.19302994  0.18762191  0.17793519  1
  Zn  Zn108  1  0.18798203  0.18806948  0.69041110  1
  Zn  Zn109  1  0.17451972  0.66663258  0.19806164  1
  Zn  Zn110  1  0.18537410  0.68821891  0.68612217  1
  Zn  Zn111  1  0.69023659  0.18692854  0.18755776  1
  Zn  Zn112  1  0.68957298  0.19424381  0.68911687  1
  Zn  Zn113  1  0.69040932  0.69406280  0.18979683  1
  Zn  Zn114  1  0.68780343  0.69032219  0.68158177  1
  Zn  Zn115  1  0.31475281  0.31579158  0.31262620  1
  Zn  Zn116  1  0.31170845  0.31239920  0.81077739  1
  Zn  Zn117  1  0.29016250  0.85442114  0.33611594  1
  Zn  Zn118  1  0.31197824  0.81320956  0.81124418  1
  Zn  Zn119  1  0.81589988  0.31047196  0.31318333  1
  Zn  Zn120  1  0.80918513  0.30846781  0.80782690  1
  Zn  Zn121  1  0.84064134  0.83629498  0.27866735  1
  Zn  Zn122  1  0.80661100  0.80908398  0.80630098  1
  Zn  Zn123  1  0.18782247  0.43686376  0.43950835  1
  Zn  Zn124  1  0.18492564  0.43490414  0.93705454  1
  Zn  Zn125  1  0.16932359  0.97973666  0.41772037  1
  Zn  Zn126  1  0.17973457  0.93671593  0.94681013  1
  Zn  Zn127  1  0.68798251  0.44328389  0.44197039  1
  Zn  Zn128  1  0.68612097  0.43893155  0.93653049  1
  Zn  Zn129  1  0.69213597  0.94278690  0.43102078  1
  Zn  Zn130  1  0.71721698  0.92173846  0.91578352  1
  Zn  Zn131  1  0.31467006  0.06544112  0.06220447  1
  Zn  Zn132  1  0.31228421  0.06266504  0.56319053  1
  Zn  Zn133  1  0.31067091  0.56794404  0.06572198  1
  Zn  Zn134  1  0.30806747  0.56188698  0.56097840  1
  Zn  Zn135  1  0.82486455  0.06747892  0.05827140  1
  Zn  Zn136  1  0.81707520  0.06163373  0.56277359  1
  Zn  Zn137  1  0.79339770  0.59623113  0.08347737  1
  Zn  Zn138  1  0.81133247  0.55605961  0.56029405  1
  Zn  Zn139  1  0.43930363  0.43654203  0.19321239  1
  Zn  Zn140  1  0.43427015  0.43413060  0.69166896  1
  Zn  Zn141  1  0.43954999  0.93457354  0.19049657  1
  Zn  Zn142  1  0.43837707  0.93694691  0.68861344  1
  Zn  Zn143  1  0.93817251  0.43634968  0.19117764  1
  Zn  Zn144  1  0.93409385  0.43920986  0.68317424  1
  Zn  Zn145  1  0.94685717  0.94119694  0.18046327  1
  Zn  Zn146  1  0.93129963  0.93914009  0.68417607  1
  Zn  Zn147  1  0.06109169  0.05387191  0.30428388  1
  Zn  Zn148  1  0.06156507  0.06143089  0.81511349  1
  Zn  Zn149  1  0.06458829  0.54726139  0.31685765  1
  Zn  Zn150  1  0.06029754  0.56458151  0.81222035  1
  Zn  Zn151  1  0.56490702  0.06279001  0.31658948  1
  Zn  Zn152  1  0.56783522  0.06012498  0.81516466  1
  Zn  Zn153  1  0.56275241  0.56118042  0.31438639  1
  Zn  Zn154  1  0.55681495  0.55975965  0.81050517  1
  Zn  Zn155  1  0.43975844  0.18950448  0.43890237  1
  Zn  Zn156  1  0.43991281  0.18400506  0.93950909  1
  Zn  Zn157  1  0.44394271  0.68999387  0.44540232  1
  Zn  Zn158  1  0.43758681  0.68768284  0.93775217  1
  Zn  Zn159  1  0.94065710  0.18754558  0.43899165  1
  Zn  Zn160  1  0.93594788  0.18762986  0.93841922  1
  Zn  Zn161  1  0.94168031  0.69034696  0.43124316  1
  Zn  Zn162  1  0.93373163  0.69003601  0.94271171  1
  Zn  Zn163  1  0.06912633  0.31336034  0.05542441  1
  Zn  Zn164  1  0.06189981  0.31148720  0.56079911  1
  Zn  Zn165  1  0.05239274  0.81602499  0.05895646  1
  Zn  Zn166  1  0.05969020  0.81035162  0.55629668  1
  Zn  Zn167  1  0.56405756  0.31059816  0.06272350  1
  Zn  Zn168  1  0.56267927  0.31246267  0.56291933  1
  Zn  Zn169  1  0.57476462  0.81583898  0.05625362  1
  Zn  Zn170  1  0.56217679  0.80188124  0.56108303  1
  O  O171  1  0.11792886  0.12895519  0.11766970  1
  O  O172  1  0.11626785  0.11473033  0.63844791  1
  O  O173  1  0.12079742  0.60647832  0.12051235  1
  O  O174  1  0.11150030  0.62169498  0.62944448  1
  O  O175  1  0.61913279  0.13391871  0.11505486  1
  O  O176  1  0.62051139  0.13535941  0.61465139  1
  O  O177  1  0.61917296  0.61689842  0.11484503  1
  O  O178  1  0.61067458  0.62234990  0.62486030  1
  O  O179  1  0.38449697  0.37994385  0.38353650  1
  O  O180  1  0.38713030  0.37967898  0.86940754  1
  O  O181  1  0.39301960  0.88491439  0.38732305  1
  O  O182  1  0.38458356  0.87801972  0.87908057  1
  O  O183  1  0.88619480  0.37151120  0.37995120  1
  O  O184  1  0.87842184  0.37467457  0.87837930  1
  O  O185  1  0.87919924  0.87854994  0.38243281  1
  O  O186  1  0.82189278  0.88566711  0.88354395  1
  O  O187  1  0.27398355  -0.02257047  0.36406704  1
  O  O188  1  0.25403698  0.00648464  0.87281279  1
  O  O189  1  0.26182799  0.49146825  0.36646234  1
  O  O190  1  0.25258064  0.50353541  0.86832705  1
  O  O191  1  0.75493527  0.01686798  0.36633401  1
  O  O192  1  0.73700976  0.01987921  0.85627135  1
  O  O193  1  0.75009480  0.50229848  0.36341675  1
  O  O194  1  0.75513363  0.50392527  0.86696022  1
  O  O195  1  0.24596731  0.49297124  0.12827134  1
  O  O196  1  0.24784356  0.49771471  0.63931322  1
  O  O197  1  0.23182641  1.01444341  0.11683729  1
  O  O198  1  0.24246709  0.99398817  0.62951146  1
  O  O199  1  0.74295119  0.49735380  0.13718061  1
  O  O200  1  0.75488478  0.48097495  0.62976586  1
  O  O201  1  0.75151996  1.01282658  0.13618740  1
  O  O202  1  0.74721526  1.00148466  0.63476796  1
  O  O203  1  0.01077320  0.37581495  0.26193782  1
  O  O204  1  0.00411212  0.38009435  0.76060921  1
  O  O205  1  0.00470793  0.88808429  0.26963984  1
  O  O206  1  -0.00185586  0.86273783  0.74552371  1
  O  O207  1  0.50847576  0.36767565  0.25899395  1
  O  O208  1  0.50495540  0.36789371  0.75742341  1
  O  O209  1  0.50471475  0.86898646  0.26269183  1
  O  O210  1  0.50525694  0.87337170  0.75854365  1
  O  O211  1  0.49968334  0.13315378  0.24491737  1
  O  O212  1  0.49727264  0.12917158  0.74628319  1
  O  O213  1  0.50948727  0.63279339  0.24223453  1
  O  O214  1  0.49231812  0.62403361  0.73887091  1
  O  O215  1  0.98650119  0.12698971  0.25482829  1
  O  O216  1  0.98503740  0.11595283  0.74492050  1
  O  O217  1  0.99378294  0.61646127  0.25561426  1
  O  O218  1  0.99168588  0.63360492  0.74403564  1
  O  O219  1  0.36508657  0.25111085  -0.00336837  1
  O  O220  1  0.37294972  0.25866532  0.50767927  1
  O  O221  1  0.37057825  0.75854285  0.00293179  1
  O  O222  1  0.37293236  0.75713280  0.50959032  1
  O  O223  1  0.87785052  0.26403299  0.00689885  1
  O  O224  1  0.87720712  0.26199886  0.50248079  1
  O  O225  1  0.87003113  0.76501908  -0.00231561  1
  O  O226  1  0.87475919  0.76178168  0.49720820  1
  O  O227  1  0.14384337  0.25015124  0.50768967  1
  O  O228  1  0.13895097  0.25615580  0.98352078  1
  O  O229  1  0.12781915  0.73262045  0.50578607  1
  O  O230  1  0.13376340  0.74829545  0.99130571  1
  O  O231  1  0.61971412  0.24175776  0.48910913  1
  O  O232  1  0.62471955  0.24783621  0.98761186  1
  O  O233  1  0.62597538  0.72707665  0.50612674  1
  O  O234  1  0.61719665  0.72904141  0.98971572  1
  O  O235  1  0.50097780  0.25171643  0.13962002  1
  O  O236  1  0.49029904  0.24456905  0.62953007  1
  O  O237  1  0.49952139  0.74467441  0.12923371  1
  O  O238  1  0.48571771  0.74025855  0.62708111  1
  O  O239  1  0.99205926  0.26298563  0.12207859  1
  O  O240  1  1.00102323  0.23454946  0.62194355  1
  O  O241  1  0.99440146  0.74283878  0.11661368  1
  O  O242  1  0.99514480  0.74243070  0.63304265  1
  O  O243  1  0.00475761  0.26293722  0.38039096  1
  O  O244  1  0.00871810  0.25808960  0.87871631  1
  O  O245  1  0.00457921  0.76797589  0.37732039  1
  O  O246  1  0.00854162  0.74268090  0.86628045  1
  O  O247  1  0.50723433  0.25752568  0.36689060  1
  O  O248  1  0.50519554  0.25657986  0.87204059  1
  O  O249  1  0.49735350  0.75810969  0.36844131  1
  O  O250  1  0.50970721  0.75278661  0.87033686  1
  O  O251  1  0.25966986  0.14084737  0.49915049  1
  O  O252  1  0.25734634  0.13478107  0.98507265  1
  O  O253  1  0.23429678  0.62787962  0.50394099  1
  O  O254  1  0.24973182  0.63800011  0.99444611  1
  O  O255  1  0.74372930  0.12096230  0.49301809  1
  O  O256  1  0.74550032  0.12227696  0.98934427  1
  O  O257  1  0.74224007  0.62197090  0.49190582  1
  O  O258  1  0.73683496  0.60986369  0.98293606  1
  O  O259  1  0.24948074  0.36970908  0.00725742  1
  O  O260  1  0.25829944  0.36460003  0.50376051  1
  O  O261  1  0.26279942  0.86247786  -0.01000029  1
  O  O262  1  0.25600771  0.87197949  0.51490801  1
  O  O263  1  0.75785914  0.38400758  0.00973230  1
  O  O264  1  0.75446175  0.37554042  0.50956165  1
  O  O265  1  0.69221324  0.86569630  0.01197512  1
  O  O266  1  0.75956817  0.87554493  0.49552051  1
  O  O267  1  0.13514430  0.49047602  0.24178183  1
  O  O268  1  0.13079261  0.48928954  0.75347684  1
  O  O269  1  0.12726392  1.00633924  0.22364228  1
  O  O270  1  0.12871777  0.99168307  0.74419338  1
  O  O271  1  0.63063592  0.49186392  0.24606324  1
  O  O272  1  0.62122278  0.48346547  0.75464371  1
  O  O273  1  0.63439047  0.99664302  0.25464747  1
  O  O274  1  0.63284861  0.99303159  0.74747623  1
  O  O275  1  0.38285716  0.01464929  0.25648485  1
  O  O276  1  0.36776901  0.00367542  0.75553382  1
  O  O277  1  0.36912888  0.49308021  0.26330379  1
  O  O278  1  0.36519781  0.50349084  0.75751032  1
  O  O279  1  0.86915371  0.01859817  0.25022617  1
  O  O280  1  0.85957462  0.01037177  0.74574904  1
  O  O281  1  0.86703758  0.50342063  0.25624648  1
  O  O282  1  0.87641867  0.51281215  0.75637084  1
  O  O283  1  0.11651954  0.37769606  0.36717240  1
  O  O284  1  0.11524389  0.36899412  0.86870221  1
  O  O285  1  0.12040823  0.88135327  0.38339257  1
  O  O286  1  0.13473688  0.86090478  0.86668355  1
  O  O287  1  0.62073045  0.36931776  0.37595209  1
  O  O288  1  0.61660748  0.36897069  0.87004950  1
  O  O289  1  0.61266393  0.88236251  0.37030756  1
  O  O290  1  0.61916566  0.86563465  0.86078403  1
  O  O291  1  0.38690204  0.12957894  0.13172994  1
  O  O292  1  0.38213246  0.13098614  0.63132818  1
  O  O293  1  0.38453951  0.64045911  0.11691923  1
  O  O294  1  0.37979953  0.62917152  0.62684445  1
  O  O295  1  0.87222027  0.13948372  0.13678391  1
  O  O296  1  0.88182430  0.12659206  0.63509280  1
  O  O297  1  0.88723609  0.60703154  0.14648909  1
  O  O298  1  0.88175914  0.62470139  0.63139415  1
  O  O299  1  0.25579620  0.25875765  0.11198381  1
  O  O300  1  0.26212527  0.24901903  0.62018285  1
  O  O301  1  0.25925048  0.75442876  0.11775756  1
  O  O302  1  0.26022891  0.75626194  0.62925672  1
  O  O303  1  0.75502550  0.26526155  0.12913902  1
  O  O304  1  0.75344779  0.26805307  0.62958841  1
  O  O305  1  0.76636403  0.71189081  0.10896062  1
  O  O306  1  0.75426888  0.75631853  0.61910632  1
  O  O307  1  0.25567884  0.25243147  0.38926668  1
  O  O308  1  0.24615705  0.24413348  0.87763325  1
  O  O309  1  0.26863147  0.75301384  0.36926816  1
  O  O310  1  0.24515382  0.74434328  0.87993291  1
  O  O311  1  0.74105038  0.24084223  0.37037130  1
  O  O312  1  0.73909281  0.23801812  0.86720094  1
  O  O313  1  0.75173333  0.73605628  0.37597198  1
  O  O314  1  0.73402180  0.73750134  0.87756885  1
  O  O315  1  -0.00684500  0.11176166  -0.00282169  1
  O  O316  1  -0.00733550  0.11222737  0.51064211  1
  O  O317  1  -0.00112778  0.60851850  -0.00241642  1
  O  O318  1  0.00907865  0.62477203  0.50569106  1
  O  O319  1  0.51061298  0.13308645  0.01296739  1
  O  O320  1  0.50918400  0.11853606  0.50492187  1
  O  O321  1  0.50372409  0.61436741  0.00460012  1
  O  O322  1  0.50954935  0.62247635  0.51230103  1
  O  O323  1  0.49157633  0.36917618  0.49184044  1
  O  O324  1  0.50387288  0.38203109  0.99185035  1
  O  O325  1  0.50035941  0.88105350  0.49850767  1
  O  O326  1  0.49574493  0.86804893  0.98381180  1
  O  O327  1  0.99568756  0.37472794  0.49203368  1
  O  O328  1  0.99574191  0.38250697  0.98708808  1
  O  O329  1  0.99157605  0.88307282  0.49472865  1
  O  O330  1  1.00616060  0.89045769  0.98988342  1
  O  O331  1  0.49418610  0.48610156  0.37068951  1
  O  O332  1  0.49304981  0.49180318  0.88346359  1
  O  O333  1  0.49406661  0.99719828  0.38713421  1
  O  O334  1  0.49208102  0.99079081  0.87008199  1
  O  O335  1  0.99736618  0.48299300  0.38054396  1
  O  O336  1  0.99349118  0.49289165  0.87980319  1
  O  O337  1  0.99766825  0.99445394  0.38747026  1
  O  O338  1  1.00175400  1.00128200  0.88703683  1
  O  O339  1  0.01608822  -0.00059124  0.11320075  1
  O  O340  1  0.00499081  0.00736753  0.62188570  1
  O  O341  1  0.00948357  0.49119979  0.11571800  1
  O  O342  1  0.00085848  0.51031763  0.62167050  1
  O  O343  1  0.50135616  0.01178184  0.12890232  1
  O  O344  1  0.49504230  0.00533303  0.61285642  1
  O  O345  1  0.50390069  0.50130502  0.11980647  1
  O  O346  1  0.49202606  0.51077984  0.62772486  1
  O  O347  1  0.24686886  0.38187952  0.24194526  1
  O  O348  1  0.24150394  0.38280253  0.74980680  1
  O  O349  1  0.26563161  0.88761859  0.22889699  1
  O  O350  1  0.24585284  0.88073043  0.74016365  1
  O  O351  1  0.74651280  0.38135122  0.24460771  1
  O  O352  1  0.74043689  0.37628205  0.74314762  1
  O  O353  1  0.73689562  0.89264273  0.26516423  1
  O  O354  1  0.74066380  0.88830851  0.74179584  1
  O  O355  1  0.26301407  0.12661554  0.24987366  1
  O  O356  1  0.25792815  0.11926530  0.75872849  1
  O  O357  1  0.25713966  0.60712224  0.24509191  1
  O  O358  1  0.25290502  0.61714506  0.75503654  1
  O  O359  1  0.75414387  0.12224830  0.25817421  1
  O  O360  1  0.75647727  0.11979751  0.75049295  1
  O  O361  1  0.75232709  0.61631543  0.25869463  1
  O  O362  1  0.75468943  0.62313744  0.75666880  1
  O  O363  1  0.38078202  0.11835792  0.36854951  1
  O  O364  1  0.37114160  0.11852200  0.86985445  1
  O  O365  1  0.38596565  0.61062906  0.38168077  1
  O  O366  1  0.36949921  0.61809833  0.86960332  1
  O  O367  1  0.86922002  0.13076846  0.36489797  1
  O  O368  1  0.86594837  0.12940674  0.86341092  1
  O  O369  1  0.86968679  0.61885304  0.36876212  1
  O  O370  1  0.86444608  0.62140928  0.86955411  1
  O  O371  1  0.13542844  0.37966140  0.13012092  1
  O  O372  1  0.12428692  0.37699745  0.63464806  1
  O  O373  1  0.13915343  0.87681338  0.11212386  1
  O  O374  1  0.13109235  0.87716654  0.63173414  1
  O  O375  1  0.63265141  0.37980414  0.12966853  1
  O  O376  1  0.63434475  0.36965372  0.63151448  1
  O  O377  1  0.61015743  0.87998967  0.14623395  1
  O  O378  1  0.61979039  0.87015877  0.63463234  1
  O  O379  1  0.13927552  0.26056552  0.25022837  1
  O  O380  1  0.13195954  0.26428143  0.76047437  1
  O  O381  1  0.14702221  0.76858450  0.23364464  1
  O  O382  1  0.11521904  0.75440571  0.75565503  1
  O  O383  1  0.62040981  0.25490232  0.26103229  1
  O  O384  1  0.61790821  0.25874577  0.75985206  1
  O  O385  1  0.61624153  0.75990291  0.24759189  1
  O  O386  1  0.62258129  0.75623306  0.75456129  1
  O  O387  1  0.38538739  0.24115709  0.25215083  1
  O  O388  1  0.38037755  0.24496948  0.74258580  1
  O  O389  1  0.39284032  0.74830304  0.23897764  1
  O  O390  1  0.37507622  0.74092952  0.74363787  1
  O  O391  1  0.87314821  0.24069390  0.24115605  1
  O  O392  1  0.87313844  0.23273598  0.74711547  1
  O  O393  1  0.87365156  0.72617698  0.25268383  1
  O  O394  1  0.87892786  0.73949187  0.75048503  1
  O  O395  1  0.36736705  0.48657461  0.49442820  1
  O  O396  1  0.38386716  0.50336462  0.99774889  1
  O  O397  1  0.38268961  0.99654275  0.49556235  1
  O  O398  1  0.37234807  0.98637969  0.99622074  1
  O  O399  1  0.87649518  0.48377442  0.49732601  1
  O  O400  1  0.88276135  0.48649023  0.99243091  1
  O  O401  1  0.88230384  0.99148350  0.49637793  1
  O  O402  1  0.89138403  0.99088267  1.01010327  1
  O  O403  1  0.11606076  0.00652195  0.00632003  1
  O  O404  1  0.11428516  -0.00758771  0.51992895  1
  O  O405  1  0.11704643  0.49776927  0.00667719  1
  O  O406  1  0.12528213  0.51256295  0.50295952  1
  O  O407  1  0.62498193  0.01596191  -0.00527793  1
  O  O408  1  0.61866249  0.01127589  0.49557191  1
  O  O409  1  0.61220917  0.50564123  0.00167402  1
  O  O410  1  0.62706769  0.51514183  0.50682292  1
  O  O411  1  0.36580604  0.37318048  0.12960261  1
  O  O412  1  0.37372031  0.36647245  0.61923250  1
  O  O413  1  0.39051841  0.86313006  0.11298098  1
  O  O414  1  0.36948314  0.86716571  0.62328138  1
  O  O415  1  0.86890538  0.37194360  0.11856898  1
  O  O416  1  0.86789189  0.37033632  0.61831009  1
  O  O417  1  0.86393975  0.86786096  0.16976189  1
  O  O418  1  0.87356705  0.87531315  0.60614256  1
  O  O419  1  0.13740622  0.08338365  0.38125274  1
  O  O420  1  0.13601411  0.13557268  0.86337034  1
  O  O421  1  0.12420117  0.62256545  0.38361374  1
  O  O422  1  0.13146365  0.63501876  0.87524531  1
  O  O423  1  0.63200335  0.13333791  0.38424550  1
  O  O424  1  0.62786903  0.13474998  0.88264938  1
  O  O425  1  0.63191071  0.61841205  0.38636685  1
  O  O426  1  0.62641641  0.62686550  0.87596364  1
