# generated using pymatgen
data_V85Zn86O256
_symmetry_space_group_name_H-M   'P 1'
_cell_length_a   16.95418405
_cell_length_b   16.95903362
_cell_length_c   16.95970737
_cell_angle_alpha   90.03511572
_cell_angle_beta   90.01477986
_cell_angle_gamma   90.01979276
_symmetry_Int_Tables_number   1
_chemical_formula_structural   V85Zn86O256
_chemical_formula_sum   'V85 Zn86 O256'
_cell_volume   4876.36524177
_cell_formula_units_Z   1
loop_
 _symmetry_equiv_pos_site_id
 _symmetry_equiv_pos_as_xyz
  1  'x, y, z'
loop_
 _atom_site_type_symbol
 _atom_site_label
 _atom_site_symmetry_multiplicity
 _atom_site_fract_x
 _atom_site_fract_y
 _atom_site_fract_z
 _atom_site_occupancy
  V  V0  1  0.37563420  0.62353659  0.25006117  1
  V  V1  1  0.62023079  0.75791671  0.87604881  1
  V  V2  1  0.62477699  0.88659698  0.75011559  1
  V  V3  1  0.37682620  0.12657877  0.25741029  1
  V  V4  1  0.86920474  0.11518443  0.75615434  1
  V  V5  1  0.74871949  0.25003915  -0.00539654  1
  V  V6  1  0.74597804  0.88800884  0.63034748  1
  V  V7  1  0.37495772  0.37625840  0.49877118  1
  V  V8  1  0.49876223  0.62346125  0.12620966  1
  V  V9  1  0.87591085  0.87606000  0.50390990  1
  V  V10  1  0.50110652  0.76701571  0.25281808  1
  V  V11  1  0.62165991  0.24816892  0.37148888  1
  V  V12  1  0.87372204  0.12557384  0.24857044  1
  V  V13  1  0.12153727  0.11790245  0.00252304  1
  V  V14  1  0.75137561  0.12574965  0.37131000  1
  V  V15  1  0.24731984  0.37502279  0.12762174  1
  V  V16  1  0.00131870  0.50779258  -0.00203799  1
  V  V17  1  0.87325302  -0.00086836  0.37366388  1
  V  V18  1  0.75365202  0.25771032  0.49853444  1
  V  V19  1  0.50834999  0.49942390  0.50389463  1
  V  V20  1  0.50550256  -0.00834504  0.49466360  1
  V  V21  1  0.24661907  0.49929639  0.25111722  1
  V  V22  1  0.87386994  0.25243983  0.62262561  1
  V  V23  1  0.75351985  0.51799405  0.25063962  1
  V  V24  1  0.24205340  0.61799676  0.88210416  1
  V  V25  1  0.42266683  0.93818109  -0.05660657  1
  V  V26  1  0.61976378  0.24505466  0.86326513  1
  V  V27  1  0.50320556  0.37466918  0.37321206  1
  V  V28  1  0.87538908  0.25060854  0.12443531  1
  V  V29  1  0.38078408  0.25278750  0.13446690  1
  V  V30  1  0.62050328  0.12412331  0.00136702  1
  V  V31  1  0.62484902  0.37327962  0.25011708  1
  V  V32  1  0.62235049  0.39145693  0.74709137  1
  V  V33  1  0.12585577  -0.00028888  0.62386958  1
  V  V34  1  0.75004165  0.37726555  0.12601674  1
  V  V35  1  0.87026801  0.50247754  0.37383566  1
  V  V36  1  0.75241929  0.75726771  0.00046615  1
  V  V37  1  -0.00221793  0.37421739  0.87518347  1
  V  V38  1  0.12192390  0.62309106  0.50105477  1
  V  V39  1  0.87418331  0.88902881  0.00228322  1
  V  V40  1  0.62957130  0.62372454  0.49017988  1
  V  V41  1  0.63037541  0.11603735  0.50132665  1
  V  V42  1  0.37822281  0.37381475  -0.00025843  1
  V  V43  1  0.00048777  0.24611332  0.75089200  1
  V  V44  1  0.36847808  0.75297352  0.11795922  1
  V  V45  1  0.50499213  0.12923598  0.13484149  1
  V  V46  1  0.74320480  0.62468978  0.86993359  1
  V  V47  1  0.37715736  0.49980519  0.37531054  1
  V  V48  1  0.86612754  0.49848492  0.86982662  1
  V  V49  1  0.12901250  0.87239463  0.24531798  1
  V  V50  1  0.24697407  0.25219891  0.49626891  1
  V  V51  1  0.12928202  0.87097010  0.75200268  1
  V  V52  1  -0.00160360  0.62373163  0.62543780  1
  V  V53  1  0.50501195  0.12776083  0.62449809  1
  V  V54  1  0.00355793  0.24976517  0.25518953  1
  V  V55  1  0.75166310  0.38558323  0.63170402  1
  V  V56  1  0.25446952  0.37470763  0.63850269  1
  V  V57  1  -0.01556136  0.74282291  0.25036466  1
  V  V58  1  0.87415954  0.37550888  -0.00128494  1
  V  V59  1  0.25038475  0.87453295  0.62367498  1
  V  V60  1  -0.00240010  0.11617188  0.12302975  1
  V  V61  1  0.75168384  0.74635220  0.49449620  1
  V  V62  1  0.87080588  0.75124579  0.63226067  1
  V  V63  1  0.12143141  0.50572028  0.12211712  1
  V  V64  1  0.37565107  0.74936058  0.62448658  1
  V  V65  1  0.62535112  0.49955987  0.12332295  1
  V  V66  1  0.49819815  0.75661294  0.75359743  1
  V  V67  1  -0.00319658  0.74987099  0.75667234  1
  V  V68  1  0.12508838  0.12839773  0.49319489  1
  V  V69  1  0.37948123  0.87392223  0.49023503  1
  V  V70  1  0.13000173  0.49832072  0.63231271  1
  V  V71  1  0.12728218  0.24942041  0.87858038  1
  V  V72  1  0.24848430  0.62371777  0.37738133  1
  V  V73  1  0.12260805  0.37344937  0.26093319  1
  V  V74  1  0.62132603  -0.01439421  0.12608075  1
  V  V75  1  0.51009761  0.62312895  0.62760107  1
  V  V76  1  -0.00166084  0.89641171  0.87891543  1
  V  V77  1  0.86944682  0.62150760  0.75024437  1
  V  V78  1  0.36643713  0.61633388  0.74916744  1
  V  V79  1  0.24861947  0.24580283  0.00330027  1
  V  V80  1  0.74789708  -0.01582841  0.24292109  1
  V  V81  1  -0.00664628  0.48828883  0.50109651  1
  V  V82  1  -0.00034985  0.87342353  0.37444284  1
  V  V83  1  0.00054264  0.12417283  0.62523024  1
  V  V84  1  0.62325742  0.62554428  -0.00230268  1
  Zn  Zn85  1  -0.00612143  0.62762666  0.12442278  1
  Zn  Zn86  1  0.25048892  0.12336674  0.37773533  1
  Zn  Zn87  1  0.26713562  0.89611708  0.10630819  1
  Zn  Zn88  1  0.37588658  0.13752815  0.75076507  1
  Zn  Zn89  1  0.00091250  0.00075988  0.49725599  1
  Zn  Zn90  1  0.61715485  0.75757587  0.37143236  1
  Zn  Zn91  1  0.24918496  0.00269561  0.25424963  1
  Zn  Zn92  1  0.86528242  0.74913485  0.12701502  1
  Zn  Zn93  1  0.36970170  0.48989777  0.86818112  1
  Zn  Zn94  1  0.49709765  0.37264930  0.86779917  1
  Zn  Zn95  1  0.49818897  0.49743832  -0.00442474  1
  Zn  Zn96  1  0.30363730  -0.00010269  0.79922821  1
  Zn  Zn97  1  0.24924772  0.74819290  0.49895411  1
  Zn  Zn98  1  0.11961293  0.74446930  0.88743248  1
  Zn  Zn99  1  0.13021208  0.37616219  0.75479920  1
  Zn  Zn100  1  0.23250797  0.74445112  0.00583054  1
  Zn  Zn101  1  0.38930371  0.25531956  0.62206440  1
  Zn  Zn102  1  0.37883926  -0.00696678  0.37189571  1
  Zn  Zn103  1  0.12342466  -0.00101919  0.12594221  1
  Zn  Zn104  1  0.74541295  0.11199384  0.87112639  1
  Zn  Zn105  1  0.12186129  0.74844241  0.37580901  1
  Zn  Zn106  1  -0.00621198  0.36900222  0.38120511  1
  Zn  Zn107  1  0.18760853  0.18685710  0.19004861  1
  Zn  Zn108  1  0.19500916  0.18883734  0.69158164  1
  Zn  Zn109  1  0.18109147  0.68785384  0.19099388  1
  Zn  Zn110  1  0.18715851  0.68897407  0.68894248  1
  Zn  Zn111  1  0.69017552  0.18822204  0.18731596  1
  Zn  Zn112  1  0.68755708  0.18494625  0.68434002  1
  Zn  Zn113  1  0.68248557  0.69381199  0.18317140  1
  Zn  Zn114  1  0.68707882  0.69266863  0.68921539  1
  Zn  Zn115  1  0.31023731  0.31008100  0.31590486  1
  Zn  Zn116  1  0.33377004  0.27355540  0.83109663  1
  Zn  Zn117  1  0.31137772  0.80596712  0.30904103  1
  Zn  Zn118  1  0.31086471  0.80777138  0.81933477  1
  Zn  Zn119  1  0.81474994  0.31929698  0.31312384  1
  Zn  Zn120  1  0.80937173  0.30908986  0.80856911  1
  Zn  Zn121  1  0.79342699  0.81583046  0.32189954  1
  Zn  Zn122  1  0.81188475  0.93756465  0.81440724  1
  Zn  Zn123  1  0.18536159  0.43859136  0.44232617  1
  Zn  Zn124  1  0.18940715  0.43632591  0.93768646  1
  Zn  Zn125  1  0.19188993  0.93904478  0.43632321  1
  Zn  Zn126  1  0.19664753  0.92990813  0.93753264  1
  Zn  Zn127  1  0.69290742  0.43827639  0.43760056  1
  Zn  Zn128  1  0.68433055  0.43642912  0.93459312  1
  Zn  Zn129  1  0.68992512  0.93129371  0.43344833  1
  Zn  Zn130  1  0.68011818  0.93943921  0.94164377  1
  Zn  Zn131  1  0.30990638  0.06779065  0.07009888  1
  Zn  Zn132  1  0.29707124  0.07990688  0.59950963  1
  Zn  Zn133  1  0.31180417  0.56042315  0.06210349  1
  Zn  Zn134  1  0.31408149  0.55970627  0.56373669  1
  Zn  Zn135  1  0.80507125  0.06302293  0.06209037  1
  Zn  Zn136  1  0.81503186  0.06548158  0.56158962  1
  Zn  Zn137  1  0.81364005  0.56810711  0.06121719  1
  Zn  Zn138  1  0.81499756  0.56190586  0.55849087  1
  Zn  Zn139  1  0.43963443  0.43739432  0.18766474  1
  Zn  Zn140  1  0.44167545  0.43559967  0.68528779  1
  Zn  Zn141  1  0.43799543  0.94315214  0.18200801  1
  Zn  Zn142  1  0.44220743  0.94039110  0.67179971  1
  Zn  Zn143  1  0.93617142  0.43977511  0.18982047  1
  Zn  Zn144  1  0.93810890  0.43437976  0.68810818  1
  Zn  Zn145  1  0.93395897  0.93239549  0.18795531  1
  Zn  Zn146  1  0.94429120  0.93701676  0.68665749  1
  Zn  Zn147  1  0.06077382  0.05944423  0.31184828  1
  Zn  Zn148  1  0.11379676  0.04561055  0.82855301  1
  Zn  Zn149  1  0.05741063  0.56022081  0.31551501  1
  Zn  Zn150  1  0.05857285  0.56072112  0.81174538  1
  Zn  Zn151  1  0.56290723  0.05656349  0.31123503  1
  Zn  Zn152  1  0.50973545  0.03513024  0.79845208  1
  Zn  Zn153  1  0.56574311  0.56339798  0.31161586  1
  Zn  Zn154  1  0.55328359  0.56168257  0.81467697  1
  Zn  Zn155  1  0.44198767  0.18824020  0.44424160  1
  Zn  Zn156  1  0.44182773  0.17428326  0.93852128  1
  Zn  Zn157  1  0.44053834  0.68782783  0.43684621  1
  Zn  Zn158  1  0.43423331  0.68556910  0.93587379  1
  Zn  Zn159  1  0.93778689  0.18740282  0.43852450  1
  Zn  Zn160  1  0.93867448  0.18338514  0.93646695  1
  Zn  Zn161  1  0.93105981  0.68742118  0.43729353  1
  Zn  Zn162  1  0.93134227  0.68845282  0.93908323  1
  Zn  Zn163  1  0.06099142  0.31483175  0.06736111  1
  Zn  Zn164  1  0.06769982  0.31077765  0.56669703  1
  Zn  Zn165  1  0.06020202  0.81142210  0.06055003  1
  Zn  Zn166  1  0.06053311  0.80869501  0.56225096  1
  Zn  Zn167  1  0.56164471  0.30921726  0.06206649  1
  Zn  Zn168  1  0.57273707  0.31370504  0.56029259  1
  Zn  Zn169  1  0.54932273  0.81179442  0.05625623  1
  Zn  Zn170  1  0.56627443  0.81030251  0.56404273  1
  O  O171  1  0.11346655  0.12769446  0.12036533  1
  O  O172  1  0.11889516  0.11508564  0.62015248  1
  O  O173  1  0.11764805  0.60893216  0.13427075  1
  O  O174  1  0.12125386  0.61795603  0.62031084  1
  O  O175  1  0.61802596  0.12914818  0.12037272  1
  O  O176  1  0.62578924  0.12630228  0.60699657  1
  O  O177  1  0.61579068  0.62043785  0.11802625  1
  O  O178  1  0.61274926  0.63203719  0.62064250  1
  O  O179  1  0.38234298  0.38037647  0.37903195  1
  O  O180  1  0.37556858  0.36875420  0.88695663  1
  O  O181  1  0.37075624  0.86604105  0.38784747  1
  O  O182  1  0.35953189  0.89901180  0.86738850  1
  O  O183  1  0.87868023  0.38976195  0.37416193  1
  O  O184  1  0.87612086  0.38072618  0.87681347  1
  O  O185  1  0.88039498  0.88121368  0.38150217  1
  O  O186  1  0.89125167  0.88249820  0.88013837  1
  O  O187  1  0.25960294  0.00489476  0.37278153  1
  O  O188  1  0.21560386  0.00762743  0.86225867  1
  O  O189  1  0.25430799  0.50768290  0.37281146  1
  O  O190  1  0.25309021  0.51068110  0.87490656  1
  O  O191  1  0.75678639  0.00616393  0.36320260  1
  O  O192  1  0.74361474  0.00057003  0.87393953  1
  O  O193  1  0.76051557  0.49917015  0.36710226  1
  O  O194  1  0.75741807  0.50816474  0.87938629  1
  O  O195  1  0.24131621  0.49524496  0.13103788  1
  O  O196  1  0.24042421  0.48950517  0.61781177  1
  O  O197  1  0.24172115  1.00212549  0.13661687  1
  O  O198  1  0.24065306  0.98046961  0.61564609  1
  O  O199  1  0.74532351  0.49590522  0.13020339  1
  O  O200  1  0.75650920  0.48341310  0.62067683  1
  O  O201  1  0.73297228  1.00761878  0.13296302  1
  O  O202  1  0.75370707  0.98619481  0.61967388  1
  O  O203  1  0.00729108  0.36720154  0.24941832  1
  O  O204  1  0.00159241  0.36180015  0.75530014  1
  O  O205  1  0.00363523  0.86772065  0.26086263  1
  O  O206  1  0.00313927  0.86761077  0.75996462  1
  O  O207  1  0.51647601  0.38260368  0.25658556  1
  O  O208  1  0.51782160  0.37566382  0.74613050  1
  O  O209  1  0.49608038  0.86519710  0.24838717  1
  O  O210  1  0.50564632  0.86087996  0.73625357  1
  O  O211  1  0.49650941  0.12549586  0.24171763  1
  O  O212  1  0.51507846  0.12618569  0.72535168  1
  O  O213  1  0.49452594  0.62208335  0.23811925  1
  O  O214  1  0.49049468  0.63253557  0.74241645  1
  O  O215  1  0.99468759  0.13194295  0.24469660  1
  O  O216  1  0.98921311  0.13769931  0.74425335  1
  O  O217  1  1.00137912  0.64081611  0.25487756  1
  O  O218  1  0.99234664  0.63055501  0.74424333  1
  O  O219  1  0.36624771  0.25797010  0.01538428  1
  O  O220  1  0.36937659  0.26068655  0.50153562  1
  O  O221  1  0.37193195  0.73988809  0.01716892  1
  O  O222  1  0.37691705  0.75077593  0.51247888  1
  O  O223  1  0.86631868  0.25413892  0.00214186  1
  O  O224  1  0.86868402  0.24486896  0.51297893  1
  O  O225  1  0.86456540  0.76090100  -0.00485575  1
  O  O226  1  0.87770011  0.75570025  0.51819949  1
  O  O227  1  0.13204898  0.23994047  0.50421172  1
  O  O228  1  0.13005416  0.24866175  0.99808518  1
  O  O229  1  0.12419085  0.73423541  0.49906121  1
  O  O230  1  0.11648085  0.73800384  1.00092542  1
  O  O231  1  0.63744063  0.24216597  0.48914413  1
  O  O232  1  0.63472376  0.24858169  0.99331946  1
  O  O233  1  0.63440027  0.74336531  0.49563843  1
  O  O234  1  0.62377165  0.74560815  0.99250770  1
  O  O235  1  0.49071457  0.24538612  0.12795609  1
  O  O236  1  0.50831325  0.23331541  0.60666298  1
  O  O237  1  0.48847223  0.74272617  0.13289271  1
  O  O238  1  0.49265883  0.74119386  0.63002001  1
  O  O239  1  0.99186393  0.24545276  0.13575949  1
  O  O240  1  0.99375990  0.24705346  0.63184298  1
  O  O241  1  0.99733757  0.75048739  0.14348227  1
  O  O242  1  0.99328543  0.74505467  0.63562269  1
  O  O243  1  -0.00731810  0.25096592  0.36034694  1
  O  O244  1  0.00253084  0.25670737  0.86851315  1
  O  O245  1  -0.00234850  0.75648161  0.36821612  1
  O  O246  1  -0.00217527  0.74582269  0.86215736  1
  O  O247  1  0.51539581  0.25815484  0.38225338  1
  O  O248  1  0.51905204  0.25537692  0.88081533  1
  O  O249  1  0.49843638  0.74804546  0.35801264  1
  O  O250  1  0.50582734  0.74120482  0.86374679  1
  O  O251  1  0.24163576  0.13370704  0.50684029  1
  O  O252  1  0.23926011  0.14041191  1.01162776  1
  O  O253  1  0.24209497  0.62281459  0.49423774  1
  O  O254  1  0.25330940  0.62367184  0.98534671  1
  O  O255  1  0.74747927  0.13312050  0.49225735  1
  O  O256  1  0.73961699  0.13606116  0.99987329  1
  O  O257  1  0.73609577  0.63173898  0.51550423  1
  O  O258  1  0.74092139  0.62967915  0.98852443  1
  O  O259  1  0.25427605  0.36678647  0.00987377  1
  O  O260  1  0.25587009  0.37064607  0.50253879  1
  O  O261  1  0.23968239  0.85879530  0.00621864  1
  O  O262  1  0.25851173  0.86740802  0.50585063  1
  O  O263  1  0.75388332  0.36881178  0.00468908  1
  O  O264  1  0.74290185  0.36327998  0.51219484  1
  O  O265  1  0.76425075  0.86928931  -0.00953821  1
  O  O266  1  0.75804101  0.86586113  0.51444584  1
  O  O267  1  0.12713663  0.49255828  0.24588453  1
  O  O268  1  0.11673815  0.49634220  0.73553109  1
  O  O269  1  0.12322150  0.98404403  0.25264901  1
  O  O270  1  0.11504869  0.98304340  0.73081610  1
  O  O271  1  0.63415569  0.49432064  0.24486297  1
  O  O272  1  0.62536271  0.48991808  0.75353355  1
  O  O273  1  0.63317612  0.99911672  0.23769655  1
  O  O274  1  0.60651541  0.98377352  0.75732916  1
  O  O275  1  0.37588197  0.01152352  0.25172547  1
  O  O276  1  0.40158514  0.01538268  0.74838730  1
  O  O277  1  0.36777533  0.50396701  0.25567446  1
  O  O278  1  0.37875517  0.51415255  0.74573370  1
  O  O279  1  0.87024417  0.00772775  0.25303558  1
  O  O280  1  0.87925401  0.01205178  0.74702946  1
  O  O281  1  0.86507913  0.49780288  0.25939658  1
  O  O282  1  0.88090977  0.50477248  0.76236302  1
  O  O283  1  0.12143789  0.38062244  0.36391538  1
  O  O284  1  0.11610776  0.36721821  0.87470711  1
  O  O285  1  0.11551227  0.87227336  0.36994781  1
  O  O286  1  0.11130220  0.86762378  0.86586045  1
  O  O287  1  0.62517918  0.36877404  0.36862531  1
  O  O288  1  0.62850884  0.36662858  0.85986812  1
  O  O289  1  0.68515652  0.84577882  0.36411104  1
  O  O290  1  0.62589685  0.86281826  0.86849065  1
  O  O291  1  0.38368312  0.13414988  0.13587057  1
  O  O292  1  0.40007264  0.12939438  0.60924892  1
  O  O293  1  0.38125663  0.62747890  0.13078859  1
  O  O294  1  0.37966063  0.63077194  0.63289961  1
  O  O295  1  0.87930860  0.13102691  0.12799584  1
  O  O296  1  0.88075792  0.13144053  0.63277326  1
  O  O297  1  0.88006513  0.63501497  0.11791605  1
  O  O298  1  0.87800466  0.63049027  0.63061077  1
  O  O299  1  0.25521238  0.25812409  0.12266273  1
  O  O300  1  0.24878918  0.26341763  0.61302883  1
  O  O301  1  0.26391135  0.73923155  0.12957837  1
  O  O302  1  0.25754924  0.75663547  0.62319764  1
  O  O303  1  0.75562753  0.25714477  0.11576664  1
  O  O304  1  0.75719335  0.25490601  0.61761254  1
  O  O305  1  0.74410883  0.74872642  0.10526026  1
  O  O306  1  0.75825227  0.75671008  0.62119798  1
  O  O307  1  0.25202576  0.24609747  0.39110002  1
  O  O308  1  0.23467171  0.26075806  0.89071648  1
  O  O309  1  0.24709873  0.73418434  0.37651327  1
  O  O310  1  0.24564923  0.73261890  0.87515687  1
  O  O311  1  0.74748193  0.24792226  0.38208097  1
  O  O312  1  0.74276107  0.24904469  0.88358805  1
  O  O313  1  0.78532176  0.73007804  0.40141173  1
  O  O314  1  0.73408958  0.73852809  0.88633182  1
  O  O315  1  0.00711177  0.13437305  0.01311909  1
  O  O316  1  0.00755372  0.12603006  0.50771065  1
  O  O317  1  -0.00394933  0.60971235  -0.00537615  1
  O  O318  1  0.00576426  0.61750442  0.50692948  1
  O  O319  1  0.51388765  0.13686718  0.01540385  1
  O  O320  1  0.51554792  0.11587395  0.49781232  1
  O  O321  1  0.50302201  0.62369792  0.01089079  1
  O  O322  1  0.50805315  0.61942414  0.50665360  1
  O  O323  1  0.49958158  0.38367416  0.49586893  1
  O  O324  1  0.48946539  0.37487198  1.00216659  1
  O  O325  1  0.49495273  0.87901164  0.50599656  1
  O  O326  1  0.47909660  0.86635140  0.98731516  1
  O  O327  1  1.00687083  0.38531260  0.50251807  1
  O  O328  1  0.99107280  0.37938817  0.99418016  1
  O  O329  1  0.99479527  0.87334804  0.48983287  1
  O  O330  1  0.99054441  0.87486400  0.98505228  1
  O  O331  1  0.49730814  0.49541893  0.38209760  1
  O  O332  1  0.48961892  0.49225227  0.87790106  1
  O  O333  1  0.49846005  0.99978637  0.38684497  1
  O  O334  1  0.48697088  1.00713453  0.90367014  1
  O  O335  1  0.99328926  0.49374967  0.38479142  1
  O  O336  1  0.99299322  0.49230391  0.88019314  1
  O  O337  1  0.99055728  0.99128739  0.37581175  1
  O  O338  1  1.01134521  0.99323118  0.87004024  1
  O  O339  1  -0.00068597  0.01364439  0.13221358  1
  O  O340  1  0.00661203  0.00494064  0.61839363  1
  O  O341  1  0.00405525  0.49882563  0.11547250  1
  O  O342  1  0.00320629  0.50403471  0.61832342  1
  O  O343  1  0.51460426  0.01170374  0.12968538  1
  O  O344  1  0.50729435  0.01212985  0.60442987  1
  O  O345  1  0.50687631  0.50742400  0.12300833  1
  O  O346  1  0.49711576  0.50950320  0.61309008  1
  O  O347  1  0.24213086  0.37988859  0.24805755  1
  O  O348  1  0.24999262  0.37161912  0.73830629  1
  O  O349  1  0.23393465  0.86963759  0.25082490  1
  O  O350  1  0.23985206  0.86922292  0.74161922  1
  O  O351  1  0.74051414  0.38205964  0.24351883  1
  O  O352  1  0.74156349  0.37318674  0.73853618  1
  O  O353  1  0.76885092  0.88786957  0.23363174  1
  O  O354  1  0.74265275  0.87762840  0.73854243  1
  O  O355  1  0.26101931  0.12823353  0.25555612  1
  O  O356  1  0.26671580  0.10587866  0.71195636  1
  O  O357  1  0.25250841  0.61802270  0.25902283  1
  O  O358  1  0.26316403  0.62731722  0.75173683  1
  O  O359  1  0.75822369  0.12217030  0.25452234  1
  O  O360  1  0.76637562  0.12870959  0.74790670  1
  O  O361  1  0.74194116  0.61654596  0.24498740  1
  O  O362  1  0.75230001  0.63030699  0.76221926  1
  O  O363  1  0.38145341  0.13171248  0.36302174  1
  O  O364  1  0.36498256  0.16105672  0.86503829  1
  O  O365  1  0.36849646  0.61895949  0.37167717  1
  O  O366  1  0.36636616  0.62335630  0.86109650  1
  O  O367  1  0.87088017  0.11863060  0.36983827  1
  O  O368  1  0.87273358  0.13030711  0.85886245  1
  O  O369  1  0.88474381  0.60242696  0.37816330  1
  O  O370  1  0.86364719  0.61741740  0.87062337  1
  O  O371  1  0.12903428  0.38420615  0.13578637  1
  O  O372  1  0.13506754  0.38256456  0.62754684  1
  O  O373  1  0.11432792  0.87768083  0.14091525  1
  O  O374  1  0.13092939  0.87551822  0.62783609  1
  O  O375  1  0.62912125  0.37882745  0.13176275  1
  O  O376  1  0.63808973  0.37103408  0.63736619  1
  O  O377  1  0.61549190  0.88759311  0.11556643  1
  O  O378  1  0.63954977  0.86896348  0.63331237  1
  O  O379  1  0.11487082  0.25980521  0.24535793  1
  O  O380  1  0.11906099  0.24795290  0.75951239  1
  O  O381  1  0.11405300  0.75984252  0.25494807  1
  O  O382  1  0.11438158  0.75848586  0.74815021  1
  O  O383  1  0.63422740  0.26002308  0.26079867  1
  O  O384  1  0.63283776  0.25161941  0.76185465  1
  O  O385  1  0.60378250  0.74695197  0.24584635  1
  O  O386  1  0.61622453  0.75605246  0.75775303  1
  O  O387  1  0.37126548  0.24741133  0.24068868  1
  O  O388  1  0.37681209  0.25184161  0.73181484  1
  O  O389  1  0.38414629  0.74035959  0.24388875  1
  O  O390  1  0.38013163  0.74351918  0.74123663  1
  O  O391  1  0.87825233  0.24483814  0.24363750  1
  O  O392  1  0.88066556  0.24377955  0.74028245  1
  O  O393  1  0.88317883  0.75830488  0.25223580  1
  O  O394  1  0.88128521  0.74186582  0.74051292  1
  O  O395  1  0.38583090  0.49651713  0.49313872  1
  O  O396  1  0.37290394  0.48300784  1.00284666  1
  O  O397  1  0.38815649  0.98442333  0.49779256  1
  O  O398  1  0.36778604  0.98869755  1.01318168  1
  O  O399  1  0.88279938  0.49855563  0.49189065  1
  O  O400  1  0.87987896  0.49353924  0.98855916  1
  O  O401  1  0.87577924  0.99354905  0.49250717  1
  O  O402  1  0.87033027  0.98867443  1.00402135  1
  O  O403  1  0.12693225  0.01615286  0.00325497  1
  O  O404  1  0.12350832  0.00446401  0.50954838  1
  O  O405  1  0.11360084  0.49018461  0.00984357  1
  O  O406  1  0.11645343  0.50825582  0.50886438  1
  O  O407  1  0.62900269  0.01317846  0.01624821  1
  O  O408  1  0.62448103  0.00618372  0.48775235  1
  O  O409  1  0.62346502  0.50597507  0.00609051  1
  O  O410  1  0.61731932  0.50705698  0.49453133  1
  O  O411  1  0.36901395  0.36938360  0.12459952  1
  O  O412  1  0.36907067  0.38034769  0.61456571  1
  O  O413  1  0.37304360  0.85707358  0.13503241  1
  O  O414  1  0.36807452  0.86628979  0.61891809  1
  O  O415  1  0.86938499  0.37081411  0.11926613  1
  O  O416  1  0.86261668  0.36545779  0.63212395  1
  O  O417  1  0.88417981  0.86944209  0.10521301  1
  O  O418  1  0.86754210  0.86913210  0.62701168  1
  O  O419  1  0.12419914  0.11777511  0.39035578  1
  O  O420  1  0.11174981  0.14284995  0.88889543  1
  O  O421  1  0.13138286  0.62122813  0.38451623  1
  O  O422  1  0.13994951  0.62228244  0.86351260  1
  O  O423  1  0.63235862  0.13228565  0.37707429  1
  O  O424  1  0.62666199  0.13901566  0.88504120  1
  O  O425  1  0.62212305  0.63148722  0.38657240  1
  O  O426  1  0.62668883  0.62927582  0.87799341  1
