# generated using pymatgen
data_V85Zn86O256
_symmetry_space_group_name_H-M   'P 1'
_cell_length_a   16.95139420
_cell_length_b   16.95337013
_cell_length_c   16.95801274
_cell_angle_alpha   90.07177914
_cell_angle_beta   90.05040152
_cell_angle_gamma   90.01746056
_symmetry_Int_Tables_number   1
_chemical_formula_structural   V85Zn86O256
_chemical_formula_sum   'V85 Zn86 O256'
_cell_volume   4873.44304730
_cell_formula_units_Z   1
loop_
 _symmetry_equiv_pos_site_id
 _symmetry_equiv_pos_as_xyz
  1  'x, y, z'
loop_
 _atom_site_type_symbol
 _atom_site_label
 _atom_site_symmetry_multiplicity
 _atom_site_fract_x
 _atom_site_fract_y
 _atom_site_fract_z
 _atom_site_occupancy
  V  V0  1  0.75098154  0.62108846  0.86296041  1
  V  V1  1  0.00393169  0.87485476  0.37203591  1
  V  V2  1  0.74912932  0.62900913  0.37526252  1
  V  V3  1  -0.00595128  0.62332047  0.62235346  1
  V  V4  1  0.61773167  0.74737863  0.37602601  1
  V  V5  1  0.87342467  0.87355072  0.00049855  1
  V  V6  1  0.61123396  0.49783958  0.61559862  1
  V  V7  1  0.36324067  0.26071508  0.13552068  1
  V  V8  1  0.12187508  0.62084857  0.49748858  1
  V  V9  1  0.62189127  0.12324818  -0.00115418  1
  V  V10  1  -0.00105846  0.50697957  -0.00554645  1
  V  V11  1  0.00360453  0.13007706  0.62581812  1
  V  V12  1  0.35346429  0.61647728  0.74797588  1
  V  V13  1  0.50900232  0.11962183  0.61234378  1
  V  V14  1  -0.00120368  0.37875474  0.87132137  1
  V  V15  1  0.13712419  0.38209592  0.74821247  1
  V  V16  1  0.48858171  0.00071015  -0.00578625  1
  V  V17  1  0.00670425  0.38162487  0.37161380  1
  V  V18  1  0.25273537  0.62481482  0.37242247  1
  V  V19  1  0.38563870  0.74791301  0.12704044  1
  V  V20  1  0.38923154  0.37893505  0.00459865  1
  V  V21  1  0.87489197  -0.00197359  0.87426049  1
  V  V22  1  0.49862215  0.37605916  0.39089049  1
  V  V23  1  0.74879228  0.00220244  0.24886173  1
  V  V24  1  0.62018961  -0.00327427  0.12371510  1
  V  V25  1  0.00412966  0.75413121  0.24735111  1
  V  V26  1  0.70119165  0.07754577  0.42597254  1
  V  V27  1  0.12496508  -0.00507556  0.12920526  1
  V  V28  1  -0.00240295  0.74648076  0.74646986  1
  V  V29  1  0.00353277  0.62702038  0.11911992  1
  V  V30  1  0.87394772  0.50695127  0.85463020  1
  V  V31  1  0.87394467  0.86485267  0.50973420  1
  V  V32  1  0.61963745  0.86673279  0.25067896  1
  V  V33  1  0.13889058  0.74633918  0.87806985  1
  V  V34  1  0.12814711  0.00097324  0.62718579  1
  V  V35  1  0.88876810  0.37798705  0.50089185  1
  V  V36  1  0.87573393  0.12419481  0.75080162  1
  V  V37  1  0.12637628  0.24847031  0.37442339  1
  V  V38  1  0.75202883  0.50103184  0.24341187  1
  V  V39  1  0.37100482  0.12312930  0.25061488  1
  V  V40  1  0.87750035  0.50142843  0.37478870  1
  V  V41  1  0.62957155  0.38514908  0.75268693  1
  V  V42  1  -0.00714559  0.12354644  0.12733226  1
  V  V43  1  0.12696993  0.87632417  0.75139510  1
  V  V44  1  0.00253352  -0.00151271  0.50153988  1
  V  V45  1  0.24781023  -0.00664839  0.25057937  1
  V  V46  1  0.38066473  0.12697591  0.75447870  1
  V  V47  1  0.74763256  0.74447558  -0.00195485  1
  V  V48  1  0.75504313  0.38609607  0.63090261  1
  V  V49  1  0.12803323  0.75312731  0.36886142  1
  V  V50  1  0.25689386  0.00134132  0.75457456  1
  V  V51  1  0.00130200  -0.00112384  0.00088323  1
  V  V52  1  0.25401532  0.12501509  0.87772371  1
  V  V53  1  0.38946243  0.62710108  0.25405996  1
  V  V54  1  0.48893331  0.74375280  0.74372814  1
  V  V55  1  0.74731214  0.87255656  0.12488456  1
  V  V56  1  0.25311970  0.75376075  0.50564179  1
  V  V57  1  0.62072800  0.75377732  0.86972857  1
  V  V58  1  0.12642585  0.25193497  0.87313245  1
  V  V59  1  0.14223105  0.62457228  -0.00046822  1
  V  V60  1  0.74918624  0.12339205  0.87374431  1
  V  V61  1  0.37046210  0.86855669  -0.00370434  1
  V  V62  1  0.37084988  0.25214956  0.61302741  1
  V  V63  1  0.24746088  0.86353581  0.12425590  1
  V  V64  1  0.13220430  0.50261885  0.62793947  1
  V  V65  1  0.62558343  0.37643943  0.24888602  1
  V  V66  1  0.37928808  0.87924295  0.50735500  1
  V  V67  1  0.24802239  0.25971555  0.00711835  1
  V  V68  1  -0.00606012  0.25235112  0.24725086  1
  V  V69  1  0.38138223  0.49654108  0.39247633  1
  V  V70  1  0.75065798  0.25277083  0.50052482  1
  V  V71  1  0.63218213  0.25112988  0.37708546  1
  V  V72  1  0.61488262  0.61775377  -0.00263138  1
  V  V73  1  0.25044436  0.12661462  0.38314377  1
  V  V74  1  0.87906707  0.00605064  0.37518608  1
  V  V75  1  0.87411417  0.74874488  0.12506210  1
  V  V76  1  0.49979161  0.24989824  0.25408280  1
  V  V77  1  0.74305151  -0.01357137  0.74368463  1
  V  V78  1  0.49533775  0.12495063  0.12452341  1
  V  V79  1  0.62584770  0.25160133  0.87527389  1
  V  V80  1  0.00237057  0.87215041  0.87544863  1
  V  V81  1  0.49569676  0.87921266  0.37233609  1
  V  V82  1  0.49935775  0.25099040  0.74930819  1
  V  V83  1  0.49755219  0.87864848  0.86683621  1
  V  V84  1  0.87576901  0.25051054  0.62695890  1
  Zn  Zn85  1  0.16547641  0.42230546  0.17653417  1
  Zn  Zn86  1  0.50526953  0.38513998  0.88143247  1
  Zn  Zn87  1  0.75178882  0.74734289  0.51637532  1
  Zn  Zn88  1  0.87080857  0.37408703  0.00069089  1
  Zn  Zn89  1  0.49995569  0.61782368  0.12320604  1
  Zn  Zn90  1  0.75676571  0.25059167  0.00928640  1
  Zn  Zn91  1  0.26727354  0.38480987  0.60481184  1
  Zn  Zn92  1  0.00280324  0.25163879  0.74889872  1
  Zn  Zn93  1  0.25344082  0.87368155  0.62774046  1
  Zn  Zn94  1  0.37061437  0.51203613  0.87922225  1
  Zn  Zn95  1  0.37708955  0.00072263  0.37895972  1
  Zn  Zn96  1  0.12658304  0.12441047  0.00256211  1
  Zn  Zn97  1  0.25823052  0.49332498  0.25179432  1
  Zn  Zn98  1  0.13270855  0.12519873  0.50376791  1
  Zn  Zn99  1  0.61759685  0.62122175  0.49646541  1
  Zn  Zn100  1  0.87786383  0.62512468  0.24910602  1
  Zn  Zn101  1  0.61973470  0.48934927  0.11527088  1
  Zn  Zn102  1  0.48499975  0.62244846  0.61682946  1
  Zn  Zn103  1  0.82995226  0.68693964  0.68770614  1
  Zn  Zn104  1  0.86585602  0.13031748  0.24835128  1
  Zn  Zn105  1  0.77334345  0.35581036  0.13326889  1
  Zn  Zn106  1  0.62194848  -0.00567534  0.62714451  1
  Zn  Zn107  1  0.18081191  0.18602460  0.19225898  1
  Zn  Zn108  1  0.19117187  0.19110430  0.69056085  1
  Zn  Zn109  1  0.19242528  0.67628765  0.18569157  1
  Zn  Zn110  1  0.18261438  0.69005088  0.68615028  1
  Zn  Zn111  1  0.68553596  0.18673395  0.18678978  1
  Zn  Zn112  1  0.68753887  0.18777437  0.68803276  1
  Zn  Zn113  1  0.68591904  0.68393720  0.18643065  1
  Zn  Zn114  1  0.66760405  0.69041032  0.68533800  1
  Zn  Zn115  1  0.30469173  0.31933940  0.31525226  1
  Zn  Zn116  1  0.29659694  0.34991154  0.83164359  1
  Zn  Zn117  1  0.31514739  0.81096511  0.31066777  1
  Zn  Zn118  1  0.31697345  0.81421271  0.81122349  1
  Zn  Zn119  1  0.81568601  0.31482596  0.31308865  1
  Zn  Zn120  1  0.81503583  0.31157462  0.81886702  1
  Zn  Zn121  1  0.81329505  0.81380992  0.31583169  1
  Zn  Zn122  1  0.81134269  0.81180010  0.81544508  1
  Zn  Zn123  1  0.18773715  0.44134516  0.42903977  1
  Zn  Zn124  1  0.19145090  0.44456283  0.94204270  1
  Zn  Zn125  1  0.18901015  0.93860043  0.43773573  1
  Zn  Zn126  1  0.18941987  0.93874697  0.93957069  1
  Zn  Zn127  1  0.69352285  0.43576646  0.43722968  1
  Zn  Zn128  1  0.69588770  0.43740494  0.93857128  1
  Zn  Zn129  1  0.66453530  0.90403496  0.47560957  1
  Zn  Zn130  1  0.68347468  0.93647760  0.93549622  1
  Zn  Zn131  1  0.30978683  0.06326016  0.06395364  1
  Zn  Zn132  1  0.31892040  0.06226491  0.56724132  1
  Zn  Zn133  1  0.31128677  0.55179625  0.07530041  1
  Zn  Zn134  1  0.31199757  0.57141922  0.56481244  1
  Zn  Zn135  1  0.81005386  0.06265655  0.06137172  1
  Zn  Zn136  1  0.82036429  0.05578461  0.56675376  1
  Zn  Zn137  1  0.81594012  0.55474594  0.06083840  1
  Zn  Zn138  1  0.80879841  0.55917333  0.55526284  1
  Zn  Zn139  1  0.44051531  0.44131985  0.19555876  1
  Zn  Zn140  1  0.43626283  0.43471686  0.69517927  1
  Zn  Zn141  1  0.43515291  0.93516881  0.18678707  1
  Zn  Zn142  1  0.43762064  0.93963019  0.68670918  1
  Zn  Zn143  1  0.97301577  0.41874446  0.16197051  1
  Zn  Zn144  1  0.94888671  0.44014187  0.68389607  1
  Zn  Zn145  1  0.93652624  0.93581380  0.18922508  1
  Zn  Zn146  1  0.93938849  0.93847567  0.68937606  1
  Zn  Zn147  1  0.06401871  0.06436691  0.30926598  1
  Zn  Zn148  1  0.06548060  0.06382098  0.81361699  1
  Zn  Zn149  1  0.06568443  0.56161447  0.30370590  1
  Zn  Zn150  1  0.06828250  0.56666364  0.81012658  1
  Zn  Zn151  1  0.55785039  0.05680971  0.30917133  1
  Zn  Zn152  1  0.56365712  0.06013640  0.81044048  1
  Zn  Zn153  1  0.56146140  0.55787757  0.31352366  1
  Zn  Zn154  1  0.55312794  0.56180516  0.81605506  1
  Zn  Zn155  1  0.44030464  0.18633630  0.43654052  1
  Zn  Zn156  1  0.43461351  0.19838994  0.93820811  1
  Zn  Zn157  1  0.43883306  0.69178092  0.44064528  1
  Zn  Zn158  1  0.42952457  0.68890252  0.93203374  1
  Zn  Zn159  1  0.94238568  0.18893618  0.43949627  1
  Zn  Zn160  1  0.93914304  0.18736448  0.93961111  1
  Zn  Zn161  1  0.93905729  0.68639916  0.43657976  1
  Zn  Zn162  1  0.93680071  0.68764163  0.93200557  1
  Zn  Zn163  1  0.05449646  0.30481022  0.05378550  1
  Zn  Zn164  1  0.10187211  0.33090862  0.54244847  1
  Zn  Zn165  1  0.06690763  0.81021965  0.05907227  1
  Zn  Zn166  1  0.06441661  0.81064084  0.56143744  1
  Zn  Zn167  1  0.56616997  0.30592301  0.06807637  1
  Zn  Zn168  1  0.56778642  0.30640305  0.56764500  1
  Zn  Zn169  1  0.56001401  0.81059735  0.05618825  1
  Zn  Zn170  1  0.55956607  0.80733253  0.56165314  1
  O  O171  1  0.11300327  0.11437486  0.12468191  1
  O  O172  1  0.11990662  0.12137898  0.62640568  1
  O  O173  1  0.11828752  0.64123342  0.10578986  1
  O  O174  1  0.11919295  0.62131522  0.61645027  1
  O  O175  1  0.61442695  0.11715857  0.11960893  1
  O  O176  1  0.61278421  0.12203543  0.62813100  1
  O  O177  1  0.62273190  0.63162100  0.10565303  1
  O  O178  1  0.62120084  0.60264430  0.62645187  1
  O  O179  1  0.38203820  0.38780459  0.37742968  1
  O  O180  1  0.38895926  0.34748249  0.90165486  1
  O  O181  1  0.38116323  0.87697603  0.37912676  1
  O  O182  1  0.38183613  0.87221123  0.88704450  1
  O  O183  1  0.88300276  0.38159055  0.38299750  1
  O  O184  1  0.88364879  0.38883208  0.87103024  1
  O  O185  1  0.88912796  0.88206533  0.37862570  1
  O  O186  1  0.88159281  0.87943985  0.88162963  1
  O  O187  1  0.25020016  0.00612313  0.36504033  1
  O  O188  1  0.24523725  0.01541763  0.86931207  1
  O  O189  1  0.26600695  0.50990131  0.37962468  1
  O  O190  1  0.27085698  0.45738275  0.86745517  1
  O  O191  1  0.75732192  0.00596653  0.36987222  1
  O  O192  1  0.75287862  0.00476105  0.86711199  1
  O  O193  1  0.75530676  0.50712602  0.36802851  1
  O  O194  1  0.76080279  0.50993028  0.87389919  1
  O  O195  1  0.23101264  0.51377873  0.13931821  1
  O  O196  1  0.23652100  0.50091794  0.61746359  1
  O  O197  1  0.24319916  0.99375740  0.13112132  1
  O  O198  1  0.24363497  1.00243442  0.63577553  1
  O  O199  1  0.74113433  0.50974286  0.13898777  1
  O  O200  1  0.74559639  0.48818529  0.62336288  1
  O  O201  1  0.74239331  0.99158781  0.12997507  1
  O  O202  1  0.75041255  1.00619201  0.64167229  1
  O  O203  1  -0.01086587  0.35974244  0.26157829  1
  O  O204  1  0.00637332  0.37368568  0.76102590  1
  O  O205  1  -0.00047583  0.86250812  0.25552586  1
  O  O206  1  0.00824130  0.87059886  0.75588630  1
  O  O207  1  0.50797397  0.36685539  0.26277677  1
  O  O208  1  0.51074957  0.36463552  0.75251528  1
  O  O209  1  0.50909306  0.87867554  0.25613496  1
  O  O210  1  0.48794713  0.86729857  0.76134819  1
  O  O211  1  0.49028746  0.12854298  0.24712638  1
  O  O212  1  0.49474441  0.13001335  0.74841315  1
  O  O213  1  0.49175342  0.62917267  0.25453674  1
  O  O214  1  0.49673681  0.63728845  0.74515932  1
  O  O215  1  0.99453323  0.13103269  0.24410050  1
  O  O216  1  0.99443871  0.12479951  0.74386592  1
  O  O217  1  1.00209747  0.63585563  0.23880174  1
  O  O218  1  1.00677064  0.63444302  0.73589442  1
  O  O219  1  0.36720750  0.25247889  0.01836797  1
  O  O220  1  0.38046090  0.24540228  0.51430860  1
  O  O221  1  0.37521758  0.75848958  0.00904405  1
  O  O222  1  0.36174441  0.76405160  0.49184035  1
  O  O223  1  0.86799371  0.26054907  -0.02189991  1
  O  O224  1  0.86917980  0.25713041  0.50481108  1
  O  O225  1  0.86796489  0.75525041  0.00328859  1
  O  O226  1  0.87898912  0.76123356  0.49868376  1
  O  O227  1  0.10865358  0.23613878  0.47899526  1
  O  O228  1  0.13173519  0.24629860  0.99335036  1
  O  O229  1  0.13070159  0.74519508  0.48682729  1
  O  O230  1  0.12539659  0.74105354  0.98588477  1
  O  O231  1  0.64218968  0.25092343  0.49548576  1
  O  O232  1  0.62570741  0.23970141  0.99171499  1
  O  O233  1  0.63195324  0.74824959  0.48732610  1
  O  O234  1  0.62867087  0.74340541  0.98832909  1
  O  O235  1  0.49113425  0.24177941  0.13561488  1
  O  O236  1  0.49818820  0.23836531  0.63193365  1
  O  O237  1  0.48849342  0.74768952  0.12210817  1
  O  O238  1  0.50380546  0.75188329  0.64260482  1
  O  O239  1  0.99948982  0.23675133  0.13703493  1
  O  O240  1  0.99528389  0.23704386  0.62557400  1
  O  O241  1  0.99656405  0.74734602  0.12961700  1
  O  O242  1  1.00850093  0.73870280  0.63411358  1
  O  O243  1  0.00310873  0.25467240  0.36543464  1
  O  O244  1  0.01337775  0.25786498  0.87541676  1
  O  O245  1  0.00658018  0.75495258  0.36631091  1
  O  O246  1  0.00886091  0.75647180  0.86872391  1
  O  O247  1  0.51227574  0.25233006  0.37269561  1
  O  O248  1  0.51494657  0.24748167  0.86793979  1
  O  O249  1  0.51173419  0.75997639  0.37318394  1
  O  O250  1  0.50280544  0.75793447  0.86770806  1
  O  O251  1  0.25412268  0.11760701  0.48644289  1
  O  O252  1  0.25191189  0.13358657  0.99121123  1
  O  O253  1  0.24460212  0.63576988  0.48996728  1
  O  O254  1  0.24012063  0.61863862  1.00055536  1
  O  O255  1  0.76040559  0.13066375  0.49396525  1
  O  O256  1  0.74281370  0.11938079  0.98624296  1
  O  O257  1  0.74473981  0.62529419  0.48602551  1
  O  O258  1  0.74258913  0.63157936  0.99161815  1
  O  O259  1  0.25791009  0.36205297  0.00695433  1
  O  O260  1  0.20881924  0.36718892  0.51121332  1
  O  O261  1  0.26205996  0.88340397  0.01016846  1
  O  O262  1  0.25845226  0.86955706  0.49978492  1
  O  O263  1  0.74969622  0.37227506  0.01062040  1
  O  O264  1  0.76216636  0.36770682  0.50834401  1
  O  O265  1  0.75186444  0.86682928  0.00439279  1
  O  O266  1  0.77276402  0.86785313  0.48749404  1
  O  O267  1  0.14193152  0.49003888  0.27319903  1
  O  O268  1  0.12575133  0.49491666  0.74192206  1
  O  O269  1  0.13218039  1.00090202  0.23769492  1
  O  O270  1  0.13620464  0.99704832  0.74763138  1
  O  O271  1  0.63524576  0.48899548  0.25671073  1
  O  O272  1  0.62093294  0.48759836  0.74257503  1
  O  O273  1  0.63068017  0.98954689  0.24434170  1
  O  O274  1  0.63888720  0.99812064  0.74931091  1
  O  O275  1  0.36713012  0.00809892  0.25005961  1
  O  O276  1  0.36402039  0.00960850  0.74754903  1
  O  O277  1  0.37590481  0.51246973  0.26430068  1
  O  O278  1  0.37094070  0.51405878  0.74426110  1
  O  O279  1  0.86524134  -0.00441466  0.25926874  1
  O  O280  1  0.86818325  0.00490419  0.75628831  1
  O  O281  1  0.86435939  0.50407657  0.26336178  1
  O  O282  1  0.88157964  0.50226376  0.75539644  1
  O  O283  1  0.11122208  0.36509253  0.37799006  1
  O  O284  1  0.12033239  0.37090679  0.86677460  1
  O  O285  1  0.11302776  0.86860177  0.37931090  1
  O  O286  1  0.12162763  0.86732272  0.87289396  1
  O  O287  1  0.62220274  0.36777687  0.36923707  1
  O  O288  1  0.62704826  0.36790116  0.86914591  1
  O  O289  1  0.61798068  0.86845678  0.37057006  1
  O  O290  1  0.61078560  0.86531004  0.88166240  1
  O  O291  1  0.37594332  0.13134504  0.13675057  1
  O  O292  1  0.38611543  0.13153786  0.63545356  1
  O  O293  1  0.37770343  0.63112599  0.13462396  1
  O  O294  1  0.37146319  0.63111943  0.64006343  1
  O  O295  1  0.88883305  0.10941157  0.12890282  1
  O  O296  1  0.88339736  0.12831997  0.63220350  1
  O  O297  1  0.88362412  0.63330581  0.12336211  1
  O  O298  1  0.88928518  0.61705046  0.61777531  1
  O  O299  1  0.25498986  0.24006480  0.12090850  1
  O  O300  1  0.26990919  0.24115882  0.62494520  1
  O  O301  1  0.25617515  0.76108890  0.13078748  1
  O  O302  1  0.23833829  0.75519723  0.60928654  1
  O  O303  1  0.75584670  0.24312362  0.12473574  1
  O  O304  1  0.75694363  0.25552519  0.61834647  1
  O  O305  1  0.75397161  0.75427954  0.11887057  1
  O  O306  1  0.75007004  0.73802689  0.62899098  1
  O  O307  1  0.23927197  0.23942328  0.36806524  1
  O  O308  1  0.24063066  0.24950917  0.88354660  1
  O  O309  1  0.24304354  0.74684717  0.38014468  1
  O  O310  1  0.23646149  0.75737639  0.87169758  1
  O  O311  1  0.74111902  0.25424327  0.38199182  1
  O  O312  1  0.73760029  0.23970466  0.87147156  1
  O  O313  1  0.74234789  0.74119050  0.37214164  1
  O  O314  1  0.74009607  0.74591333  0.87941468  1
  O  O315  1  0.00157802  0.11614716  0.00723163  1
  O  O316  1  -0.00189545  0.11476032  0.51099770  1
  O  O317  1  0.00744702  0.62503824  0.00171241  1
  O  O318  1  0.00961568  0.63536665  0.51193971  1
  O  O319  1  0.49998924  0.11885372  0.00230127  1
  O  O320  1  0.49980125  0.12418714  0.51364145  1
  O  O321  1  0.51305385  0.63131310  -0.00515007  1
  O  O322  1  0.50468140  0.63314136  0.50670695  1
  O  O323  1  0.50894568  0.36532371  0.48897806  1
  O  O324  1  0.49296518  0.36885468  1.00503663  1
  O  O325  1  0.48300025  0.86582850  0.49009987  1
  O  O326  1  0.49033630  0.88221509  0.99261783  1
  O  O327  1  0.99256640  0.37037501  0.49215518  1
  O  O328  1  1.00214610  0.38836826  0.98197352  1
  O  O329  1  0.99490327  0.87857193  0.49204651  1
  O  O330  1  0.99522589  0.87937754  0.99504184  1
  O  O331  1  0.49023718  0.49099988  0.37702975  1
  O  O332  1  0.48491507  0.49482669  0.87079382  1
  O  O333  1  0.49844517  0.98541994  0.37462671  1
  O  O334  1  0.50384286  0.99160782  0.88268169  1
  O  O335  1  0.99051925  0.49230035  0.36754687  1
  O  O336  1  0.99584578  0.49834811  0.87442480  1
  O  O337  1  0.99772297  0.99219355  0.37703024  1
  O  O338  1  0.99721234  0.99295234  0.88003620  1
  O  O339  1  0.00795791  -0.00067079  0.12232959  1
  O  O340  1  0.00893139  0.00965394  0.62451037  1
  O  O341  1  0.00083150  0.52254015  0.11103163  1
  O  O342  1  0.01103668  0.51828266  0.62498785  1
  O  O343  1  0.50213499  0.00461260  0.11743850  1
  O  O344  1  0.50150512  0.01567012  0.63081018  1
  O  O345  1  0.50979360  0.50538098  0.13639404  1
  O  O346  1  0.50991831  0.49354949  0.62489457  1
  O  O347  1  0.25674578  0.37544650  0.23390477  1
  O  O348  1  0.23646485  0.36427790  0.73097351  1
  O  O349  1  0.25634428  0.88710950  0.24158404  1
  O  O350  1  0.24768390  0.88531583  0.75009699  1
  O  O351  1  0.74483079  0.38290805  0.25000333  1
  O  O352  1  0.74216555  0.36561256  0.74076056  1
  O  O353  1  0.74318903  0.88347106  0.24624965  1
  O  O354  1  0.75441460  0.88830742  0.75327042  1
  O  O355  1  0.25531319  0.11475084  0.25543858  1
  O  O356  1  0.25873849  0.12212821  0.75914162  1
  O  O357  1  0.25995381  0.63022428  0.26618252  1
  O  O358  1  0.25445322  0.62837098  0.74846882  1
  O  O359  1  0.74883605  0.10711093  0.24601728  1
  O  O360  1  0.75445986  0.11961988  0.76061860  1
  O  O361  1  0.75119947  0.61931147  0.25911376  1
  O  O362  1  0.74677479  0.63385078  0.76138520  1
  O  O363  1  0.37032226  0.12414831  0.36532761  1
  O  O364  1  0.36803381  0.13549703  0.86366806  1
  O  O365  1  0.37115495  0.62070199  0.37258014  1
  O  O366  1  0.37162848  0.62755426  0.85658144  1
  O  O367  1  0.88400624  0.10944672  0.37326373  1
  O  O368  1  0.86831800  0.11661520  0.87044251  1
  O  O369  1  0.86918892  0.61848304  0.37448964  1
  O  O370  1  0.86403482  0.62043781  0.87330822  1
  O  O371  1  0.07731060  0.38121313  0.12858011  1
  O  O372  1  0.10377370  0.39198952  0.63853498  1
  O  O373  1  0.13554442  0.88129508  0.11867204  1
  O  O374  1  0.12623762  0.88371392  0.63327255  1
  O  O375  1  0.62594826  0.37083214  0.14191717  1
  O  O376  1  0.63373718  0.38183663  0.63134548  1
  O  O377  1  0.62617089  0.87654512  0.13132827  1
  O  O378  1  0.62720323  0.89228899  0.58276258  1
  O  O379  1  0.10755173  0.24225779  0.26168489  1
  O  O380  1  0.12341856  0.25685653  0.75818698  1
  O  O381  1  0.12067423  0.74453845  0.26121235  1
  O  O382  1  0.11828793  0.75566784  0.76080499  1
  O  O383  1  0.62195483  0.25437025  0.26044954  1
  O  O384  1  0.61803921  0.25593215  0.75535196  1
  O  O385  1  0.63189082  0.76206586  0.25501062  1
  O  O386  1  0.60817006  0.74884480  0.76368243  1
  O  O387  1  0.37792620  0.24273423  0.24897474  1
  O  O388  1  0.39126841  0.24362572  0.74466677  1
  O  O389  1  0.37214692  0.74049488  0.24041924  1
  O  O390  1  0.38426074  0.74287594  0.75237619  1
  O  O391  1  0.88730873  0.24425139  0.25716254  1
  O  O392  1  0.87842850  0.24235787  0.74543595  1
  O  O393  1  0.88433111  0.74868504  0.24379352  1
  O  O394  1  0.89203715  0.75390542  0.75700801  1
  O  O395  1  0.37420815  0.50557923  0.49108607  1
  O  O396  1  0.37186463  0.48030557  1.00616202  1
  O  O397  1  0.36906884  0.98384498  0.49707170  1
  O  O398  1  0.38486787  0.99365939  1.00683514  1
  O  O399  1  0.87092415  0.48982454  0.48636941  1
  O  O400  1  0.89107566  0.50852342  0.98456419  1
  O  O401  1  0.88268186  0.99099225  0.49187328  1
  O  O402  1  0.87937676  0.99267302  0.99358848  1
  O  O403  1  0.12009903  0.00189056  0.01051840  1
  O  O404  1  0.12051155  0.00224930  0.50887772  1
  O  O405  1  0.11549336  0.51762372  -0.01271765  1
  O  O406  1  0.12469075  0.51763553  0.50140559  1
  O  O407  1  0.61341369  0.00375542  0.00492864  1
  O  O408  1  0.64424424  0.02088148  0.48289604  1
  O  O409  1  0.62929990  0.51476659  -0.00232953  1
  O  O410  1  0.62880358  0.49511537  0.51339307  1
  O  O411  1  0.38400973  0.36383669  0.12059634  1
  O  O412  1  0.37817626  0.35792329  0.62824870  1
  O  O413  1  0.36961469  0.86663635  0.11875099  1
  O  O414  1  0.37361651  0.87676558  0.61172566  1
  O  O415  1  0.87442687  0.40474836  0.11349451  1
  O  O416  1  0.87372046  0.37276126  0.61995293  1
  O  O417  1  0.86792469  0.86940802  0.11952667  1
  O  O418  1  0.88321472  0.88088640  0.60829782  1
  O  O419  1  0.13482499  0.12810070  0.37502216  1
  O  O420  1  0.13451554  0.13534944  0.87585978  1
  O  O421  1  0.13207630  0.63308603  0.38057842  1
  O  O422  1  0.12547317  0.63837174  0.88327614  1
  O  O423  1  0.63085339  0.13051350  0.36917730  1
  O  O424  1  0.63197747  0.12934400  0.87795805  1
  O  O425  1  0.63086667  0.63179364  0.37210451  1
  O  O426  1  0.62989573  0.63026069  0.88164438  1
