# generated using pymatgen
data_V85Zn86O256
_symmetry_space_group_name_H-M   'P 1'
_cell_length_a   16.95351991
_cell_length_b   16.93649983
_cell_length_c   16.95963624
_cell_angle_alpha   89.92534281
_cell_angle_beta   89.95845627
_cell_angle_gamma   90.03557305
_symmetry_Int_Tables_number   1
_chemical_formula_structural   V85Zn86O256
_chemical_formula_sum   'V85 Zn86 O256'
_cell_volume   4869.66974277
_cell_formula_units_Z   1
loop_
 _symmetry_equiv_pos_site_id
 _symmetry_equiv_pos_as_xyz
  1  'x, y, z'
loop_
 _atom_site_type_symbol
 _atom_site_label
 _atom_site_symmetry_multiplicity
 _atom_site_fract_x
 _atom_site_fract_y
 _atom_site_fract_z
 _atom_site_occupancy
  V  V0  1  0.00178966  0.37567797  0.37371996  1
  V  V1  1  0.37413311  0.87038769  0.00392455  1
  V  V2  1  0.12422864  0.62561375  -0.00312187  1
  V  V3  1  0.75012913  0.25021965  -0.00261507  1
  V  V4  1  0.75084915  0.37550328  0.12349491  1
  V  V5  1  0.75210451  0.12444513  0.87678753  1
  V  V6  1  0.86984715  -0.01180499  0.87594759  1
  V  V7  1  0.49985307  0.85942996  0.86914152  1
  V  V8  1  -0.00775948  0.12361907  0.12261240  1
  V  V9  1  0.38403905  0.75208436  0.62076619  1
  V  V10  1  -0.00600875  0.50187409  -0.00343491  1
  V  V11  1  0.75681428  -0.00932579  0.25301655  1
  V  V12  1  0.87260606  0.76248388  0.11650759  1
  V  V13  1  0.75086569  0.50295730  0.74813603  1
  V  V14  1  0.12349257  0.75482720  0.87241416  1
  V  V15  1  0.74507784  0.72809401  0.49583989  1
  V  V16  1  0.87646073  0.62030406  0.75605570  1
  V  V17  1  0.75297623  0.36375551  0.62169037  1
  V  V18  1  0.24950898  0.25230999  0.00608683  1
  V  V19  1  0.87723192  0.35842202  0.50614987  1
  V  V20  1  0.62449828  0.38243811  0.74283405  1
  V  V21  1  -0.00032631  0.62829933  0.62424574  1
  V  V22  1  0.12608874  0.50476544  0.61906447  1
  V  V23  1  0.12771540  0.37668797  0.74929172  1
  V  V24  1  -0.00822736  0.50120153  0.50141261  1
  V  V25  1  0.37084808  0.37578032  0.00650559  1
  V  V26  1  0.74378747  -0.00250860  0.73460635  1
  V  V27  1  0.50306010  0.11819077  0.62718874  1
  V  V28  1  0.25198593  0.87428762  0.62046836  1
  V  V29  1  0.63036945  0.25016991  0.37855086  1
  V  V30  1  -0.00974130  0.87880326  0.37694675  1
  V  V31  1  0.62497728  0.73582005  0.37295189  1
  V  V32  1  0.62934436  -0.00590447  0.12765305  1
  V  V33  1  -0.00530117  -0.00972350  -0.00141114  1
  V  V34  1  0.49926863  0.37601986  0.87289819  1
  V  V35  1  0.74821001  0.62806841  0.87687053  1
  V  V36  1  0.12739380  0.24886183  0.37434339  1
  V  V37  1  0.12358261  0.74509773  0.38023744  1
  V  V38  1  0.12155535  0.86880593  0.25346110  1
  V  V39  1  0.49812690  -0.00317396  0.50126972  1
  V  V40  1  0.37890714  0.12999626  0.25269484  1
  V  V41  1  0.12591166  0.12461574  0.50143609  1
  V  V42  1  0.62468237  0.50388869  0.12688686  1
  V  V43  1  0.86004644  0.88090839  0.50182243  1
  V  V44  1  0.61873219  0.36493313  0.24459899  1
  V  V45  1  0.24540375  0.74122545  0.50398264  1
  V  V46  1  -0.00324473  0.37924777  0.87185001  1
  V  V47  1  0.25226778  -0.00190967  0.25200380  1
  V  V48  1  -0.00618837  0.62793798  0.12395529  1
  V  V49  1  0.62360379  0.25130601  0.87322124  1
  V  V50  1  0.25269857  0.25067242  0.50115035  1
  V  V51  1  0.50063970  0.50153347  -0.00117999  1
  V  V52  1  -0.00249159  0.24870733  0.24849783  1
  V  V53  1  0.49676416  0.00141744  0.00060990  1
  V  V54  1  0.49980217  0.13140334  0.12994224  1
  V  V55  1  0.37592036  0.24610455  0.62694487  1
  V  V56  1  -0.00494515  0.00013287  0.49909938  1
  V  V57  1  0.12408900  0.00040148  0.62690994  1
  V  V58  1  0.75593745  0.12854844  0.37255532  1
  V  V59  1  0.51837651  0.50601925  0.50343873  1
  V  V60  1  0.48756007  0.74814285  0.24686941  1
  V  V61  1  0.38529449  0.62968864  0.74623211  1
  V  V62  1  -0.04523084  0.69979084  0.28672795  1
  V  V63  1  0.25106692  0.62813313  0.87045372  1
  V  V64  1  0.25368756  0.62087330  0.36710919  1
  V  V65  1  0.87339334  0.12903360  0.74340632  1
  V  V66  1  0.62971396  0.12409275  0.50318326  1
  V  V67  1  0.12554064  -0.00263475  0.12559841  1
  V  V68  1  0.86689616  0.75310416  0.62792204  1
  V  V69  1  0.37458528  0.49996941  0.87091465  1
  V  V70  1  0.49748922  0.87343532  0.37784423  1
  V  V71  1  0.25323648  0.12446806  0.86909928  1
  V  V72  1  0.62339539  0.12616382  0.00040995  1
  V  V73  1  0.87307259  0.37714366  -0.00638515  1
  V  V74  1  0.50055031  0.37052539  0.37206941  1
  V  V75  1  0.62616899  0.63564177  -0.00245194  1
  V  V76  1  0.48624859  0.62813187  0.12814527  1
  V  V77  1  0.49642654  0.24566676  0.74928075  1
  V  V78  1  0.12930346  0.49338548  0.12449287  1
  V  V79  1  0.25274985  0.12241990  0.37605589  1
  V  V80  1  0.25417339  0.86470565  0.12854419  1
  V  V81  1  -0.00423156  0.25221902  0.74387695  1
  V  V82  1  0.12492226  0.12303859  -0.00145974  1
  V  V83  1  0.37705963  0.00225530  0.86629853  1
  V  V84  1  0.37761622  0.38091194  0.49977704  1
  Zn  Zn85  1  0.25201200  0.50084739  0.74555932  1
  Zn  Zn86  1  0.25307597  0.37760701  0.62603150  1
  Zn  Zn87  1  0.38382662  0.50655310  0.36910075  1
  Zn  Zn88  1  0.12524419  0.25011877  0.87446886  1
  Zn  Zn89  1  -0.00561986  0.87291496  0.87227657  1
  Zn  Zn90  1  -0.00428249  0.75606400  0.75008380  1
  Zn  Zn91  1  0.12327489  0.87704363  0.75027084  1
  Zn  Zn92  1  0.87700103  0.51403315  0.36799932  1
  Zn  Zn93  1  0.37381849  -0.00635066  0.38093010  1
  Zn  Zn94  1  0.37370189  0.25512887  0.13165569  1
  Zn  Zn95  1  0.87506141  0.25039869  0.12421345  1
  Zn  Zn96  1  0.76081474  0.51035052  0.25123472  1
  Zn  Zn97  1  0.87523607  0.12270245  0.25334607  1
  Zn  Zn98  1  0.74705160  0.77299699  0.00128355  1
  Zn  Zn99  1  0.62328875  0.87122998  0.75413638  1
  Zn  Zn100  1  0.51556887  0.62503702  0.62385378  1
  Zn  Zn101  1  0.62693986  0.87208636  0.25012406  1
  Zn  Zn102  1  0.25175536  0.74918633  0.00233938  1
  Zn  Zn103  1  0.13330197  0.36905304  0.24284360  1
  Zn  Zn104  1  -0.00345407  0.13060895  0.62228410  1
  Zn  Zn105  1  0.26442132  0.49307101  0.23750697  1
  Zn  Zn106  1  0.25261579  0.00213465  0.74648837  1
  Zn  Zn107  1  0.18687639  0.18523979  0.18676987  1
  Zn  Zn108  1  0.18554305  0.18952168  0.68827225  1
  Zn  Zn109  1  0.18057202  0.68463947  0.18948285  1
  Zn  Zn110  1  0.18744694  0.68696584  0.69001223  1
  Zn  Zn111  1  0.68903907  0.18645181  0.18758899  1
  Zn  Zn112  1  0.68441926  0.18713179  0.68897845  1
  Zn  Zn113  1  0.68083894  0.69242696  0.18026139  1
  Zn  Zn114  1  0.66473216  0.73041826  0.68094890  1
  Zn  Zn115  1  0.31206642  0.31643711  0.31192950  1
  Zn  Zn116  1  0.31172353  0.31122067  0.81528774  1
  Zn  Zn117  1  0.31305102  0.81108456  0.31775589  1
  Zn  Zn118  1  0.31285550  0.81414254  0.80667275  1
  Zn  Zn119  1  0.79895759  0.34706220  0.32701136  1
  Zn  Zn120  1  0.81228823  0.31474164  0.81091492  1
  Zn  Zn121  1  0.79434944  0.68541027  0.31114265  1
  Zn  Zn122  1  0.78803138  0.80259467  0.80576953  1
  Zn  Zn123  1  0.18633604  0.43694867  0.43987472  1
  Zn  Zn124  1  0.18712330  0.43923934  0.93596335  1
  Zn  Zn125  1  0.18680021  0.93304769  0.44105789  1
  Zn  Zn126  1  0.18923328  0.93761874  0.93845200  1
  Zn  Zn127  1  0.69200462  0.43613697  0.43744023  1
  Zn  Zn128  1  0.68722254  0.44441870  0.93353807  1
  Zn  Zn129  1  0.68036239  0.94057273  0.43068668  1
  Zn  Zn130  1  0.68112841  0.94287054  0.93286952  1
  Zn  Zn131  1  0.31278004  0.05970111  0.06320998  1
  Zn  Zn132  1  0.31614388  0.06274337  0.56356867  1
  Zn  Zn133  1  0.31088480  0.56319077  0.05608482  1
  Zn  Zn134  1  0.31282500  0.56550628  0.55911211  1
  Zn  Zn135  1  0.81118644  -0.05421977  0.06590640  1
  Zn  Zn136  1  0.81372217  0.06985375  0.55860630  1
  Zn  Zn137  1  0.81228469  0.56480322  0.06680089  1
  Zn  Zn138  1  0.69223823  0.56774473  0.57858861  1
  Zn  Zn139  1  0.43732373  0.44102617  0.19004609  1
  Zn  Zn140  1  0.43896956  0.43951596  0.68364697  1
  Zn  Zn141  1  0.43847761  0.93907028  0.19004993  1
  Zn  Zn142  1  0.43823624  0.93412194  0.68675346  1
  Zn  Zn143  1  0.94037368  0.43776361  0.18637103  1
  Zn  Zn144  1  0.93449188  0.44020172  0.68486385  1
  Zn  Zn145  1  0.93954675  0.93802956  0.19422534  1
  Zn  Zn146  1  0.93457946  0.93802643  0.68816470  1
  Zn  Zn147  1  0.06384256  0.06063554  0.31318964  1
  Zn  Zn148  1  0.05913673  0.06197466  0.81306588  1
  Zn  Zn149  1  0.07356585  0.55593754  0.31549696  1
  Zn  Zn150  1  0.06263999  0.56251217  0.80987703  1
  Zn  Zn151  1  0.56477375  0.06196063  0.31408068  1
  Zn  Zn152  1  0.56406598  0.05938530  0.81088523  1
  Zn  Zn153  1  0.56238178  0.55954458  0.30780916  1
  Zn  Zn154  1  0.56682441  0.56741615  0.81081530  1
  Zn  Zn155  1  0.44087304  0.18831174  0.43840891  1
  Zn  Zn156  1  0.43466948  0.18741545  0.93859276  1
  Zn  Zn157  1  0.43535314  0.68907487  0.43949821  1
  Zn  Zn158  1  0.43467558  0.68707887  0.94114172  1
  Zn  Zn159  1  0.93915064  0.18789674  0.43670987  1
  Zn  Zn160  1  0.93666502  0.18761056  0.93351041  1
  Zn  Zn161  1  0.93758956  0.69125521  0.45568632  1
  Zn  Zn162  1  0.93397668  0.69020550  0.93506395  1
  Zn  Zn163  1  0.06143079  0.31108182  0.05828469  1
  Zn  Zn164  1  0.06523645  0.31455742  0.56357053  1
  Zn  Zn165  1  0.06186377  0.80837093  0.06441446  1
  Zn  Zn166  1  0.06111499  0.81506077  0.56360815  1
  Zn  Zn167  1  0.55899754  0.31243821  0.06054697  1
  Zn  Zn168  1  0.56496655  0.31132436  0.56131746  1
  Zn  Zn169  1  0.55849272  0.81390749  0.06308299  1
  Zn  Zn170  1  0.56824130  0.81729906  0.55778938  1
  O  O171  1  0.11947031  0.11764758  0.11432187  1
  O  O172  1  0.12428151  0.11932887  0.61759766  1
  O  O173  1  0.11491805  0.62028649  0.11533652  1
  O  O174  1  0.11155662  0.61727002  0.63500136  1
  O  O175  1  0.61764379  0.11890468  0.12109477  1
  O  O176  1  0.61538793  0.13274594  0.61510499  1
  O  O177  1  0.61531357  0.61701663  0.11583208  1
  O  O178  1  0.62704116  0.63377407  0.63889247  1
  O  O179  1  0.38571980  0.37270231  0.38444096  1
  O  O180  1  0.38108088  0.37999287  0.88142988  1
  O  O181  1  0.39027180  0.87461260  0.37311420  1
  O  O182  1  0.38191786  0.88188560  0.88110488  1
  O  O183  1  0.89537038  0.36143915  0.38634646  1
  O  O184  1  0.88039264  0.37550983  0.88546547  1
  O  O185  1  0.89041591  0.87332354  0.38607472  1
  O  O186  1  0.87024404  0.88684428  0.86718458  1
  O  O187  1  0.25107554  0.00259794  0.37102717  1
  O  O188  1  0.25798406  0.00710036  0.87425348  1
  O  O189  1  0.24269800  0.51699692  0.37999872  1
  O  O190  1  0.25699090  0.50953156  0.87256620  1
  O  O191  1  0.74068099  0.01377646  0.36015477  1
  O  O192  1  0.75472921  0.01063355  0.86766724  1
  O  O193  1  0.76736810  0.46303535  0.36084406  1
  O  O194  1  0.74836579  0.50829498  0.86083814  1
  O  O195  1  0.23302029  0.50860534  0.11946476  1
  O  O196  1  0.24081789  0.50019936  0.62427638  1
  O  O197  1  0.24301459  0.99135672  0.13253953  1
  O  O198  1  0.24511013  0.99356704  0.62367879  1
  O  O199  1  0.74076823  0.49103496  0.12359954  1
  O  O200  1  0.74653227  0.48772298  0.64152622  1
  O  O201  1  0.74107525  1.00531450  0.13970945  1
  O  O202  1  0.74875839  1.01604370  0.63702555  1
  O  O203  1  0.00865975  0.36631922  0.25698245  1
  O  O204  1  0.00293332  0.37264717  0.75529332  1
  O  O205  1  0.01058540  0.88273666  0.26314339  1
  O  O206  1  0.00416769  0.87446303  0.75285459  1
  O  O207  1  0.50736380  0.37626506  0.25896510  1
  O  O208  1  0.50738951  0.37073920  0.75165090  1
  O  O209  1  0.50109537  0.86363007  0.25480283  1
  O  O210  1  0.49600447  0.87534532  0.76618305  1
  O  O211  1  0.49043315  0.11830769  0.24304298  1
  O  O212  1  0.50709629  0.13458433  0.74118811  1
  O  O213  1  0.50300406  0.63696390  0.24128877  1
  O  O214  1  0.48852254  0.62164642  0.74693982  1
  O  O215  1  1.00142661  0.12806199  0.24131313  1
  O  O216  1  0.99158214  0.13535710  0.75198096  1
  O  O217  1  1.01307939  0.62575237  0.24007033  1
  O  O218  1  0.99028560  0.62714286  0.74671270  1
  O  O219  1  0.36721141  0.25906377  0.00116746  1
  O  O220  1  0.37432609  0.25964355  0.50721085  1
  O  O221  1  0.37112986  0.76531148  -0.00246856  1
  O  O222  1  0.36279542  0.74505179  0.51342289  1
  O  O223  1  0.86878117  0.25875398  -0.00101967  1
  O  O224  1  0.88406561  0.25885925  0.50813766  1
  O  O225  1  0.88184167  0.75423218  0.01532822  1
  O  O226  1  0.86059979  0.75954199  0.50330830  1
  O  O227  1  0.13142621  0.24400103  0.49652660  1
  O  O228  1  0.13103446  0.24219843  0.99645087  1
  O  O229  1  0.13116158  0.75535079  0.49155032  1
  O  O230  1  0.12670316  0.74344186  0.98950193  1
  O  O231  1  0.62159731  0.23946810  0.48993761  1
  O  O232  1  0.62903949  0.24628388  0.99268534  1
  O  O233  1  0.64002465  0.74923337  0.49117535  1
  O  O234  1  0.62881719  0.73886577  1.00856516  1
  O  O235  1  0.49680578  0.23548046  0.12014796  1
  O  O236  1  0.49501525  0.24364714  0.63117429  1
  O  O237  1  0.50272690  0.74403729  0.13855207  1
  O  O238  1  0.48457549  0.74381380  0.61031426  1
  O  O239  1  1.00442361  0.24130725  0.13060211  1
  O  O240  1  1.00580155  0.25055891  0.64002366  1
  O  O241  1  0.99092937  0.74240083  0.12872034  1
  O  O242  1  0.99144974  0.74356935  0.62364971  1
  O  O243  1  0.00989988  0.25144863  0.36735262  1
  O  O244  1  0.00269225  0.26355862  0.86847998  1
  O  O245  1  0.00478329  0.75433162  0.37398459  1
  O  O246  1  0.00840308  0.75341311  0.87430824  1
  O  O247  1  0.51061523  0.26314146  0.38076317  1
  O  O248  1  0.50181521  0.25413725  0.86693609  1
  O  O249  1  0.50411194  0.75240974  0.36855740  1
  O  O250  1  0.49697229  0.76049353  0.87765962  1
  O  O251  1  0.24683058  0.13009406  0.49523427  1
  O  O252  1  0.24205460  0.12821143  0.99370619  1
  O  O253  1  0.24572891  0.63593758  0.49267632  1
  O  O254  1  0.24538451  0.62834045  0.98598993  1
  O  O255  1  0.73947736  0.12131020  0.48892303  1
  O  O256  1  0.74175783  0.13180871  0.98520554  1
  O  O257  1  0.75391680  0.62952987  0.49744649  1
  O  O258  1  0.73719168  0.61212807  0.99371274  1
  O  O259  1  0.25857832  0.36613950  -0.00779623  1
  O  O260  1  0.25998550  0.36860738  0.50125670  1
  O  O261  1  0.25602924  0.87533394  0.01131483  1
  O  O262  1  0.24731338  0.86424760  0.51264659  1
  O  O263  1  0.75496964  0.37426345  0.00427207  1
  O  O264  1  0.75915799  0.37517886  0.51488998  1
  O  O265  1  0.74572527  0.88455378  0.00005752  1
  O  O266  1  0.75961686  0.88336394  0.49299283  1
  O  O267  1  0.12575268  0.49798839  0.23092368  1
  O  O268  1  0.12524609  0.49274006  0.73956135  1
  O  O269  1  0.13351816  0.99035249  0.24765017  1
  O  O270  1  0.12608000  1.00431739  0.73657344  1
  O  O271  1  0.62271213  0.48743027  0.23624451  1
  O  O272  1  0.62983956  0.48760207  0.75459516  1
  O  O273  1  0.63159750  1.00040605  0.24180944  1
  O  O274  1  0.63921643  0.99480107  0.75329316  1
  O  O275  1  0.36593205  0.00855802  0.25305364  1
  O  O276  1  0.37344791  -0.00211885  0.76258404  1
  O  O277  1  0.37540878  0.50294019  0.25662217  1
  O  O278  1  0.37369349  0.50674570  0.75365048  1
  O  O279  1  0.86171677  0.00394728  0.24716584  1
  O  O280  1  0.87058417  0.01323856  0.75741083  1
  O  O281  1  0.87601339  0.49431142  0.25478471  1
  O  O282  1  0.86908892  0.51309670  0.74563043  1
  O  O283  1  0.11534246  0.36599062  0.37911814  1
  O  O284  1  0.11764989  0.37635872  0.86397438  1
  O  O285  1  0.11885370  0.86490378  0.37155553  1
  O  O286  1  0.12653875  0.86674584  0.87331980  1
  O  O287  1  0.62073047  0.36831505  0.36617471  1
  O  O288  1  0.61844491  0.36998335  0.86800607  1
  O  O289  1  0.61176026  0.86531398  0.37247120  1
  O  O290  1  0.60009790  0.88492384  0.87803485  1
  O  O291  1  0.38233229  0.12381140  0.13320151  1
  O  O292  1  0.38448478  0.13928179  0.62107765  1
  O  O293  1  0.38751301  0.62414238  0.11384226  1
  O  O294  1  0.37399678  0.63422937  0.63162832  1
  O  O295  1  0.89071276  0.12898445  0.12433804  1
  O  O296  1  0.87709880  0.12607145  0.63928516  1
  O  O297  1  0.88888297  0.63142575  0.12189206  1
  O  O298  1  0.88835286  0.63488281  0.63754503  1
  O  O299  1  0.25178579  0.24275078  0.11013191  1
  O  O300  1  0.25944173  0.25080032  0.62058202  1
  O  O301  1  0.24235214  0.76145828  0.12570367  1
  O  O302  1  0.25139541  0.75420956  0.61894411  1
  O  O303  1  0.75014820  0.25630294  0.11391073  1
  O  O304  1  0.75189511  0.26505221  0.63622863  1
  O  O305  1  0.76886847  0.74491776  0.11901008  1
  O  O306  1  0.76308200  0.74457809  0.60823767  1
  O  O307  1  0.24555220  0.24359326  0.38253219  1
  O  O308  1  0.24923162  0.24086361  0.88543235  1
  O  O309  1  0.24314027  0.74308431  0.38269041  1
  O  O310  1  0.24441156  0.74405544  0.87462484  1
  O  O311  1  0.73734597  0.24907827  0.36845697  1
  O  O312  1  0.74367789  0.24594568  0.87754059  1
  O  O313  1  0.74196061  0.74994732  0.38831306  1
  O  O314  1  0.77606335  0.72690516  0.89759287  1
  O  O315  1  0.00736844  0.11977014  0.00407184  1
  O  O316  1  0.00636553  0.11814589  0.50096708  1
  O  O317  1  0.00279901  0.61777518  0.00301342  1
  O  O318  1  -0.00160702  0.61498927  0.51202434  1
  O  O319  1  0.50343292  0.12064161  0.00677084  1
  O  O320  1  0.50761866  0.12107505  0.50816983  1
  O  O321  1  0.50748038  0.62095189  0.00367271  1
  O  O322  1  0.49655262  0.60707485  0.49753863  1
  O  O323  1  0.49733494  0.38490313  0.49542172  1
  O  O324  1  0.49268558  0.38029063  0.99175294  1
  O  O325  1  0.50485285  0.88505943  0.49281064  1
  O  O326  1  0.49105141  0.88095811  0.99445053  1
  O  O327  1  0.99571732  0.37866414  0.49710416  1
  O  O328  1  0.99257149  0.38008755  0.99221918  1
  O  O329  1  0.99474014  0.88344199  0.49532730  1
  O  O330  1  1.00735946  0.88811039  0.99822949  1
  O  O331  1  0.50467720  0.48917581  0.38606124  1
  O  O332  1  0.49437911  0.49670221  0.87903140  1
  O  O333  1  0.49987528  0.99129606  0.38198139  1
  O  O334  1  0.49006341  1.00382981  0.88363754  1
  O  O335  1  1.00597120  0.49087882  0.38248382  1
  O  O336  1  1.00504924  0.48834045  0.88193895  1
  O  O337  1  1.00861239  0.99289537  0.38971177  1
  O  O338  1  0.98915337  0.99987717  0.88282532  1
  O  O339  1  0.00530533  0.00556272  0.11867871  1
  O  O340  1  0.00811416  0.00323485  0.61589376  1
  O  O341  1  0.00880622  0.50656669  0.11531630  1
  O  O342  1  0.00353137  0.50708055  0.61901678  1
  O  O343  1  0.50469243  0.00970538  0.11912709  1
  O  O344  1  0.49491112  0.01109720  0.62123024  1
  O  O345  1  0.50639994  0.50764261  0.11861340  1
  O  O346  1  0.50006138  0.50073288  0.60675269  1
  O  O347  1  0.24434421  0.38071623  0.25363967  1
  O  O348  1  0.24115377  0.37679425  0.74913987  1
  O  O349  1  0.24548195  0.87866491  0.24695618  1
  O  O350  1  0.24597403  0.87836848  0.73561741  1
  O  O351  1  0.74029864  0.36829599  0.22977517  1
  O  O352  1  0.74421544  0.38086978  0.74510489  1
  O  O353  1  0.74713967  0.89250220  0.25638001  1
  O  O354  1  0.76629361  0.90011408  0.74222615  1
  O  O355  1  0.25400311  0.11668248  0.25605206  1
  O  O356  1  0.24473952  0.12588314  0.76536223  1
  O  O357  1  0.24392085  0.62319010  0.26433951  1
  O  O358  1  0.25815177  0.62343305  0.75938299  1
  O  O359  1  0.75243241  0.12213867  0.25751035  1
  O  O360  1  0.75458525  0.12348546  0.75912980  1
  O  O361  1  0.73631337  0.62001390  0.24518359  1
  O  O362  1  0.76293085  0.61804783  0.75836436  1
  O  O363  1  0.37064915  0.12328456  0.36949211  1
  O  O364  1  0.36450764  0.11535393  0.88234314  1
  O  O365  1  0.35697854  0.62577667  0.38091798  1
  O  O366  1  0.36913286  0.62285226  0.86747647  1
  O  O367  1  0.85986663  0.13292657  0.37557622  1
  O  O368  1  0.86649178  0.11964528  0.86823892  1
  O  O369  1  0.89369999  0.63991102  0.36024218  1
  O  O370  1  0.87685320  0.62130699  0.86095896  1
  O  O371  1  0.11978133  0.39058430  0.11881080  1
  O  O372  1  0.12675199  0.38220336  0.63633575  1
  O  O373  1  0.12906064  0.87824551  0.13473196  1
  O  O374  1  0.13210309  0.88457217  0.62530606  1
  O  O375  1  0.62805776  0.37931176  0.12717341  1
  O  O376  1  0.63669775  0.37009521  0.63219335  1
  O  O377  1  0.61671527  0.89085609  0.12667247  1
  O  O378  1  0.62585686  0.83715848  0.64682450  1
  O  O379  1  0.11731957  0.24761767  0.25518273  1
  O  O380  1  0.11815546  0.25967201  0.75361653  1
  O  O381  1  0.12633130  0.76190916  0.25916793  1
  O  O382  1  0.12254159  0.74934541  0.76277173  1
  O  O383  1  0.62392655  0.25977639  0.25400335  1
  O  O384  1  0.61424567  0.25968479  0.75418412  1
  O  O385  1  0.61748351  0.75385814  0.25772945  1
  O  O386  1  0.67934511  0.77141990  0.78420675  1
  O  O387  1  0.36811244  0.23468814  0.24872786  1
  O  O388  1  0.38798614  0.25730559  0.74283953  1
  O  O389  1  0.38867263  0.75007189  0.25340083  1
  O  O390  1  0.36994897  0.74185962  0.73365712  1
  O  O391  1  0.89237076  0.24855727  0.24633313  1
  O  O392  1  0.88446369  0.24257204  0.75888767  1
  O  O393  1  0.87674231  0.74874832  0.24054555  1
  O  O394  1  0.87207743  0.74112104  0.74271800  1
  O  O395  1  0.37721103  0.48886793  0.49503228  1
  O  O396  1  0.37927998  0.49342230  0.99148240  1
  O  O397  1  0.39189289  1.00710721  0.49825923  1
  O  O398  1  0.37823036  0.99042469  0.99298510  1
  O  O399  1  0.89030748  0.48772793  0.48874607  1
  O  O400  1  0.88720746  0.49368388  1.00517045  1
  O  O401  1  0.88516735  0.99496562  0.50653833  1
  O  O402  1  0.88375752  1.00171313  0.99069123  1
  O  O403  1  0.11911155  0.00677320  0.00442941  1
  O  O404  1  0.12031439  0.00460574  0.50990236  1
  O  O405  1  0.11560152  0.50491714  0.00482229  1
  O  O406  1  0.11380974  0.49048092  0.51492777  1
  O  O407  1  0.61677639  0.01050612  0.00749889  1
  O  O408  1  0.61264657  0.01394617  0.49479894  1
  O  O409  1  0.61712950  0.50164596  0.01009471  1
  O  O410  1  0.62251266  0.50130300  0.50127452  1
  O  O411  1  0.38304509  0.37405729  0.11019419  1
  O  O412  1  0.37623051  0.36541906  0.61714297  1
  O  O413  1  0.36501442  0.88212448  0.11807766  1
  O  O414  1  0.36883661  0.86057785  0.62822847  1
  O  O415  1  0.86783442  0.37258303  0.11209295  1
  O  O416  1  0.86343651  0.37828400  0.61976795  1
  O  O417  1  0.87961289  0.86686570  0.12643962  1
  O  O418  1  0.88140062  0.86464168  0.61333955  1
  O  O419  1  0.13229449  0.12924204  0.38191089  1
  O  O420  1  0.12995049  0.12349698  0.88621305  1
  O  O421  1  0.13126992  0.63874939  0.37288578  1
  O  O422  1  0.13256032  0.62976098  0.87748225  1
  O  O423  1  0.63036397  0.13432373  0.38008540  1
  O  O424  1  0.63091553  0.13192872  0.87749659  1
  O  O425  1  0.61863923  0.63600919  0.37258053  1
  O  O426  1  0.63456684  0.62261728  0.88491828  1
