# generated using pymatgen
data_V85Zn86O256
_symmetry_space_group_name_H-M   'P 1'
_cell_length_a   16.96275485
_cell_length_b   16.95638363
_cell_length_c   16.95693751
_cell_angle_alpha   89.90617245
_cell_angle_beta   90.00503973
_cell_angle_gamma   90.03348100
_symmetry_Int_Tables_number   1
_chemical_formula_structural   V85Zn86O256
_chemical_formula_sum   'V85 Zn86 O256'
_cell_volume   4877.26531066
_cell_formula_units_Z   1
loop_
 _symmetry_equiv_pos_site_id
 _symmetry_equiv_pos_as_xyz
  1  'x, y, z'
loop_
 _atom_site_type_symbol
 _atom_site_label
 _atom_site_symmetry_multiplicity
 _atom_site_fract_x
 _atom_site_fract_y
 _atom_site_fract_z
 _atom_site_occupancy
  V  V0  1  0.75095228  0.75099921  0.50008142  1
  V  V1  1  0.49944696  0.25139245  0.74974816  1
  V  V2  1  0.37761792  -0.00603578  0.88614121  1
  V  V3  1  0.12079066  0.50476484  0.12298223  1
  V  V4  1  -0.00667787  0.38016131  0.87636433  1
  V  V5  1  0.37459328  0.36927507  0.00180924  1
  V  V6  1  0.50102326  0.37458481  0.87663851  1
  V  V7  1  0.87988689  0.74248421  0.62694632  1
  V  V8  1  0.26267897  0.74348836  -0.00516682  1
  V  V9  1  0.86777268  -0.00733321  0.87971610  1
  V  V10  1  0.87496031  0.25150224  0.12548899  1
  V  V11  1  -0.00288609  0.24545941  0.75353177  1
  V  V12  1  -0.00711845  -0.00517756  0.00067231  1
  V  V13  1  0.12974074  -0.01006214  0.12780837  1
  V  V14  1  0.76269575  0.62209774  0.87462965  1
  V  V15  1  0.00245555  0.24791313  0.25709632  1
  V  V16  1  0.87236487  0.38174943  -0.00173053  1
  V  V17  1  0.12426906  0.37495258  0.25326126  1
  V  V18  1  0.49770267  0.49819000  0.49945981  1
  V  V19  1  0.75085917  0.87372798  0.11342637  1
  V  V20  1  0.74683715  0.37081778  0.62145162  1
  V  V21  1  0.62841475  0.01337250  0.12001572  1
  V  V22  1  -0.00339935  0.73659463  0.75156400  1
  V  V23  1  0.11569776  0.49246624  0.61585918  1
  V  V24  1  0.24728132  0.24900822  0.48712683  1
  V  V25  1  0.00400101  0.37606583  0.38139980  1
  V  V26  1  0.37242283  0.62963120  0.74810089  1
  V  V27  1  0.37494918  0.12514203  0.75226003  1
  V  V28  1  0.24655598  0.50257304  0.75353637  1
  V  V29  1  0.62153206  0.87018153  0.74675668  1
  V  V30  1  0.00060757  0.75907462  0.24524324  1
  V  V31  1  0.37548621  0.25014660  0.62213104  1
  V  V32  1  0.12390527  0.12263004  0.00157318  1
  V  V33  1  0.86885397  0.75353068  0.11195011  1
  V  V34  1  0.49278265  0.63245136  0.62163901  1
  V  V35  1  0.05247813  0.83605811  0.41393160  1
  V  V36  1  0.75084587  0.87332792  0.62573776  1
  V  V37  1  0.23648905  0.64092452  0.37441564  1
  V  V38  1  0.74227506  0.37779087  0.13230195  1
  V  V39  1  0.76343651  0.50195553  0.75239893  1
  V  V40  1  0.61911147  0.75675023  0.37273940  1
  V  V41  1  0.12488703  0.37009197  0.75445876  1
  V  V42  1  0.88042337  0.50223548  0.38097308  1
  V  V43  1  0.87006993  0.24819104  0.62270246  1
  V  V44  1  0.30874819  0.06791785  0.30163053  1
  V  V45  1  0.49869571  0.64532632  0.12977920  1
  V  V46  1  0.12278548  0.24780309  0.87831363  1
  V  V47  1  0.48915079  0.00824086  0.49469353  1
  V  V48  1  0.27290627  0.86665039  0.12104280  1
  V  V49  1  0.62338805  0.62766788  0.50060933  1
  V  V50  1  0.37223089  0.50612001  0.37050382  1
  V  V51  1  0.74578256  0.24665286  0.00200391  1
  V  V52  1  0.00244326  0.00386291  0.49811787  1
  V  V53  1  0.87742361  0.12465366  0.25185655  1
  V  V54  1  0.25344112  -0.00603496  0.74887214  1
  V  V55  1  0.12392195  0.87662072  0.75666209  1
  V  V56  1  0.74717647  -0.00370114  0.75292257  1
  V  V57  1  0.50167566  0.50121130  0.00565094  1
  V  V58  1  0.25166804  0.37245545  0.62672676  1
  V  V59  1  0.25066917  0.12312193  0.87837119  1
  V  V60  1  0.61705733  0.87473861  0.25094660  1
  V  V61  1  -0.00126515  0.12414018  0.62744222  1
  V  V62  1  0.62277124  0.49988318  0.62835635  1
  V  V63  1  0.75161303  -0.00272404  0.25329065  1
  V  V64  1  0.74492960  0.12143036  0.87999907  1
  V  V65  1  0.24908797  0.37722123  0.12446023  1
  V  V66  1  0.62198261  0.24354801  0.87890140  1
  V  V67  1  0.62513612  0.74237273  0.87073686  1
  V  V68  1  0.87452403  0.87403794  0.49476297  1
  V  V69  1  0.75064619  0.62634522  0.37633103  1
  V  V70  1  0.87158587  0.12173222  0.75254697  1
  V  V71  1  0.62899773  0.62710317  -0.00055968  1
  V  V72  1  0.37021625  0.85493842  0.52226621  1
  V  V73  1  0.88072672  -0.00021619  0.37535295  1
  V  V74  1  0.37112427  0.50441489  0.87665295  1
  V  V75  1  0.12799501  0.13080448  0.48930007  1
  V  V76  1  0.50346230  0.37363937  0.35950518  1
  V  V77  1  0.74995410  0.12859174  0.38616042  1
  V  V78  1  -0.00737778  0.87138042  0.87748139  1
  V  V79  1  0.87421407  0.37350023  0.50057496  1
  V  V80  1  0.87452193  0.62683523  0.24936409  1
  V  V81  1  0.49454831  0.13449915  0.12704019  1
  V  V82  1  0.00014311  0.12495566  0.12695121  1
  V  V83  1  0.13047919  0.00110875  0.62420326  1
  V  V84  1  0.63259811  0.26014666  0.37292027  1
  Zn  Zn85  1  0.24926040  0.50522064  0.24967450  1
  Zn  Zn86  1  0.13750074  0.65515425  0.51718917  1
  Zn  Zn87  1  0.62598015  0.37523293  0.75218188  1
  Zn  Zn88  1  0.12826379  0.62196336  -0.01276895  1
  Zn  Zn89  1  0.37181219  0.64296085  0.23943047  1
  Zn  Zn90  1  0.61976182  0.50077660  0.13772352  1
  Zn  Zn91  1  0.12952800  0.73920718  0.87653081  1
  Zn  Zn92  1  0.62281065  0.00329052  0.62206660  1
  Zn  Zn93  1  -0.00539304  0.60916231  0.61723309  1
  Zn  Zn94  1  0.50426646  0.00283269  0.00084906  1
  Zn  Zn95  1  0.49251101  0.75298998  0.74486971  1
  Zn  Zn96  1  0.12990890  0.86713141  0.24527605  1
  Zn  Zn97  1  0.50302053  0.12404344  0.62416814  1
  Zn  Zn98  1  0.47163790  0.88439761  0.37073462  1
  Zn  Zn99  1  0.62178592  0.12749685  0.50110642  1
  Zn  Zn100  1  0.36618357  0.24345824  0.14233298  1
  Zn  Zn101  1  0.74799820  0.49429214  0.25711985  1
  Zn  Zn102  1  -0.00255859  0.50383970  -0.00334265  1
  Zn  Zn103  1  0.49525961  0.86697226  0.87943476  1
  Zn  Zn104  1  0.37675070  0.37483561  0.49832195  1
  Zn  Zn105  1  0.25016002  0.24882891  0.00150669  1
  Zn  Zn106  1  -0.00135614  0.62502656  0.12179506  1
  Zn  Zn107  1  0.18315727  0.19134548  0.18648960  1
  Zn  Zn108  1  0.18849145  0.18357047  0.68840247  1
  Zn  Zn109  1  0.19165451  0.68999790  0.18461760  1
  Zn  Zn110  1  0.18398051  0.68273245  0.69628895  1
  Zn  Zn111  1  0.68780322  0.18986035  0.19692346  1
  Zn  Zn112  1  0.68453016  0.18682882  0.68936889  1
  Zn  Zn113  1  0.68626716  0.68699245  0.18875682  1
  Zn  Zn114  1  0.68915462  0.68442924  0.68784717  1
  Zn  Zn115  1  0.31291237  0.32008269  0.31334643  1
  Zn  Zn116  1  0.31252879  0.31273734  0.81545286  1
  Zn  Zn117  1  0.31120237  0.81591034  0.30406609  1
  Zn  Zn118  1  0.31154538  0.81399260  0.81502170  1
  Zn  Zn119  1  0.81449807  0.31045588  0.31467782  1
  Zn  Zn120  1  0.80924062  0.31226471  0.81173805  1
  Zn  Zn121  1  0.81156669  0.81221776  0.31037121  1
  Zn  Zn122  1  0.81154557  0.80701532  0.81359334  1
  Zn  Zn123  1  0.19034102  0.43443031  0.43784372  1
  Zn  Zn124  1  0.18599832  0.43910180  0.93803568  1
  Zn  Zn125  1  0.26259413  0.93509423  0.42261750  1
  Zn  Zn126  1  0.18924347  0.93102460  0.94283201  1
  Zn  Zn127  1  0.68859669  0.43934158  0.43968421  1
  Zn  Zn128  1  0.68614428  0.43764078  0.93851419  1
  Zn  Zn129  1  0.68379556  0.94291741  0.43901357  1
  Zn  Zn130  1  0.66587712  0.92971100  0.94195329  1
  Zn  Zn131  1  0.31064716  0.06078311  0.07027240  1
  Zn  Zn132  1  0.31367099  0.06654034  0.56114637  1
  Zn  Zn133  1  0.31508500  0.56445949  0.06391046  1
  Zn  Zn134  1  0.30918989  0.56613962  0.55775156  1
  Zn  Zn135  1  0.81147495  0.06272272  0.06386842  1
  Zn  Zn136  1  0.81162216  0.05826828  0.56571157  1
  Zn  Zn137  1  0.81252017  0.56297548  0.06186033  1
  Zn  Zn138  1  0.81200243  0.55895864  0.56124906  1
  Zn  Zn139  1  0.43432249  0.43736180  0.18812067  1
  Zn  Zn140  1  0.43649481  0.43889256  0.68928345  1
  Zn  Zn141  1  0.44113241  0.94674777  0.18916185  1
  Zn  Zn142  1  0.43905894  0.93832489  0.68474442  1
  Zn  Zn143  1  0.93494492  0.43813793  0.18937061  1
  Zn  Zn144  1  0.93641536  0.43032172  0.69055497  1
  Zn  Zn145  1  0.93644507  0.93506610  0.18375673  1
  Zn  Zn146  1  0.93752925  0.93285543  0.68687668  1
  Zn  Zn147  1  0.11287204  0.02267194  0.34118365  1
  Zn  Zn148  1  0.06064132  0.05841297  0.81611555  1
  Zn  Zn149  1  0.05954170  0.56276880  0.30887393  1
  Zn  Zn150  1  0.06208504  0.55990634  0.81109566  1
  Zn  Zn151  1  0.56476109  0.06147172  0.31442994  1
  Zn  Zn152  1  0.56112643  0.06238047  0.80886582  1
  Zn  Zn153  1  0.56380346  0.56461724  0.31121602  1
  Zn  Zn154  1  0.55973711  0.56179072  0.81096003  1
  Zn  Zn155  1  0.44418564  0.19300067  0.30694709  1
  Zn  Zn156  1  0.44113967  0.18120899  0.94491316  1
  Zn  Zn157  1  0.41181251  0.71668494  0.39928271  1
  Zn  Zn158  1  0.44022813  0.68479358  0.93693048  1
  Zn  Zn159  1  0.93826384  0.18941542  0.43851598  1
  Zn  Zn160  1  0.93307459  0.18665881  0.93950410  1
  Zn  Zn161  1  0.94826829  0.68196464  0.44243679  1
  Zn  Zn162  1  0.94164152  0.68416021  0.93944744  1
  Zn  Zn163  1  0.06148282  0.31445913  0.06402258  1
  Zn  Zn164  1  0.06140728  0.31105765  0.56376638  1
  Zn  Zn165  1  0.06269651  0.80438571  0.05581475  1
  Zn  Zn166  1  0.09303341  0.79697111  0.58834733  1
  Zn  Zn167  1  0.56370076  0.31101046  0.06226761  1
  Zn  Zn168  1  0.56365788  0.30946624  0.55573565  1
  Zn  Zn169  1  0.56993933  0.81734067  0.05711284  1
  Zn  Zn170  1  0.55582627  0.81791795  0.55598209  1
  O  O171  1  0.12078303  0.11664554  0.11482467  1
  O  O172  1  0.11536398  0.11591898  0.62708588  1
  O  O173  1  0.12525170  0.60999043  0.13021201  1
  O  O174  1  0.12219351  0.59364972  0.63707019  1
  O  O175  1  0.62392991  0.11617544  0.13423301  1
  O  O176  1  0.62309932  0.12409360  0.62085544  1
  O  O177  1  0.61908318  0.62554854  0.11491985  1
  O  O178  1  0.61930337  0.61646148  0.62037328  1
  O  O179  1  0.39069968  0.38703425  0.37746533  1
  O  O180  1  0.38090109  0.38270434  0.88253975  1
  O  O181  1  0.35853046  0.87812023  0.39019397  1
  O  O182  1  0.37902510  0.89006583  0.87113631  1
  O  O183  1  0.87908490  0.38116244  0.38268275  1
  O  O184  1  0.88177015  0.36430676  0.88496409  1
  O  O185  1  0.86790779  0.88253526  0.38736600  1
  O  O186  1  0.87905938  0.88168174  0.87186405  1
  O  O187  1  0.23224937  0.01908379  0.36008254  1
  O  O188  1  0.26016075  0.00220419  0.87186744  1
  O  O189  1  0.26583111  0.48925492  0.37093928  1
  O  O190  1  0.25979632  0.49103245  0.86556490  1
  O  O191  1  0.75844658  0.00750661  0.36947660  1
  O  O192  1  0.74923759  0.00081918  0.87385955  1
  O  O193  1  0.76270110  0.50708977  0.37885412  1
  O  O194  1  0.74478515  0.50543088  0.86019005  1
  O  O195  1  0.24361701  0.49142318  0.12646865  1
  O  O196  1  0.24392026  0.48675014  0.63187696  1
  O  O197  1  0.23625706  0.98334118  0.11306873  1
  O  O198  1  0.24054566  1.01071325  0.63760349  1
  O  O199  1  0.75115340  0.48395752  0.12325672  1
  O  O200  1  0.74319883  0.49546226  0.63474786  1
  O  O201  1  0.74564998  0.99753579  0.13464266  1
  O  O202  1  0.74826090  0.98990281  0.63382109  1
  O  O203  1  0.00304283  0.36872256  0.25904007  1
  O  O204  1  0.00206962  0.36354151  0.75913542  1
  O  O205  1  -0.00149216  0.86291009  0.24817676  1
  O  O206  1  0.00442817  0.87371641  0.76244562  1
  O  O207  1  0.50843673  0.38913170  0.26223867  1
  O  O208  1  0.49962703  0.36799200  0.75868748  1
  O  O209  1  0.51418061  0.88557067  0.25648950  1
  O  O210  1  0.50944321  0.87207616  0.75487928  1
  O  O211  1  0.50366731  0.12050475  0.23568886  1
  O  O212  1  0.49270502  0.13523202  0.74856622  1
  O  O213  1  0.50543387  0.62670662  0.23057000  1
  O  O214  1  0.48907861  0.62184394  0.73922063  1
  O  O215  1  0.99468765  0.13561334  0.24284657  1
  O  O216  1  0.99195855  0.12570240  0.74783819  1
  O  O217  1  0.98747691  0.63454674  0.24805618  1
  O  O218  1  0.99964471  0.63451803  0.74283880  1
  O  O219  1  0.37479185  0.26261957  -0.00035592  1
  O  O220  1  0.36311084  0.25355675  0.51733631  1
  O  O221  1  0.36330450  0.74772294  -0.00871813  1
  O  O222  1  0.37920224  0.75585918  0.50164893  1
  O  O223  1  0.86727639  0.25723079  0.00714694  1
  O  O224  1  0.87786763  0.26297280  0.50718316  1
  O  O225  1  0.87395248  0.74552506  0.01391470  1
  O  O226  1  0.87221625  0.75837634  0.50380289  1
  O  O227  1  0.13540077  0.24161990  0.51132160  1
  O  O228  1  0.12283959  0.23916413  0.99665133  1
  O  O229  1  0.11300452  0.78325431  0.47053303  1
  O  O230  1  0.13564668  0.74394295  0.99715228  1
  O  O231  1  0.62010165  0.24496329  0.48104713  1
  O  O232  1  0.63408964  0.25256794  0.99111626  1
  O  O233  1  0.63417775  0.74899834  0.49638600  1
  O  O234  1  0.62599651  0.73475229  0.98771739  1
  O  O235  1  0.50250301  0.23669885  0.12298632  1
  O  O236  1  0.49115837  0.25327555  0.63124977  1
  O  O237  1  0.50554752  0.74384398  0.11798872  1
  O  O238  1  0.50673405  0.73411260  0.62425025  1
  O  O239  1  0.99498190  0.24632648  0.13345240  1
  O  O240  1  0.99116777  0.24473120  0.63383096  1
  O  O241  1  0.98553517  0.74991172  0.13013032  1
  O  O242  1  0.99319648  0.75777140  0.63825072  1
  O  O243  1  -0.00592504  0.25874721  0.36331345  1
  O  O244  1  0.00400030  0.25244157  0.87163611  1
  O  O245  1  -0.00415646  0.76192173  0.36429938  1
  O  O246  1  -0.00392888  0.75730174  0.86765130  1
  O  O247  1  0.50912161  0.26907889  0.37261008  1
  O  O248  1  0.50549295  0.25212907  0.87273908  1
  O  O249  1  0.51921823  0.76573743  0.38686838  1
  O  O250  1  0.51228012  0.74756384  0.86946537  1
  O  O251  1  0.23953518  0.13708142  0.50755077  1
  O  O252  1  0.24061876  0.12485203  0.99761311  1
  O  O253  1  0.24179081  0.61471559  0.48016226  1
  O  O254  1  0.24952822  0.63853265  1.00724108  1
  O  O255  1  0.75306344  0.11938782  0.48834596  1
  O  O256  1  0.75716877  0.13952921  0.99572442  1
  O  O257  1  0.74371519  0.62958542  0.49610017  1
  O  O258  1  0.74268230  0.61254030  0.98345308  1
  O  O259  1  0.25783783  0.37485834  0.00625263  1
  O  O260  1  0.25183723  0.36643637  0.51159618  1
  O  O261  1  0.24760768  0.86344123  0.01408843  1
  O  O262  1  0.26992039  0.88194314  0.51895094  1
  O  O263  1  0.75533271  0.36610107  0.00565969  1
  O  O264  1  0.75769349  0.38002573  0.51393543  1
  O  O265  1  0.74291686  0.87948338  0.01451991  1
  O  O266  1  0.75720731  0.87295069  0.50766686  1
  O  O267  1  0.12306981  0.48842034  0.24217225  1
  O  O268  1  0.13202371  0.48572247  0.74770919  1
  O  O269  1  0.11644492  1.00011305  0.22755237  1
  O  O270  1  0.13316460  0.99755485  0.74876397  1
  O  O271  1  0.63780804  0.51047351  0.24893810  1
  O  O272  1  0.62728126  0.49736105  0.73802827  1
  O  O273  1  0.63668314  0.99502766  0.24536233  1
  O  O274  1  0.63139042  0.98885730  0.75032146  1
  O  O275  1  0.36587183  -0.00117669  0.25480055  1
  O  O276  1  0.36818061  0.00522357  0.75592406  1
  O  O277  1  0.37638585  0.50634778  0.26227232  1
  O  O278  1  0.36693405  0.50410457  0.75786706  1
  O  O279  1  0.87249541  0.00393378  0.25511150  1
  O  O280  1  0.86626642  0.00240319  0.75661061  1
  O  O281  1  0.87009100  0.50921962  0.25842950  1
  O  O282  1  0.86186731  0.49841525  0.74556477  1
  O  O283  1  0.11473666  0.38147581  0.36657780  1
  O  O284  1  0.11621676  0.36686186  0.87312990  1
  O  O285  1  0.11697274  0.89712146  0.36090445  1
  O  O286  1  0.11492223  0.88065189  0.86627823  1
  O  O287  1  0.61849402  0.37016890  0.38012670  1
  O  O288  1  0.61870048  0.36474809  0.87525916  1
  O  O289  1  0.64071334  0.86900684  0.36273239  1
  O  O290  1  0.63835680  0.85736080  0.85661519  1
  O  O291  1  0.38803148  0.12823975  0.12122724  1
  O  O292  1  0.37458430  0.13561444  0.63572744  1
  O  O293  1  0.39390446  0.62424053  0.12453201  1
  O  O294  1  0.38205917  0.61478076  0.63365405  1
  O  O295  1  0.87999296  0.13110914  0.13116846  1
  O  O296  1  0.87810105  0.12868054  0.63114116  1
  O  O297  1  0.87086762  0.63535028  0.13275450  1
  O  O298  1  0.87763424  0.63797793  0.61582149  1
  O  O299  1  0.24890328  0.26461088  0.12059731  1
  O  O300  1  0.25577278  0.26084082  0.63195008  1
  O  O301  1  0.25465888  0.75919225  0.11426441  1
  O  O302  1  0.18256624  0.73013723  0.59700574  1
  O  O303  1  0.75192012  0.25759789  0.12003869  1
  O  O304  1  0.75664129  0.26140923  0.63470921  1
  O  O305  1  0.76083760  0.75877042  0.12993133  1
  O  O306  1  0.75952348  0.75410590  0.62110237  1
  O  O307  1  0.24905207  0.26210439  0.38880685  1
  O  O308  1  0.24142402  0.24278320  0.87807763  1
  O  O309  1  0.24142989  0.73927594  0.37157034  1
  O  O310  1  0.24628679  0.76034897  0.89075612  1
  O  O311  1  0.74365304  0.24415301  0.37556851  1
  O  O312  1  0.74137417  0.24533062  0.88206345  1
  O  O313  1  0.74766190  0.74413507  0.38290040  1
  O  O314  1  0.74173866  0.72906841  0.86471966  1
  O  O315  1  0.00483579  0.11708272  0.00488227  1
  O  O316  1  0.00376485  0.12199999  0.50980110  1
  O  O317  1  0.00533321  0.62013364  0.00486856  1
  O  O318  1  0.02337026  0.63909742  0.51050397  1
  O  O319  1  0.50406512  0.11930511  0.01810549  1
  O  O320  1  0.49781708  0.11089274  0.50284636  1
  O  O321  1  0.50779892  0.61804501  0.00766757  1
  O  O322  1  0.50706728  0.61106377  0.50764500  1
  O  O323  1  0.50124837  0.38844337  0.49412041  1
  O  O324  1  0.49356295  0.38106046  0.99717460  1
  O  O325  1  0.48458844  0.88499106  0.49851381  1
  O  O326  1  0.54328974  0.89501166  0.98012773  1
  O  O327  1  0.99447860  0.36835180  0.48744280  1
  O  O328  1  0.98996811  0.37278288  0.99234570  1
  O  O329  1  0.99478770  0.88403093  0.49182974  1
  O  O330  1  1.00238304  0.88090115  0.98640503  1
  O  O331  1  0.49305474  0.49916915  0.38160701  1
  O  O332  1  0.49468431  0.49435027  0.88542234  1
  O  O333  1  0.50453479  0.99718411  0.38980497  1
  O  O334  1  0.48460293  1.00581891  0.87465898  1
  O  O335  1  0.98765106  0.49115361  0.36942583  1
  O  O336  1  0.99856397  0.48303492  0.87191641  1
  O  O337  1  0.99748488  1.00822749  0.39131289  1
  O  O338  1  0.98949851  0.99326264  0.88241801  1
  O  O339  1  0.00354319  0.00419112  0.11590319  1
  O  O340  1  0.00181081  0.00498963  0.61663102  1
  O  O341  1  0.00685135  0.49967491  0.12406225  1
  O  O342  1  0.01078355  0.48889743  0.62818309  1
  O  O343  1  0.51618967  0.00697991  0.12388559  1
  O  O344  1  0.50313157  0.00233981  0.61583042  1
  O  O345  1  0.50156227  0.49848959  0.11284015  1
  O  O346  1  0.50678265  0.50290774  0.61961311  1
  O  O347  1  0.23916613  0.37881767  0.24172907  1
  O  O348  1  0.24659902  0.38162602  0.74604703  1
  O  O349  1  0.24464240  0.86650297  0.22603149  1
  O  O350  1  0.24116925  0.88626795  0.75497232  1
  O  O351  1  0.75755733  0.37303249  0.23479623  1
  O  O352  1  0.74831823  0.38591527  0.74236985  1
  O  O353  1  0.75031151  0.88797123  0.24300410  1
  O  O354  1  0.74659790  0.87689908  0.74192210  1
  O  O355  1  0.25880310  0.12515921  0.23377630  1
  O  O356  1  0.25399035  0.11506562  0.75988965  1
  O  O357  1  0.25420582  0.62366208  0.25885601  1
  O  O358  1  0.25642776  0.60984576  0.74590250  1
  O  O359  1  0.75847021  0.11486710  0.25785243  1
  O  O360  1  0.75329941  0.11687426  0.75889901  1
  O  O361  1  0.76338363  0.63099613  0.25922817  1
  O  O362  1  0.74711898  0.61001001  0.75822246  1
  O  O363  1  0.36744914  0.12510598  0.36071614  1
  O  O364  1  0.36910679  0.11840328  0.87190426  1
  O  O365  1  0.36126088  0.60991114  0.38030493  1
  O  O366  1  0.38227272  0.60957749  0.86694363  1
  O  O367  1  0.87070683  0.12067921  0.37095843  1
  O  O368  1  0.86665346  0.11487729  0.87174888  1
  O  O369  1  0.87506106  0.61850130  0.37302704  1
  O  O370  1  0.86113482  0.62593091  0.87750644  1
  O  O371  1  0.13004386  0.38352934  0.12975074  1
  O  O372  1  0.13089476  0.37588001  0.63496028  1
  O  O373  1  0.11509042  0.88618186  0.12226061  1
  O  O374  1  0.11460347  0.89527584  0.64378376  1
  O  O375  1  0.63972684  0.37637120  0.11971712  1
  O  O376  1  0.63189392  0.38049558  0.62488085  1
  O  O377  1  0.63352693  0.88575240  0.13463094  1
  O  O378  1  0.63106311  0.87034046  0.63472990  1
  O  O379  1  0.11478607  0.26417762  0.24362078  1
  O  O380  1  0.11845209  0.25059665  0.75773642  1
  O  O381  1  0.10513852  0.74885722  0.23897461  1
  O  O382  1  0.11454310  0.76101054  0.75660036  1
  O  O383  1  0.62646698  0.24861635  0.27150751  1
  O  O384  1  0.61671910  0.25372900  0.75931573  1
  O  O385  1  0.63322143  0.76255832  0.25907546  1
  O  O386  1  0.62162937  0.75178453  0.75296896  1
  O  O387  1  0.38565750  0.26933953  0.24869258  1
  O  O388  1  0.37991912  0.24683895  0.74493662  1
  O  O389  1  0.39275474  0.74183648  0.28848727  1
  O  O390  1  0.37181733  0.73367826  0.75726008  1
  O  O391  1  0.88223077  0.24585937  0.24461880  1
  O  O392  1  0.87746904  0.24138652  0.74586672  1
  O  O393  1  0.88278941  0.74526203  0.24462340  1
  O  O394  1  0.88403203  0.75586703  0.73839631  1
  O  O395  1  0.38273238  0.49753068  0.49174319  1
  O  O396  1  0.38039514  0.49259292  0.99366761  1
  O  O397  1  0.38518223  0.99735619  0.50740980  1
  O  O398  1  0.37570387  1.00305519  0.98791586  1
  O  O399  1  0.87585443  0.48714422  0.49483952  1
  O  O400  1  0.87567852  0.48524826  1.00259054  1
  O  O401  1  0.88339939  0.99264320  0.49867798  1
  O  O402  1  0.88560989  1.00336910  0.99653903  1
  O  O403  1  0.11351320  0.00484479  0.00493940  1
  O  O404  1  0.11732333  0.01119268  0.51182294  1
  O  O405  1  0.12091942  0.49896264  0.00919349  1
  O  O406  1  0.12625636  0.48726642  0.51670510  1
  O  O407  1  0.64055515  0.01370461  0.01970766  1
  O  O408  1  0.61318709  0.00145706  0.50343497  1
  O  O409  1  0.61682318  0.50896563  0.00065939  1
  O  O410  1  0.62094881  0.50498276  0.51101383  1
  O  O411  1  0.36574508  0.37818672  0.11629231  1
  O  O412  1  0.36719626  0.36991627  0.62594559  1
  O  O413  1  0.37074149  0.88060415  0.12343410  1
  O  O414  1  0.38355141  0.86129630  0.62286716  1
  O  O415  1  0.86700128  0.36882943  0.11804095  1
  O  O416  1  0.86815028  0.36956861  0.61876368  1
  O  O417  1  0.86647065  0.86252230  0.12576445  1
  O  O418  1  0.87134386  0.86801320  0.61324561  1
  O  O419  1  0.11372539  0.12915430  0.39115937  1
  O  O420  1  0.12779479  0.12502440  0.88665058  1
  O  O421  1  0.13681106  0.61898414  0.36942964  1
  O  O422  1  0.12664909  0.62467223  0.87146949  1
  O  O423  1  0.63636832  0.13239693  0.37671563  1
  O  O424  1  0.62907190  0.13564699  0.87103600  1
  O  O425  1  0.62889851  0.63637537  0.38234264  1
  O  O426  1  0.62979456  0.62650810  0.87853502  1
