# generated using pymatgen
data_V85Zn86O256
_symmetry_space_group_name_H-M   'P 1'
_cell_length_a   16.92863994
_cell_length_b   16.92460811
_cell_length_c   16.92276209
_cell_angle_alpha   90.01449210
_cell_angle_beta   90.02371825
_cell_angle_gamma   89.99119824
_symmetry_Int_Tables_number   1
_chemical_formula_structural   V85Zn86O256
_chemical_formula_sum   'V85 Zn86 O256'
_cell_volume   4848.55003546
_cell_formula_units_Z   1
loop_
 _symmetry_equiv_pos_site_id
 _symmetry_equiv_pos_as_xyz
  1  'x, y, z'
loop_
 _atom_site_type_symbol
 _atom_site_label
 _atom_site_symmetry_multiplicity
 _atom_site_fract_x
 _atom_site_fract_y
 _atom_site_fract_z
 _atom_site_occupancy
  V  V0  1  0.25708741  0.62321276  0.37466008  1
  V  V1  1  0.37447160  0.38416284  -0.01449534  1
  V  V2  1  0.87394587  0.50521676  0.87719798  1
  V  V3  1  0.37711183  0.87302044  0.50129609  1
  V  V4  1  0.75074446  0.24510616  0.49513163  1
  V  V5  1  0.86665662  0.00473164  0.37554101  1
  V  V6  1  0.12462400  0.24924081  0.37651142  1
  V  V7  1  -0.00045802  0.37150805  0.87626609  1
  V  V8  1  0.50165838  0.12472775  0.62183340  1
  V  V9  1  0.86820405  0.12765836  0.25187376  1
  V  V10  1  0.25452973  0.87442953  0.62824850  1
  V  V11  1  0.12313552  0.50238073  0.62482920  1
  V  V12  1  0.25471623  0.37688857  0.62749443  1
  V  V13  1  0.87480354  0.37561038  0.49988623  1
  V  V14  1  0.63330510  0.14484441  -0.00390504  1
  V  V15  1  0.87357675  0.50060698  0.37139540  1
  V  V16  1  0.12842839  0.89126508  0.23836078  1
  V  V17  1  0.37578128  0.12350573  0.74890697  1
  V  V18  1  0.49438974  0.50111030  0.49792300  1
  V  V19  1  0.75163695  0.50802856  0.75033250  1
  V  V20  1  0.86938392  0.75823251  0.12468344  1
  V  V21  1  0.75052412  0.87876949  0.62986395  1
  V  V22  1  0.62833578  0.74047795  0.87662128  1
  V  V23  1  0.00029790  0.49784943  0.00372626  1
  V  V24  1  0.12341629  0.24316889  0.87886670  1
  V  V25  1  0.00114668  0.37695545  0.37442357  1
  V  V26  1  0.49936348  0.13578634  0.12304496  1
  V  V27  1  0.87999828  0.63138600  0.75261258  1
  V  V28  1  0.37411580  -0.00081327  0.36798476  1
  V  V29  1  0.00438266  0.12217142  0.12245272  1
  V  V30  1  0.62466345  0.74984458  0.37242726  1
  V  V31  1  0.25785372  0.50020199  0.25356020  1
  V  V32  1  0.50126624  0.00165062  0.00100178  1
  V  V33  1  0.26501382  0.88389531  0.12301652  1
  V  V34  1  0.87481927  0.87212834  0.50039946  1
  V  V35  1  0.37493044  -0.00403917  0.87882912  1
  V  V36  1  0.68861150  0.43810105  0.19266421  1
  V  V37  1  0.50654869  0.24936214  0.76068512  1
  V  V38  1  0.24987530  0.12134397  0.87695372  1
  V  V39  1  0.25675969  0.24603312  0.00626884  1
  V  V40  1  0.13144381  0.62718138  -0.00596140  1
  V  V41  1  0.11820786  0.86517533  0.75219328  1
  V  V42  1  0.24984363  0.50561909  0.76371936  1
  V  V43  1  0.37545481  0.13158449  0.24543198  1
  V  V44  1  0.74821437  0.62131272  0.37344622  1
  V  V45  1  0.49317455  0.75399908  0.74338981  1
  V  V46  1  0.25303501  0.75128930  0.50097578  1
  V  V47  1  0.75065117  0.37550809  0.62449483  1
  V  V48  1  0.62625611  0.88303581  0.75132370  1
  V  V49  1  0.00326801  0.63780559  0.62755201  1
  V  V50  1  0.49808210  0.75284201  0.23553347  1
  V  V51  1  0.50102768  0.37695880  0.37201374  1
  V  V52  1  0.50079629  0.87423317  0.37185584  1
  V  V53  1  0.12438876  0.12248943  0.50262570  1
  V  V54  1  0.88232356  0.11418146  0.74680758  1
  V  V55  1  0.50637578  0.61015408  0.11728181  1
  V  V56  1  0.36865264  0.62816598  0.76756052  1
  V  V57  1  0.87515022  0.62520594  0.24795660  1
  V  V58  1  0.12550248  0.37319050  0.75110590  1
  V  V59  1  0.62784756  0.12232757  0.49347555  1
  V  V60  1  0.86557652  0.25222923  0.12091768  1
  V  V61  1  0.63525578  -0.00076483  0.11889756  1
  V  V62  1  -0.00080590  0.00514906  0.50362608  1
  V  V63  1  0.37562350  0.63061056  0.24238571  1
  V  V64  1  0.62560203  0.36952775  0.75918584  1
  V  V65  1  0.62429777  0.62620775  0.50187711  1
  V  V66  1  0.62509236  0.50159468  0.62319847  1
  V  V67  1  0.26144988  0.37021491  0.12805528  1
  V  V68  1  0.12671001  0.37616069  0.24987038  1
  V  V69  1  -0.00762354  0.86628417  0.87797314  1
  V  V70  1  0.12230751  0.00239588  0.62920712  1
  V  V71  1  0.49884611  0.87357914  0.88113521  1
  V  V72  1  0.26534831  0.75194615  0.00381961  1
  V  V73  1  0.12685389  0.49951911  0.12588008  1
  V  V74  1  0.12798163  0.75154719  0.36762901  1
  V  V75  1  0.63401755  0.87518567  0.24327577  1
  V  V76  1  0.00227179  0.87661480  0.37371968  1
  V  V77  1  0.25083186  0.24846833  0.50212993  1
  V  V78  1  0.74491334  0.13043660  0.86254053  1
  V  V79  1  0.86405709  0.37171835  0.00308910  1
  V  V80  1  0.62585616  0.25153965  0.36897267  1
  V  V81  1  0.24886824  0.11905089  0.36984743  1
  V  V82  1  0.88289100  0.24734829  0.62721283  1
  V  V83  1  0.48457211  0.62887511  0.62147230  1
  V  V84  1  0.37347446  0.37858756  0.49674413  1
  Zn  Zn85  1  0.86852819  -0.00229526  0.87790260  1
  Zn  Zn86  1  0.13137621  0.11577558  0.01198760  1
  Zn  Zn87  1  0.50191342  0.25731941  0.24501965  1
  Zn  Zn88  1  0.12496637  0.62639478  0.49767410  1
  Zn  Zn89  1  0.52472033  0.44313743  0.92184068  1
  Zn  Zn90  1  0.87626009  0.75254390  0.63094542  1
  Zn  Zn91  1  0.86180114  0.88321206  0.00863491  1
  Zn  Zn92  1  0.62840690  0.60024149  -0.00262393  1
  Zn  Zn93  1  0.24793089  -0.00311109  0.75389294  1
  Zn  Zn94  1  0.00217687  0.75084669  0.24738180  1
  Zn  Zn95  1  0.75022038  0.74929942  0.50279057  1
  Zn  Zn96  1  0.00003898  0.62586478  0.12622786  1
  Zn  Zn97  1  0.37761263  0.25103522  0.62638429  1
  Zn  Zn98  1  0.00246893  0.24388978  0.74777760  1
  Zn  Zn99  1  -0.00085299  0.25062176  0.24822282  1
  Zn  Zn100  1  0.74673032  0.74465850  0.00239715  1
  Zn  Zn101  1  0.00097632  0.50414507  0.50070315  1
  Zn  Zn102  1  0.00103680  -0.00417076  0.00003861  1
  Zn  Zn103  1  0.62871479  0.00227176  0.62623398  1
  Zn  Zn104  1  0.50233457  -0.00112131  0.49882875  1
  Zn  Zn105  1  0.12710485  0.74686433  0.87616153  1
  Zn  Zn106  1  0.75010968  0.00109745  0.24889221  1
  Zn  Zn107  1  0.18708239  0.18761380  0.19124102  1
  Zn  Zn108  1  0.18838177  0.18600299  0.68957763  1
  Zn  Zn109  1  0.18970675  0.69062333  0.17953251  1
  Zn  Zn110  1  0.19224756  0.68900674  0.68601450  1
  Zn  Zn111  1  0.68767734  0.18813989  0.18469416  1
  Zn  Zn112  1  0.69023955  0.18809488  0.68310674  1
  Zn  Zn113  1  0.68878163  0.67964755  0.18683175  1
  Zn  Zn114  1  0.68519416  0.69264146  0.68748684  1
  Zn  Zn115  1  0.31462473  0.30999834  0.31617351  1
  Zn  Zn116  1  0.31087401  0.30706842  0.81189336  1
  Zn  Zn117  1  0.31099310  0.81437975  0.30533901  1
  Zn  Zn118  1  0.30952363  0.81046862  0.81830603  1
  Zn  Zn119  1  0.81087603  0.31143871  0.30958182  1
  Zn  Zn120  1  0.81156965  0.31045160  0.81364768  1
  Zn  Zn121  1  0.81283112  0.80945499  0.31323212  1
  Zn  Zn122  1  0.80655584  0.81165004  0.81562918  1
  Zn  Zn123  1  0.18795349  0.44064698  0.43852532  1
  Zn  Zn124  1  0.18768018  0.43232139  0.94117407  1
  Zn  Zn125  1  0.18779605  0.93708231  0.43538651  1
  Zn  Zn126  1  0.18317578  0.93362368  0.94476553  1
  Zn  Zn127  1  0.68702158  0.43684860  0.43223303  1
  Zn  Zn128  1  0.69465881  0.44007582  0.93833145  1
  Zn  Zn129  1  0.68819072  0.93583466  0.43838323  1
  Zn  Zn130  1  0.69299674  0.93801197  0.93608421  1
  Zn  Zn131  1  0.31479124  0.05828685  0.06485279  1
  Zn  Zn132  1  0.31294500  0.05794847  0.56036788  1
  Zn  Zn133  1  0.31426665  0.56406684  0.06255717  1
  Zn  Zn134  1  0.30992815  0.56054677  0.56447150  1
  Zn  Zn135  1  0.81470697  0.06684732  0.05718855  1
  Zn  Zn136  1  0.81150265  0.06176500  0.56572599  1
  Zn  Zn137  1  0.80280124  0.56480242  0.06594156  1
  Zn  Zn138  1  0.81582342  0.56446706  0.56192149  1
  Zn  Zn139  1  0.43588619  0.43850429  0.18801948  1
  Zn  Zn140  1  0.44951894  0.45076614  0.72371869  1
  Zn  Zn141  1  0.44321320  0.94512867  0.18759918  1
  Zn  Zn142  1  0.43852838  0.94046985  0.68719852  1
  Zn  Zn143  1  0.93178454  0.43748593  0.18817971  1
  Zn  Zn144  1  0.93943591  0.43804456  0.68975789  1
  Zn  Zn145  1  0.93978801  0.93935772  0.19018897  1
  Zn  Zn146  1  0.94099926  0.93441156  0.68940152  1
  Zn  Zn147  1  0.05571581  0.06375148  0.31078590  1
  Zn  Zn148  1  0.05963990  0.05375419  0.81832711  1
  Zn  Zn149  1  0.06462636  0.56383405  0.31258540  1
  Zn  Zn150  1  0.06116739  0.56233581  0.81389112  1
  Zn  Zn151  1  0.56208745  0.06250634  0.31010649  1
  Zn  Zn152  1  0.56418535  0.06521756  0.81561951  1
  Zn  Zn153  1  0.56048849  0.56059278  0.30969609  1
  Zn  Zn154  1  0.56106768  0.56507807  0.80400557  1
  Zn  Zn155  1  0.43780790  0.18966621  0.43726516  1
  Zn  Zn156  1  0.43707113  0.18935731  0.93967150  1
  Zn  Zn157  1  0.43653116  0.68974116  0.43093330  1
  Zn  Zn158  1  0.44219704  0.68720732  0.93902744  1
  Zn  Zn159  1  0.93799370  0.18705849  0.43712943  1
  Zn  Zn160  1  0.93280047  0.18446180  0.93704959  1
  Zn  Zn161  1  0.94124574  0.68821664  0.43796838  1
  Zn  Zn162  1  0.94013362  0.68740315  0.94204572  1
  Zn  Zn163  1  0.06200943  0.30789141  0.06450140  1
  Zn  Zn164  1  0.06357526  0.31473800  0.56131566  1
  Zn  Zn165  1  0.05775199  0.80970115  0.06256047  1
  Zn  Zn166  1  0.06696745  0.81557928  0.55948375  1
  Zn  Zn167  1  0.56372645  0.32507929  0.06420125  1
  Zn  Zn168  1  0.56307112  0.31139939  0.56549829  1
  Zn  Zn169  1  0.56343936  0.81412498  0.06005226  1
  Zn  Zn170  1  0.56354862  0.81259542  0.56300519  1
  O  O171  1  0.10911239  0.13068416  0.12985099  1
  O  O172  1  0.13256792  0.11032986  0.62059124  1
  O  O173  1  0.12329716  0.61394887  0.11906473  1
  O  O174  1  0.12033587  0.61935804  0.62513476  1
  O  O175  1  0.62058698  0.12150926  0.11248785  1
  O  O176  1  0.61929574  0.12417576  0.61405807  1
  O  O177  1  0.60922729  0.62679763  0.12494417  1
  O  O178  1  0.61534605  0.62213337  0.61980176  1
  O  O179  1  0.38063542  0.37112232  0.39040454  1
  O  O180  1  0.36476383  0.37485362  0.88599861  1
  O  O181  1  0.37823718  0.88223747  0.37631177  1
  O  O182  1  0.38381844  0.88851140  0.86726740  1
  O  O183  1  0.88224308  0.38166725  0.37785355  1
  O  O184  1  0.88265463  0.38108311  0.88034586  1
  O  O185  1  0.88033607  0.88066762  0.38215015  1
  O  O186  1  0.88418900  0.87312358  0.87020208  1
  O  O187  1  0.25865334  0.00919839  0.37925320  1
  O  O188  1  0.25935322  0.00253967  0.87691520  1
  O  O189  1  0.24480668  0.51088501  0.36661336  1
  O  O190  1  0.24236371  0.49553699  0.86238370  1
  O  O191  1  0.76365123  -0.00220478  0.37590905  1
  O  O192  1  0.75160536  0.02139657  0.88027331  1
  O  O193  1  0.75891529  0.51300315  0.38354129  1
  O  O194  1  0.76402007  0.49551437  0.86290969  1
  O  O195  1  0.24523349  0.49200890  0.13342810  1
  O  O196  1  0.23868008  0.49502160  0.63118107  1
  O  O197  1  0.24814057  0.98386233  0.11898820  1
  O  O198  1  0.24288150  0.98842803  0.62471019  1
  O  O199  1  0.75608542  0.48498630  0.13060096  1
  O  O200  1  0.74928490  0.49379256  0.62990915  1
  O  O201  1  0.73815818  1.00614460  0.12401037  1
  O  O202  1  0.74745495  0.98435652  0.62068881  1
  O  O203  1  0.00503662  0.37647167  0.26181129  1
  O  O204  1  0.00810892  0.37243042  0.75827993  1
  O  O205  1  0.01251601  0.87476739  0.25618128  1
  O  O206  1  0.00769459  0.87255311  0.75903619  1
  O  O207  1  0.48848214  0.37534616  0.26788944  1
  O  O208  1  0.51452204  0.35815267  0.73036364  1
  O  O209  1  0.50825394  0.86964690  0.25294882  1
  O  O210  1  0.50255761  0.86905177  0.75517573  1
  O  O211  1  0.49414033  0.12692609  0.24004882  1
  O  O212  1  0.49600804  0.12939040  0.74279469  1
  O  O213  1  0.49297518  0.63268176  0.24500500  1
  O  O214  1  0.48527735  0.63451818  0.73997758  1
  O  O215  1  0.98835893  0.12790367  0.24194023  1
  O  O216  1  0.98628994  0.12465212  0.75280351  1
  O  O217  1  0.98837860  0.62675139  0.25325939  1
  O  O218  1  0.99239281  0.61924233  0.74028946  1
  O  O219  1  0.36092099  0.25617467  -0.00388051  1
  O  O220  1  0.36818178  0.25802545  0.50462880  1
  O  O221  1  0.36431860  0.74770063  -0.00087184  1
  O  O222  1  0.36800627  0.76434293  0.49077112  1
  O  O223  1  0.88104431  0.25722809  0.01238094  1
  O  O224  1  0.86906447  0.25363426  0.50466877  1
  O  O225  1  0.87467376  0.74602405  0.01726454  1
  O  O226  1  0.87774479  0.76371668  0.50101535  1
  O  O227  1  0.12996364  0.24280349  0.49697128  1
  O  O228  1  0.13541525  0.24506989  0.99333445  1
  O  O229  1  0.13549599  0.75250273  0.48651084  1
  O  O230  1  0.12696861  0.73830442  1.00259553  1
  O  O231  1  0.63288283  0.24331982  0.49478950  1
  O  O232  1  0.62121286  0.24228972  1.00112352  1
  O  O233  1  0.62283680  0.74219682  0.49111429  1
  O  O234  1  0.61771067  0.75070547  0.98137113  1
  O  O235  1  0.50525342  0.23930437  0.12601948  1
  O  O236  1  0.49810622  0.23624300  0.62775054  1
  O  O237  1  0.50190385  0.74637759  0.13350655  1
  O  O238  1  0.50209493  0.74509256  0.63567836  1
  O  O239  1  0.99277962  0.24101282  0.12928569  1
  O  O240  1  0.98698368  0.25427396  0.62326516  1
  O  O241  1  0.98760070  0.74446406  0.12936778  1
  O  O242  1  1.00263346  0.74108768  0.62285438  1
  O  O243  1  0.00639328  0.25915907  0.37469845  1
  O  O244  1  0.00750758  0.25295307  0.87564231  1
  O  O245  1  0.01136339  0.75764910  0.37443641  1
  O  O246  1  0.00424362  0.76079029  0.87757941  1
  O  O247  1  0.50846195  0.25940537  0.37712716  1
  O  O248  1  0.49787051  0.24567118  0.86006810  1
  O  O249  1  0.50702111  0.75529023  0.36428911  1
  O  O250  1  0.50143381  0.75846866  0.86548136  1
  O  O251  1  0.24532592  0.12777798  0.49188202  1
  O  O252  1  0.25111229  0.13017814  0.99647775  1
  O  O253  1  0.25168750  0.63383394  0.49232071  1
  O  O254  1  0.24391537  0.63884381  1.00999206  1
  O  O255  1  0.74242477  0.13389030  0.50465942  1
  O  O256  1  0.73628174  0.12961688  0.99515436  1
  O  O257  1  0.74327939  0.62773338  0.49546254  1
  O  O258  1  0.73845258  0.62986092  1.00382589  1
  O  O259  1  0.25614093  0.36654795  0.00931346  1
  O  O260  1  0.25545839  0.37208627  0.50599895  1
  O  O261  1  0.24836037  0.86547700  0.01360972  1
  O  O262  1  0.25644280  0.86979839  0.50500425  1
  O  O263  1  0.76547992  0.37098766  -0.00634443  1
  O  O264  1  0.75690208  0.36944606  0.50466331  1
  O  O265  1  0.75243027  0.85956243  -0.01226295  1
  O  O266  1  0.75968360  0.87196227  0.50538781  1
  O  O267  1  0.13531193  0.49584498  0.24573839  1
  O  O268  1  0.13095791  0.49488935  0.74404927  1
  O  O269  1  0.12474453  0.98943879  0.25341640  1
  O  O270  1  0.12655085  0.99029856  0.74313025  1
  O  O271  1  0.63592297  0.50612862  0.24869998  1
  O  O272  1  0.63616466  0.49495313  0.74103077  1
  O  O273  1  0.62640029  0.99382275  0.24031966  1
  O  O274  1  0.61726711  0.98692001  0.74886077  1
  O  O275  1  0.38020310  0.01140116  0.26213404  1
  O  O276  1  0.37545375  0.01072809  0.75737554  1
  O  O277  1  0.36293869  0.50815070  0.24963543  1
  O  O278  1  0.35998732  0.52054262  0.73638517  1
  O  O279  1  0.87288325  0.00652565  0.25890999  1
  O  O280  1  0.87468472  0.01237064  0.74567924  1
  O  O281  1  0.87923573  0.50701730  0.26452419  1
  O  O282  1  0.87080960  0.50655265  0.75658183  1
  O  O283  1  0.11894141  0.37223723  0.37207866  1
  O  O284  1  0.12140492  0.36154140  0.87274655  1
  O  O285  1  0.12508582  0.86952642  0.36438270  1
  O  O286  1  0.11365799  0.87364201  0.86666094  1
  O  O287  1  0.61245552  0.36474542  0.38520336  1
  O  O288  1  0.62577422  0.37641081  0.85976757  1
  O  O289  1  0.61963481  0.87014788  0.36803598  1
  O  O290  1  0.61511748  0.86826822  0.86673382  1
  O  O291  1  0.38452211  0.11970818  0.13420805  1
  O  O292  1  0.38083170  0.12319843  0.63196619  1
  O  O293  1  0.38513777  0.62240426  0.13602593  1
  O  O294  1  0.38297603  0.62999107  0.62105632  1
  O  O295  1  0.88093767  0.13640021  0.12972373  1
  O  O296  1  0.86873981  0.13265941  0.63784009  1
  O  O297  1  0.87688137  0.62804588  0.13632470  1
  O  O298  1  0.88634894  0.62654170  0.63234064  1
  O  O299  1  0.24447888  0.25783680  0.11860193  1
  O  O300  1  0.24997337  0.25960525  0.62072631  1
  O  O301  1  0.24845986  0.76306487  0.11378895  1
  O  O302  1  0.24530854  0.76024002  0.60962978  1
  O  O303  1  0.76612343  0.24858712  0.12619225  1
  O  O304  1  0.75962274  0.25692633  0.61467909  1
  O  O305  1  0.76574258  0.74630831  0.13106687  1
  O  O306  1  0.75236210  0.76159776  0.62237344  1
  O  O307  1  0.24414309  0.24197604  0.38298164  1
  O  O308  1  0.24248248  0.24134581  0.88175783  1
  O  O309  1  0.24621727  0.74626256  0.38090890  1
  O  O310  1  0.24425311  0.75984207  0.89692902  1
  O  O311  1  0.74344088  0.25522647  0.38796365  1
  O  O312  1  0.75697130  0.23109990  0.87568410  1
  O  O313  1  0.74374706  0.73930515  0.37832380  1
  O  O314  1  0.72952657  0.74335612  0.86662816  1
  O  O315  1  -0.00027701  0.12853874  0.01482440  1
  O  O316  1  0.00624636  0.11277245  0.49684077  1
  O  O317  1  0.00715427  0.60997133  0.00239502  1
  O  O318  1  0.00408713  0.62386521  0.51077759  1
  O  O319  1  0.50958432  0.12176487  0.00317326  1
  O  O320  1  0.50658000  0.12423003  0.50602900  1
  O  O321  1  0.50029627  0.62530725  0.01464761  1
  O  O322  1  0.50126193  0.62039616  0.50263122  1
  O  O323  1  0.49161212  0.38206390  0.49852273  1
  O  O324  1  0.47930390  0.36694362  0.99794640  1
  O  O325  1  0.49264188  0.87433773  0.49312946  1
  O  O326  1  0.50225424  0.88386164  0.98837169  1
  O  O327  1  0.99488689  0.37696197  0.48930179  1
  O  O328  1  0.99858957  0.38366085  0.99524155  1
  O  O329  1  0.99515871  0.88452025  0.49507273  1
  O  O330  1  0.99343584  0.87272399  0.98805682  1
  O  O331  1  0.50445734  0.49413840  0.38980380  1
  O  O332  1  0.48583793  0.48828399  0.82935339  1
  O  O333  1  0.49264209  0.99225343  0.37585519  1
  O  O334  1  0.49594876  0.99482332  0.88103124  1
  O  O335  1  0.99513630  0.49382459  0.37822133  1
  O  O336  1  0.99502882  0.49136500  0.88265116  1
  O  O337  1  0.99128679  0.99456846  0.38299297  1
  O  O338  1  0.99078628  0.98300316  0.87363047  1
  O  O339  1  -0.00743879  0.01875034  0.12642810  1
  O  O340  1  0.01006021  -0.00608650  0.61575173  1
  O  O341  1  0.00672996  0.49799511  0.11892995  1
  O  O342  1  0.01243262  0.50381192  0.62510472  1
  O  O343  1  0.50917769  0.01131459  0.11669789  1
  O  O344  1  0.50226909  0.01240250  0.62169983  1
  O  O345  1  0.49928820  0.51168063  0.12960659  1
  O  O346  1  0.50357558  0.51038883  0.61786774  1
  O  O347  1  0.24966270  0.38102297  0.24734306  1
  O  O348  1  0.24658809  0.38117649  0.74324344  1
  O  O349  1  0.23793348  0.87140786  0.23668453  1
  O  O350  1  0.24677834  0.87577708  0.74128415  1
  O  O351  1  0.74196404  0.38353636  0.26110603  1
  O  O352  1  0.74592582  0.38096278  0.74258482  1
  O  O353  1  0.73697408  0.87677247  0.25561346  1
  O  O354  1  0.73799439  0.87079047  0.74369603  1
  O  O355  1  0.25729781  0.12880603  0.26186577  1
  O  O356  1  0.25978989  0.12153861  0.75682947  1
  O  O357  1  0.25627507  0.62095826  0.25276362  1
  O  O358  1  0.25988041  0.62254862  0.75029160  1
  O  O359  1  0.76357169  0.12314509  0.24648974  1
  O  O360  1  0.75634648  0.12685153  0.75617226  1
  O  O361  1  0.76341294  0.62858015  0.26175944  1
  O  O362  1  0.75725190  0.61278114  0.74081918  1
  O  O363  1  0.36843639  0.11823464  0.37230298  1
  O  O364  1  0.37255832  0.11571193  0.86853336  1
  O  O365  1  0.36349608  0.62841451  0.36409537  1
  O  O366  1  0.37692431  0.62428194  0.86541379  1
  O  O367  1  0.88113926  0.11687122  0.36607250  1
  O  O368  1  0.86791994  0.12411284  0.86037434  1
  O  O369  1  0.86953732  0.61943175  0.37335324  1
  O  O370  1  0.88554793  0.61275071  0.86888206  1
  O  O371  1  0.13330088  0.38055353  0.13130504  1
  O  O372  1  0.13398828  0.38150321  0.62877117  1
  O  O373  1  0.12277826  0.87389446  0.13722680  1
  O  O374  1  0.13211749  0.88232633  0.63113615  1
  O  O375  1  0.62414445  0.37546797  0.14193818  1
  O  O376  1  0.63538995  0.38231548  0.62509501  1
  O  O377  1  0.61860531  0.88594349  0.13191621  1
  O  O378  1  0.63085294  0.87567945  0.63306517  1
  O  O379  1  0.12412162  0.25911362  0.25996278  1
  O  O380  1  0.12391175  0.25537816  0.75718783  1
  O  O381  1  0.12651810  0.75329989  0.25886401  1
  O  O382  1  0.13319096  0.76179856  0.75221655  1
  O  O383  1  0.62404681  0.24027775  0.26581315  1
  O  O384  1  0.62001007  0.25690974  0.74368199  1
  O  O385  1  0.61926203  0.75640630  0.25239459  1
  O  O386  1  0.61220047  0.75667061  0.75745700  1
  O  O387  1  0.38017590  0.23592502  0.25776343  1
  O  O388  1  0.38109121  0.23812574  0.74763748  1
  O  O389  1  0.38526432  0.74257885  0.25397960  1
  O  O390  1  0.37792716  0.73927559  0.75357109  1
  O  O391  1  0.87695991  0.24541672  0.24199248  1
  O  O392  1  0.87749911  0.24298192  0.74084719  1
  O  O393  1  0.87843748  0.74350333  0.24411625  1
  O  O394  1  0.86875949  0.73403976  0.75212727  1
  O  O395  1  0.38214723  0.49173042  0.50510953  1
  O  O396  1  0.36685408  0.48381228  1.00006900  1
  O  O397  1  0.37660828  0.98872221  0.48862897  1
  O  O398  1  0.39105548  1.00735104  0.99137358  1
  O  O399  1  0.87823658  0.49396238  0.49004440  1
  O  O400  1  0.88236956  0.49448204  0.99429486  1
  O  O401  1  0.88135748  0.99321607  0.49678505  1
  O  O402  1  0.88101018  0.99813810  0.99775520  1
  O  O403  1  0.11466980  0.00703951  -0.00851692  1
  O  O404  1  0.11803099  0.00180991  0.50607083  1
  O  O405  1  0.12065006  0.50193453  0.00723582  1
  O  O406  1  0.12462731  0.50433814  0.51055450  1
  O  O407  1  0.61591548  0.00550556  0.00326154  1
  O  O408  1  0.62340800  0.00850457  0.50019458  1
  O  O409  1  0.60803933  0.48936527  -0.01733553  1
  O  O410  1  0.61726962  0.50681125  0.50494782  1
  O  O411  1  0.36390579  0.37474323  0.12236771  1
  O  O412  1  0.36202589  0.37632517  0.61923298  1
  O  O413  1  0.36453940  0.88062228  0.13418934  1
  O  O414  1  0.36664620  0.88170772  0.61491052  1
  O  O415  1  0.88334597  0.36118862  0.11793741  1
  O  O416  1  0.87013393  0.36959317  0.62099685  1
  O  O417  1  0.87814317  0.86212025  0.12928566  1
  O  O418  1  0.87013538  0.87311421  0.61945069  1
  O  O419  1  0.13131868  0.12699459  0.37922947  1
  O  O420  1  0.12928705  0.13379724  0.86983501  1
  O  O421  1  0.13729637  0.63386134  0.37451428  1
  O  O422  1  0.12266281  0.62330037  0.88950115  1
  O  O423  1  0.61859747  0.13217506  0.38705058  1
  O  O424  1  0.63313099  0.12716874  0.88392405  1
  O  O425  1  0.63148596  0.62847030  0.37992146  1
  O  O426  1  0.61248453  0.63823959  0.87245606  1
