# generated using pymatgen
data_V85Zn86O256
_symmetry_space_group_name_H-M   'P 1'
_cell_length_a   16.92059154
_cell_length_b   16.92629865
_cell_length_c   16.92457078
_cell_angle_alpha   89.96902445
_cell_angle_beta   89.98495681
_cell_angle_gamma   90.00956845
_symmetry_Int_Tables_number   1
_chemical_formula_structural   V85Zn86O256
_chemical_formula_sum   'V85 Zn86 O256'
_cell_volume   4847.24665907
_cell_formula_units_Z   1
loop_
 _symmetry_equiv_pos_site_id
 _symmetry_equiv_pos_as_xyz
  1  'x, y, z'
loop_
 _atom_site_type_symbol
 _atom_site_label
 _atom_site_symmetry_multiplicity
 _atom_site_fract_x
 _atom_site_fract_y
 _atom_site_fract_z
 _atom_site_occupancy
  V  V0  1  0.36870414  0.87821335  -0.01156327  1
  V  V1  1  0.37427395  0.12929174  0.75051536  1
  V  V2  1  0.87231554  0.49908859  0.86656052  1
  V  V3  1  0.25587562  0.24095067  0.50124364  1
  V  V4  1  0.88249596  0.00153956  0.38330572  1
  V  V5  1  0.12455284  0.62512381  0.01437680  1
  V  V6  1  0.13326321  0.00146960  0.12327660  1
  V  V7  1  0.11212558  0.00825407  0.62203595  1
  V  V8  1  0.12482250  0.87502698  0.75132210  1
  V  V9  1  0.12481901  0.26919757  0.37173299  1
  V  V10  1  0.24436057  0.24692721  0.00222894  1
  V  V11  1  0.87660711  0.24534976  0.62294940  1
  V  V12  1  0.49650023  0.74448866  0.25088454  1
  V  V13  1  0.23572482  0.63034436  0.87393088  1
  V  V14  1  0.25668351  0.62668040  0.36986771  1
  V  V15  1  0.62222003  0.25063068  0.87117678  1
  V  V16  1  0.62043688  -0.00157653  0.12491057  1
  V  V17  1  0.75168959  0.75455470  0.50238371  1
  V  V18  1  0.25522049  0.00075630  0.75023762  1
  V  V19  1  0.62647520  0.38889444  0.74596330  1
  V  V20  1  0.49767204  0.37348103  0.87370288  1
  V  V21  1  0.87401552  0.11934903  0.74761475  1
  V  V22  1  0.00049136  0.24244973  0.74559023  1
  V  V23  1  0.62641964  0.88249320  0.75695399  1
  V  V24  1  0.74005819  0.37728159  0.12750866  1
  V  V25  1  0.62781739  0.62340278  0.50771166  1
  V  V26  1  0.37396307  0.62666872  0.75139850  1
  V  V27  1  0.74837994  0.24997176  -0.00180205  1
  V  V28  1  0.50587446  0.25084001  0.24799195  1
  V  V29  1  0.49950667  0.50265619  0.00274468  1
  V  V30  1  0.87737691  0.25358393  0.12673585  1
  V  V31  1  0.87152352  0.37848697  -0.00300992  1
  V  V32  1  0.87981518  0.49808682  0.37495421  1
  V  V33  1  0.00361417  0.62185140  0.62235291  1
  V  V34  1  0.74443048  0.50034678  0.24990877  1
  V  V35  1  0.74868438  0.25171501  0.49959008  1
  V  V36  1  0.36904487  0.00334456  0.37405500  1
  V  V37  1  0.63128644  0.25616168  0.37040403  1
  V  V38  1  0.12322664  0.24306016  0.87651902  1
  V  V39  1  0.75035099  0.12705744  0.37267300  1
  V  V40  1  0.74461691  0.75407834  0.00563906  1
  V  V41  1  0.12836567  0.86878118  0.24629988  1
  V  V42  1  0.49605660  0.25440206  0.73682626  1
  V  V43  1  0.88723042  0.63533614  0.23587592  1
  V  V44  1  0.37631677  0.75115900  0.62550362  1
  V  V45  1  0.74724429  0.38634331  0.62720891  1
  V  V46  1  0.87786725  0.75094583  0.62689552  1
  V  V47  1  0.25149484  0.12060137  0.87891540  1
  V  V48  1  0.87804902  0.12315793  0.24698008  1
  V  V49  1  0.49687690  0.11652314  0.61925916  1
  V  V50  1  0.00071029  0.86980246  0.87522558  1
  V  V51  1  0.24909014  0.74881503  0.49838887  1
  V  V52  1  0.62538496  0.87212087  0.25046065  1
  V  V53  1  0.50329544  0.49865838  0.50287975  1
  V  V54  1  0.38029555  0.88321485  0.50323922  1
  V  V55  1  0.36583176  0.75646992  0.12916868  1
  V  V56  1  0.92331031  0.81660907  0.05826514  1
  V  V57  1  0.50245149  0.37691226  0.36879915  1
  V  V58  1  0.74700121  0.62453076  0.87065044  1
  V  V59  1  0.75352297  0.62842911  0.37319991  1
  V  V60  1  0.74835220  0.12077672  0.86849216  1
  V  V61  1  0.11428614  0.12104456  0.48782998  1
  V  V62  1  0.23694402  0.49890670  0.24725248  1
  V  V63  1  0.23562614  0.37791007  0.13058787  1
  V  V64  1  0.37265712  0.24982046  0.12922723  1
  V  V65  1  0.37052372  0.37549830  0.00089343  1
  V  V66  1  -0.00069414  0.00449659  0.00107701  1
  V  V67  1  0.49769601  -0.00756629  -0.01622558  1
  V  V68  1  0.00556246  0.74579345  0.75344316  1
  V  V69  1  0.50387839  0.62349627  0.62692804  1
  V  V70  1  0.24933717  0.87778217  0.62491839  1
  V  V71  1  0.37760343  0.50203011  0.36606741  1
  V  V72  1  0.00438312  0.49037993  0.49670352  1
  V  V73  1  0.00155899  0.86889285  0.37756611  1
  V  V74  1  0.75097123  0.88407534  0.63060599  1
  V  V75  1  0.87126984  -0.00530458  0.87800117  1
  V  V76  1  0.62218095  0.12344557  -0.00164303  1
  V  V77  1  0.50406604  0.88249309  0.38086773  1
  V  V78  1  0.24920512  0.49856046  0.74681918  1
  V  V79  1  0.00693205  0.12730101  0.12166643  1
  V  V80  1  0.37155151  0.50137771  0.87654042  1
  V  V81  1  0.74926978  -0.00152995  0.24897704  1
  V  V82  1  0.50111547  0.75442126  0.75901039  1
  V  V83  1  0.00448902  0.50116436  0.00988111  1
  V  V84  1  0.12447343  0.37203636  0.74624058  1
  Zn  Zn85  1  0.12771354  0.62232422  0.49681294  1
  Zn  Zn86  1  0.01431489  0.26334506  0.24918349  1
  Zn  Zn87  1  0.75459767  0.87274698  0.12428878  1
  Zn  Zn88  1  0.88434575  0.88177082  0.50578589  1
  Zn  Zn89  1  0.26166738  0.36549392  0.62604726  1
  Zn  Zn90  1  0.12109892  0.74506827  0.36908191  1
  Zn  Zn91  1  0.24756482  0.00343256  0.25167210  1
  Zn  Zn92  1  -0.00034864  0.37429517  0.87436653  1
  Zn  Zn93  1  0.62398737  0.75156838  0.37780936  1
  Zn  Zn94  1  0.49749929  0.12265903  0.12485880  1
  Zn  Zn95  1  0.62231195  0.62582749  0.00318265  1
  Zn  Zn96  1  0.62156534  0.75182493  0.87792727  1
  Zn  Zn97  1  0.61739883  0.50065350  0.13273819  1
  Zn  Zn98  1  0.87097366  0.61819468  0.74688772  1
  Zn  Zn99  1  0.37211355  0.12814317  0.25664508  1
  Zn  Zn100  1  0.12721056  0.49632321  0.62155219  1
  Zn  Zn101  1  0.61994201  0.11971294  0.49587851  1
  Zn  Zn102  1  0.49570396  0.62616463  0.12811978  1
  Zn  Zn103  1  0.87944053  0.37332330  0.50128244  1
  Zn  Zn104  1  0.62497188  -0.00047412  0.62053638  1
  Zn  Zn105  1  0.24676172  0.75556713  -0.00344662  1
  Zn  Zn106  1  0.37654441  0.37045109  0.50380082  1
  Zn  Zn107  1  0.19040819  0.18371497  0.19532259  1
  Zn  Zn108  1  0.18721710  0.18409373  0.68300198  1
  Zn  Zn109  1  0.19339410  0.68613212  0.18950828  1
  Zn  Zn110  1  0.18586821  0.68771800  0.68621342  1
  Zn  Zn111  1  0.68797252  0.18687370  0.18585117  1
  Zn  Zn112  1  0.68412760  0.19093290  0.68606656  1
  Zn  Zn113  1  0.68416095  0.68449432  0.18516285  1
  Zn  Zn114  1  0.68786181  0.69125432  0.69001588  1
  Zn  Zn115  1  0.30968736  0.31329075  0.31794087  1
  Zn  Zn116  1  0.31169711  0.31085836  0.81187295  1
  Zn  Zn117  1  0.31158557  0.81887514  0.31313026  1
  Zn  Zn118  1  0.31235606  0.81284771  0.81549083  1
  Zn  Zn119  1  0.84333541  0.32712605  0.29679683  1
  Zn  Zn120  1  0.80962400  0.31126341  0.80903443  1
  Zn  Zn121  1  0.81635027  0.81238648  0.31196069  1
  Zn  Zn122  1  0.81232248  0.80895532  0.81424150  1
  Zn  Zn123  1  0.19327283  0.43593066  0.44047494  1
  Zn  Zn124  1  0.18447838  0.43589711  0.93529558  1
  Zn  Zn125  1  0.18523701  0.93699139  0.43918167  1
  Zn  Zn126  1  0.18348072  0.93974482  0.93719677  1
  Zn  Zn127  1  0.68938897  0.43769740  0.43687489  1
  Zn  Zn128  1  0.68512799  0.43965510  0.93443822  1
  Zn  Zn129  1  0.69017557  0.94064645  0.43972237  1
  Zn  Zn130  1  0.68888712  0.93488777  0.93847160  1
  Zn  Zn131  1  0.31621748  0.06377481  0.06131900  1
  Zn  Zn132  1  0.31099448  0.06577237  0.56257059  1
  Zn  Zn133  1  0.31301042  0.56786489  0.06799606  1
  Zn  Zn134  1  0.31779219  0.56029395  0.56089012  1
  Zn  Zn135  1  0.81230123  0.05998498  0.06021939  1
  Zn  Zn136  1  0.80929324  0.06567353  0.56069764  1
  Zn  Zn137  1  0.81052582  0.56510373  0.06013146  1
  Zn  Zn138  1  0.81785054  0.56446061  0.56072140  1
  Zn  Zn139  1  0.43255299  0.43423112  0.18802558  1
  Zn  Zn140  1  0.43644368  0.43933926  0.68392841  1
  Zn  Zn141  1  0.43715070  0.93169712  0.18693586  1
  Zn  Zn142  1  0.43782810  0.93811590  0.69458778  1
  Zn  Zn143  1  0.93090553  0.44527740  0.18708964  1
  Zn  Zn144  1  0.93873820  0.43180301  0.68451318  1
  Zn  Zn145  1  0.94735651  0.94053679  0.19675316  1
  Zn  Zn146  1  0.93599034  0.93666613  0.69210625  1
  Zn  Zn147  1  0.06073265  0.06154203  0.30856476  1
  Zn  Zn148  1  0.06278909  0.06111601  0.81238180  1
  Zn  Zn149  1  0.06319723  0.56499264  0.31387113  1
  Zn  Zn150  1  0.05854439  0.55732197  0.81364662  1
  Zn  Zn151  1  0.55928054  0.06484399  0.31254544  1
  Zn  Zn152  1  0.56227052  0.06344143  0.80668652  1
  Zn  Zn153  1  0.56745038  0.56647770  0.31714241  1
  Zn  Zn154  1  0.56094826  0.56540909  0.81768580  1
  Zn  Zn155  1  0.44048225  0.18876250  0.43548096  1
  Zn  Zn156  1  0.43488613  0.18531416  0.93675005  1
  Zn  Zn157  1  0.43713433  0.69078606  0.43678289  1
  Zn  Zn158  1  0.43051419  0.68793071  0.94040132  1
  Zn  Zn159  1  0.94221698  0.18994161  0.43511608  1
  Zn  Zn160  1  0.93655687  0.18640252  0.93712398  1
  Zn  Zn161  1  0.93802299  0.68609423  0.43830925  1
  Zn  Zn162  1  0.93953469  0.67907306  0.93528549  1
  Zn  Zn163  1  0.06071293  0.31392273  0.06014654  1
  Zn  Zn164  1  0.06643786  0.30599452  0.56225430  1
  Zn  Zn165  1  0.08570140  0.81016151  0.06368357  1
  Zn  Zn166  1  0.06463206  0.81521740  0.56049608  1
  Zn  Zn167  1  0.56051969  0.31396856  0.06030782  1
  Zn  Zn168  1  0.56531354  0.31369414  0.56035828  1
  Zn  Zn169  1  0.55877703  0.81418033  0.06440734  1
  Zn  Zn170  1  0.56457046  0.81276179  0.56723386  1
  O  O171  1  0.11285474  0.12018591  0.12903982  1
  O  O172  1  0.12378060  0.11233132  0.61841795  1
  O  O173  1  0.12985280  0.62367142  0.11310387  1
  O  O174  1  0.11352206  0.62278058  0.62328447  1
  O  O175  1  0.62309736  0.11675062  0.11611238  1
  O  O176  1  0.60917191  0.12323535  0.63008669  1
  O  O177  1  0.61553626  0.61901742  0.12162089  1
  O  O178  1  0.62320801  0.62912325  0.61472231  1
  O  O179  1  0.38512955  0.38285178  0.38060849  1
  O  O180  1  0.37645748  0.38119134  0.88031831  1
  O  O181  1  0.38309948  0.88268331  0.38452913  1
  O  O182  1  0.37807982  0.87383324  0.88878735  1
  O  O183  1  0.86209519  0.39503070  0.38624425  1
  O  O184  1  0.87092834  0.37859824  0.88379548  1
  O  O185  1  0.88646014  0.88216692  0.37468812  1
  O  O186  1  0.88409057  0.88711081  0.86524752  1
  O  O187  1  0.26656019  -0.00556456  0.37836031  1
  O  O188  1  0.23942678  0.01331076  0.86650281  1
  O  O189  1  0.25773015  0.50499089  0.36745372  1
  O  O190  1  0.25221218  0.50387272  0.86384961  1
  O  O191  1  0.76009248  0.00489324  0.36674865  1
  O  O192  1  0.75888431  0.00805398  0.88110952  1
  O  O193  1  0.75430858  0.50998084  0.37045737  1
  O  O194  1  0.75934173  0.51106784  0.88320656  1
  O  O195  1  0.25657261  0.49391369  0.13945447  1
  O  O196  1  0.24922881  0.50268886  0.63776296  1
  O  O197  1  0.23543959  1.00452662  0.11699129  1
  O  O198  1  0.24385243  0.99603257  0.63298471  1
  O  O199  1  0.74764890  0.49434645  0.13162422  1
  O  O200  1  0.75811336  0.48555974  0.61886121  1
  O  O201  1  0.73821650  0.99726655  0.12791639  1
  O  O202  1  0.75578126  0.98666725  0.62627865  1
  O  O203  1  -0.05344072  0.35206730  0.24382998  1
  O  O204  1  0.00688563  0.36243262  0.75251747  1
  O  O205  1  0.01469000  0.87631431  0.26307770  1
  O  O206  1  0.00443478  0.86719229  0.75720946  1
  O  O207  1  0.49834522  0.36917034  0.26143495  1
  O  O208  1  0.50421518  0.36960627  0.75369147  1
  O  O209  1  0.51095180  0.86900140  0.25800086  1
  O  O210  1  0.51355898  0.86731054  0.74437330  1
  O  O211  1  0.49370761  0.13594858  0.24641679  1
  O  O212  1  0.49201414  0.13316701  0.74461980  1
  O  O213  1  0.50267842  0.64129233  0.25680455  1
  O  O214  1  0.49495091  0.63098327  0.74541627  1
  O  O215  1  0.99153724  0.13055664  0.24105833  1
  O  O216  1  0.99113365  0.13492762  0.75577284  1
  O  O217  1  0.98652416  0.62310111  0.25320667  1
  O  O218  1  0.99884157  0.63061505  0.74341536  1
  O  O219  1  0.36403299  0.25572342  0.00448793  1
  O  O220  1  0.35914650  0.24677101  0.49028552  1
  O  O221  1  0.37345400  0.76458299  0.00590252  1
  O  O222  1  0.36688346  0.75889837  0.50570735  1
  O  O223  1  0.86964756  0.25798878  0.00440463  1
  O  O224  1  0.87021586  0.25047584  0.50649716  1
  O  O225  1  0.86824479  0.75035277  -0.00038935  1
  O  O226  1  0.87059483  0.75163791  0.51227911  1
  O  O227  1  0.12934084  0.23852807  0.49050511  1
  O  O228  1  0.13576823  0.25432568  0.99150900  1
  O  O229  1  0.14007980  0.75019952  0.49847123  1
  O  O230  1  0.12879772  0.73170496  0.99714929  1
  O  O231  1  0.63260645  0.24549774  0.49054496  1
  O  O232  1  0.62683886  0.24386024  0.99186347  1
  O  O233  1  0.63549091  0.74437183  0.50099759  1
  O  O234  1  0.63234688  0.75143147  0.99768401  1
  O  O235  1  0.49251504  0.25323021  0.13242355  1
  O  O236  1  0.50348743  0.24339902  0.63413138  1
  O  O237  1  0.49229698  0.75155928  0.13546326  1
  O  O238  1  0.49480491  0.74305210  0.63380264  1
  O  O239  1  0.99493024  0.24303220  0.12348869  1
  O  O240  1  0.99038129  0.25168921  0.63362675  1
  O  O241  1  0.98794124  0.76262360  0.10929885  1
  O  O242  1  0.99565558  0.74459361  0.62864369  1
  O  O243  1  0.01909430  0.24733219  0.37289940  1
  O  O244  1  0.00749874  0.25070025  0.86967785  1
  O  O245  1  0.00138969  0.76303205  0.37857252  1
  O  O246  1  -0.00823051  0.75718928  0.86597948  1
  O  O247  1  0.50764353  0.25709238  0.36816692  1
  O  O248  1  0.50258166  0.25547088  0.86780869  1
  O  O249  1  0.49913657  0.76282245  0.36908174  1
  O  O250  1  0.49803168  0.74396451  0.86209842  1
  O  O251  1  0.23948161  0.13476440  0.50272494  1
  O  O252  1  0.25521587  0.13343397  0.98999826  1
  O  O253  1  0.25196048  0.63291023  0.49458368  1
  O  O254  1  0.23635637  0.61819319  0.99247896  1
  O  O255  1  0.75113495  0.13872047  0.49121277  1
  O  O256  1  0.74343700  0.12932718  0.99021058  1
  O  O257  1  0.74660123  0.63377986  0.49726612  1
  O  O258  1  0.74846152  0.63677732  0.99241394  1
  O  O259  1  0.25278367  0.37008762  0.00640042  1
  O  O260  1  0.25100714  0.36059928  0.50381675  1
  O  O261  1  0.26281019  0.87738811  -0.00676704  1
  O  O262  1  0.25795213  0.86852063  0.50507515  1
  O  O263  1  0.75370931  0.37033430  0.00206423  1
  O  O264  1  0.74850241  0.36443224  0.50758468  1
  O  O265  1  0.75172954  0.86027039  0.00096640  1
  O  O266  1  0.75471627  0.86493264  0.50822443  1
  O  O267  1  0.13824821  0.49904074  0.25384547  1
  O  O268  1  0.13065364  0.48895220  0.74959082  1
  O  O269  1  0.12385765  0.99302370  0.23931162  1
  O  O270  1  0.13243803  0.99803844  0.73972953  1
  O  O271  1  0.63908556  0.50296397  0.25320315  1
  O  O272  1  0.61825958  0.48794500  0.75420486  1
  O  O273  1  0.62679180  0.99374124  0.24334926  1
  O  O274  1  0.62252069  0.98605102  0.74537287  1
  O  O275  1  0.37615088  -0.00654803  0.26477747  1
  O  O276  1  0.36161031  0.00630498  0.74970009  1
  O  O277  1  0.37290829  0.49936930  0.26286973  1
  O  O278  1  0.36750499  0.50675038  0.75560920  1
  O  O279  1  0.87081791  0.00924601  0.25430771  1
  O  O280  1  0.88023307  0.01332012  0.75809715  1
  O  O281  1  0.86415957  0.51332154  0.25914999  1
  O  O282  1  0.88002118  0.49578417  0.76255462  1
  O  O283  1  0.12318807  0.36770052  0.37711867  1
  O  O284  1  0.12635141  0.36136001  0.86334796  1
  O  O285  1  0.11668883  0.87398275  0.36876854  1
  O  O286  1  0.10935820  0.88005028  0.86870146  1
  O  O287  1  0.62017338  0.36349486  0.37698453  1
  O  O288  1  0.61857443  0.36949465  0.86754306  1
  O  O289  1  0.62070616  0.87412087  0.36960424  1
  O  O290  1  0.62932168  0.87299602  0.86091623  1
  O  O291  1  0.37827455  0.14115955  0.12089251  1
  O  O292  1  0.38498911  0.12233431  0.63667124  1
  O  O293  1  0.37878161  0.64876798  0.11732696  1
  O  O294  1  0.38104190  0.63083032  0.63240942  1
  O  O295  1  0.88371243  0.12699521  0.12871006  1
  O  O296  1  0.86718936  0.13504559  0.63398239  1
  O  O297  1  0.87416373  0.62103323  0.13683406  1
  O  O298  1  0.88601131  0.63187805  0.62759519  1
  O  O299  1  0.25363772  0.25543749  0.11932343  1
  O  O300  1  0.24321584  0.24830002  0.60732424  1
  O  O301  1  0.26156909  0.75190494  0.12084659  1
  O  O302  1  0.25585827  0.75621418  0.61955486  1
  O  O303  1  0.75363721  0.25706862  0.11712914  1
  O  O304  1  0.75523923  0.25408578  0.61634919  1
  O  O305  1  0.74743417  0.75051819  0.11053065  1
  O  O306  1  0.75966020  0.75582757  0.62065665  1
  O  O307  1  0.23632599  0.25310591  0.38622739  1
  O  O308  1  0.24365793  0.24192810  0.88150830  1
  O  O309  1  0.25354210  0.74337075  0.38152001  1
  O  O310  1  0.25452613  0.73560294  0.87750622  1
  O  O311  1  0.74538226  0.24913653  0.37918846  1
  O  O312  1  0.74390471  0.24214447  0.87970423  1
  O  O313  1  0.75201633  0.74589706  0.38637289  1
  O  O314  1  0.75032674  0.74310202  0.88670303  1
  O  O315  1  -0.00348576  0.11640645  0.00736004  1
  O  O316  1  0.01511228  0.12596003  0.50002382  1
  O  O317  1  0.01284648  0.61284178  -0.00412592  1
  O  O318  1  0.00360904  0.61702848  0.50713122  1
  O  O319  1  0.50348533  0.11254857  0.00009776  1
  O  O320  1  0.49917354  0.13252513  0.51692212  1
  O  O321  1  0.49838351  0.61487563  -0.00174175  1
  O  O322  1  0.50934598  0.62237622  0.50405251  1
  O  O323  1  0.50353800  0.38288892  0.48903407  1
  O  O324  1  0.49003236  0.37954283  0.99338139  1
  O  O325  1  0.49154075  0.86783610  0.49468393  1
  O  O326  1  0.49432454  0.88699207  0.99871111  1
  O  O327  1  0.99998751  0.38648258  0.50892682  1
  O  O328  1  0.99164598  0.38384947  0.99661784  1
  O  O329  1  1.00214666  0.87722480  0.48516047  1
  O  O330  1  0.99307791  0.87423938  0.99679638  1
  O  O331  1  0.49724016  0.49468224  0.37757247  1
  O  O332  1  0.49051399  0.49356158  0.88126180  1
  O  O333  1  0.49423082  0.98742592  0.37301759  1
  O  O334  1  0.50266352  1.00183084  0.88548489  1
  O  O335  1  0.99180396  0.50533496  0.38372871  1
  O  O336  1  0.98965806  0.49492640  0.88369089  1
  O  O337  1  0.99035735  0.98989124  0.36840033  1
  O  O338  1  0.99430081  0.99431286  0.88251869  1
  O  O339  1  0.00442392  0.00812768  0.11850680  1
  O  O340  1  0.01401185  -0.00519529  0.62925188  1
  O  O341  1  -0.00419685  0.49663522  0.10894166  1
  O  O342  1  0.00087860  0.50644712  0.61885484  1
  O  O343  1  0.51054340  -0.00016348  0.12163815  1
  O  O344  1  0.49889169  0.01384605  0.63022122  1
  O  O345  1  0.49590142  0.49997048  0.11787491  1
  O  O346  1  0.49850053  0.51112102  0.61463494  1
  O  O347  1  0.25608379  0.38886975  0.24428312  1
  O  O348  1  0.24362632  0.38117033  0.74830971  1
  O  O349  1  0.23277734  0.88417277  0.25787713  1
  O  O350  1  0.24537887  0.88268024  0.74832489  1
  O  O351  1  0.75817172  0.38593494  0.23789851  1
  O  O352  1  0.73869841  0.36944451  0.74013637  1
  O  O353  1  0.74015244  0.87857294  0.25003298  1
  O  O354  1  0.73744988  0.86637895  0.74330909  1
  O  O355  1  0.26088885  0.11556838  0.24535306  1
  O  O356  1  0.25586681  0.12046057  0.75375462  1
  O  O357  1  0.25159977  0.61187707  0.25632848  1
  O  O358  1  0.25152983  0.61893909  0.75589314  1
  O  O359  1  0.75262825  0.11557601  0.25405615  1
  O  O360  1  0.75662112  0.13161987  0.76107146  1
  O  O361  1  0.75292336  0.62146099  0.25906599  1
  O  O362  1  0.75262210  0.63214256  0.76447412  1
  O  O363  1  0.38615534  0.10581326  0.37779270  1
  O  O364  1  0.36484575  0.12762517  0.86260445  1
  O  O365  1  0.36527829  0.61864076  0.37991141  1
  O  O366  1  0.36452818  0.61824975  0.86984614  1
  O  O367  1  0.87272562  0.11981928  0.36690613  1
  O  O368  1  0.86742499  0.11759176  0.86908673  1
  O  O369  1  0.86444408  0.61907348  0.37572350  1
  O  O370  1  0.86833119  0.61490157  0.87156100  1
  O  O371  1  0.13621936  0.37127631  0.12437885  1
  O  O372  1  0.12840450  0.37295374  0.63759838  1
  O  O373  1  0.12139083  0.88487526  0.13809248  1
  O  O374  1  0.13117433  0.88502052  0.62947031  1
  O  O375  1  0.63617344  0.37794507  0.11959477  1
  O  O376  1  0.63374048  0.37139043  0.63352163  1
  O  O377  1  0.62680167  0.88157345  0.13393645  1
  O  O378  1  0.63495964  0.87531516  0.63441199  1
  O  O379  1  0.12914348  0.25140310  0.26598660  1
  O  O380  1  0.11868270  0.25133837  0.75364688  1
  O  O381  1  0.13034648  0.76383484  0.24870512  1
  O  O382  1  0.11269082  0.75691700  0.74489828  1
  O  O383  1  0.61455827  0.24819508  0.25382985  1
  O  O384  1  0.61419122  0.25672167  0.75570634  1
  O  O385  1  0.61889482  0.75795489  0.25301398  1
  O  O386  1  0.61616251  0.75893425  0.75198822  1
  O  O387  1  0.38331771  0.25308936  0.24452196  1
  O  O388  1  0.38364836  0.24258694  0.75325185  1
  O  O389  1  0.38050451  0.76285813  0.23800485  1
  O  O390  1  0.38061886  0.74750259  0.74452365  1
  O  O391  1  0.85590569  0.22776974  0.23924773  1
  O  O392  1  0.88121898  0.24094038  0.74541998  1
  O  O393  1  0.87041564  0.73426761  0.25140012  1
  O  O394  1  0.88555859  0.74914975  0.73955030  1
  O  O395  1  0.38991772  0.50219352  0.48853694  1
  O  O396  1  0.37955707  0.49552613  0.99722102  1
  O  O397  1  0.37244855  0.98974545  0.49431047  1
  O  O398  1  0.38739864  0.98963631  1.00469937  1
  O  O399  1  0.88592302  0.50083974  0.49303141  1
  O  O400  1  0.88246187  0.49517391  0.99240613  1
  O  O401  1  0.87037163  1.00049239  0.48745524  1
  O  O402  1  0.88523554  1.00090188  0.99036209  1
  O  O403  1  0.10829236  -0.00857406  0.00824375  1
  O  O404  1  0.13055411  0.00994012  0.51153328  1
  O  O405  1  0.11215265  0.50467101  -0.00431765  1
  O  O406  1  0.11987461  0.50171436  0.50183559  1
  O  O407  1  0.61493497  0.00027504  0.00487300  1
  O  O408  1  0.63336358  0.00774176  0.50655253  1
  O  O409  1  0.60742046  0.49674686  -0.00095840  1
  O  O410  1  0.61381499  0.50955796  0.49275295  1
  O  O411  1  0.36655926  0.36425203  0.11951360  1
  O  O412  1  0.37535074  0.37599314  0.61786186  1
  O  O413  1  0.38001439  0.86421596  0.11247684  1
  O  O414  1  0.37094443  0.87284764  0.62036678  1
  O  O415  1  0.86125219  0.37505512  0.10807067  1
  O  O416  1  0.86610974  0.36115578  0.62600417  1
  O  O417  1  0.87501832  0.87846457  0.12594969  1
  O  O418  1  0.87077314  0.86833402  0.62578707  1
  O  O419  1  0.12480472  0.11770810  0.38656767  1
  O  O420  1  0.13275599  0.13642920  0.86903763  1
  O  O421  1  0.14009055  0.62836741  0.37625049  1
  O  O422  1  0.13323558  0.61791485  0.87823621  1
  O  O423  1  0.63076696  0.13712972  0.37260296  1
  O  O424  1  0.63140062  0.12823088  0.87624504  1
  O  O425  1  0.63777367  0.63018235  0.38742130  1
  O  O426  1  0.63288793  0.62839144  0.88050531  1
