# generated using pymatgen
data_V85Zn86O256
_symmetry_space_group_name_H-M   'P 1'
_cell_length_a   16.93159762
_cell_length_b   16.92407812
_cell_length_c   16.92172992
_cell_angle_alpha   89.95952255
_cell_angle_beta   90.03164272
_cell_angle_gamma   89.99411829
_symmetry_Int_Tables_number   1
_chemical_formula_structural   V85Zn86O256
_chemical_formula_sum   'V85 Zn86 O256'
_cell_volume   4848.94817593
_cell_formula_units_Z   1
loop_
 _symmetry_equiv_pos_site_id
 _symmetry_equiv_pos_as_xyz
  1  'x, y, z'
loop_
 _atom_site_type_symbol
 _atom_site_label
 _atom_site_symmetry_multiplicity
 _atom_site_fract_x
 _atom_site_fract_y
 _atom_site_fract_z
 _atom_site_occupancy
  V  V0  1  0.36882358  0.74937635  0.11819425  1
  V  V1  1  0.24985123  0.62905292  0.88362727  1
  V  V2  1  0.12297136  0.00473596  0.12170945  1
  V  V3  1  0.86991482  -0.01017236  0.87878797  1
  V  V4  1  0.00689670  0.35460575  0.87860832  1
  V  V5  1  0.38467947  0.00061755  0.36949360  1
  V  V6  1  0.10426930  0.01307489  0.61775687  1
  V  V7  1  0.61530255  -0.00010010  0.12088274  1
  V  V8  1  0.87584330  0.37798302  0.00162166  1
  V  V9  1  0.75127481  0.00361852  0.74460692  1
  V  V10  1  0.62358193  0.74470798  0.88046931  1
  V  V11  1  0.23757562  0.12629783  0.87316250  1
  V  V12  1  0.00329797  0.75156728  0.75059700  1
  V  V13  1  0.62371488  0.87922715  0.74613795  1
  V  V14  1  0.12643965  0.87276963  0.25316469  1
  V  V15  1  0.00589575  0.87800327  0.38023267  1
  V  V16  1  0.87803698  0.00267505  0.37698787  1
  V  V17  1  0.63016110  0.62318657  0.49373131  1
  V  V18  1  0.75482589  0.26632073  0.51874344  1
  V  V19  1  0.62139564  0.87701527  0.25382594  1
  V  V20  1  0.62207011  0.25096434  0.87685637  1
  V  V21  1  -0.00131578  0.62676978  0.62598547  1
  V  V22  1  0.61650990  0.12123427  -0.00063469  1
  V  V23  1  0.50222911  0.62267572  0.62310825  1
  V  V24  1  0.26477038  0.36866796  0.12477263  1
  V  V25  1  0.87630641  0.12852014  0.24832261  1
  V  V26  1  0.00674258  0.24900381  0.25158314  1
  V  V27  1  0.49920063  0.25050525  0.74974422  1
  V  V28  1  0.49991551  0.74991041  0.75027246  1
  V  V29  1  0.37727360  0.37233600  0.50052204  1
  V  V30  1  0.50332400  0.49878081  0.00002398  1
  V  V31  1  0.00278122  0.50321855  -0.00220087  1
  V  V32  1  0.74328008  0.13831208  0.37833435  1
  V  V33  1  0.00090435  0.37533029  0.37512711  1
  V  V34  1  0.37365281  0.62440765  0.25015069  1
  V  V35  1  0.50465616  0.36326903  0.37758498  1
  V  V36  1  0.74889577  0.74428238  0.00090801  1
  V  V37  1  0.50017838  0.88000464  0.88189263  1
  V  V38  1  -0.05463339  0.44592717  0.54103063  1
  V  V39  1  0.50196628  0.62655621  0.11864535  1
  V  V40  1  0.37436282  0.00187380  0.87946365  1
  V  V41  1  0.24625126  0.74967813  0.48858230  1
  V  V42  1  0.62873664  0.36985519  0.25291110  1
  V  V43  1  0.37601441  0.49881420  0.37622802  1
  V  V44  1  0.74547653  0.87890918  0.62010923  1
  V  V45  1  0.37287080  0.87496313  -0.00151031  1
  V  V46  1  0.63333560  0.74597931  0.37058232  1
  V  V47  1  0.12272639  0.62483571  0.49266636  1
  V  V48  1  0.87812065  0.75568143  0.12010041  1
  V  V49  1  0.00214302  0.74905632  0.25901530  1
  V  V50  1  0.12714462  0.50023832  0.62164982  1
  V  V51  1  0.37228336  0.49672639  0.88024728  1
  V  V52  1  0.87120163  0.50051159  0.37565068  1
  V  V53  1  0.75001626  0.25088532  0.00336485  1
  V  V54  1  0.37258528  0.12145171  0.74928159  1
  V  V55  1  0.24471720  0.87255138  0.11599146  1
  V  V56  1  0.63342067  0.38232393  0.74818235  1
  V  V57  1  -0.00687089  -0.00033383  -0.00137500  1
  V  V58  1  0.25355032  0.25212254  -0.00287984  1
  V  V59  1  0.86702289  0.62643381  0.25460291  1
  V  V60  1  0.87406080  0.74879766  0.62918549  1
  V  V61  1  0.75196989  0.62551135  0.86324486  1
  V  V62  1  0.75046745  0.00166801  0.24846785  1
  V  V63  1  0.25146416  0.37370644  0.62523559  1
  V  V64  1  -0.01464897  0.14678454  0.61972363  1
  V  V65  1  0.62827642  0.50322379  0.12352230  1
  V  V66  1  0.37194344  0.74810063  0.62254118  1
  V  V67  1  0.37822244  0.24672841  0.62205454  1
  V  V68  1  0.12548520  0.36013329  0.75502972  1
  V  V69  1  0.38321943  0.87366728  0.49245958  1
  V  V70  1  0.74934900  0.12192822  0.87529550  1
  V  V71  1  0.00255010  0.87693317  0.87134184  1
  V  V72  1  0.12750793  0.37504753  0.25066608  1
  V  V73  1  0.49523539  0.37427305  0.87953264  1
  V  V74  1  0.49784864  0.75434047  0.25457085  1
  V  V75  1  0.49425505  0.24770009  0.23928969  1
  V  V76  1  0.87516530  0.50877414  0.86775548  1
  V  V77  1  0.24203781  0.87725773  0.62761521  1
  V  V78  1  0.87684850  0.87758025  0.49932482  1
  V  V79  1  0.75281224  0.87776256  0.11826128  1
  V  V80  1  0.24268138  0.24312087  0.49575801  1
  V  V81  1  0.00214903  0.62580508  0.12620300  1
  V  V82  1  0.24882454  0.50092764  0.75245133  1
  V  V83  1  0.23679361  0.12189413  0.37817404  1
  V  V84  1  0.12921642  0.75548950  0.87852680  1
  Zn  Zn85  1  0.48710267  0.12539606  0.11579330  1
  Zn  Zn86  1  0.87742293  0.25222967  0.12420356  1
  Zn  Zn87  1  0.75233554  0.74921208  0.49284091  1
  Zn  Zn88  1  0.12912318  0.63061488  0.00346895  1
  Zn  Zn89  1  0.51012389  -0.00107112  0.50328366  1
  Zn  Zn90  1  0.36575473  0.13141234  0.24485845  1
  Zn  Zn91  1  0.37454075  0.62434877  0.75076785  1
  Zn  Zn92  1  0.24985970  0.49873120  0.24784713  1
  Zn  Zn93  1  0.24555222  0.62410717  0.37178225  1
  Zn  Zn94  1  0.24886074  0.00190880  0.24802970  1
  Zn  Zn95  1  0.12784743  0.49919698  0.12485935  1
  Zn  Zn96  1  0.75188989  0.37919068  0.12676943  1
  Zn  Zn97  1  0.74677543  0.50236376  0.25458536  1
  Zn  Zn98  1  0.51022030  0.11026742  0.62608832  1
  Zn  Zn99  1  -0.00210915  0.12848001  0.11854520  1
  Zn  Zn100  1  0.11411924  0.13352116  -0.01206909  1
  Zn  Zn101  1  0.24269984  -0.00745023  0.75003454  1
  Zn  Zn102  1  0.87922538  0.14827652  0.74880500  1
  Zn  Zn103  1  0.63410979  0.50139495  0.62680756  1
  Zn  Zn104  1  0.77388641  0.38637472  0.63281621  1
  Zn  Zn105  1  0.50317779  0.49590542  0.50160616  1
  Zn  Zn106  1  0.62900377  0.12105756  0.51314957  1
  Zn  Zn107  1  0.18776337  0.18939780  0.18682429  1
  Zn  Zn108  1  0.18661098  0.18010937  0.68002590  1
  Zn  Zn109  1  0.18689804  0.68957728  0.18882003  1
  Zn  Zn110  1  0.18612816  0.68790364  0.69018327  1
  Zn  Zn111  1  0.68499380  0.18794967  0.18690034  1
  Zn  Zn112  1  0.69097390  0.19456322  0.68621016  1
  Zn  Zn113  1  0.68656467  0.68777947  0.18539756  1
  Zn  Zn114  1  0.68553523  0.69164925  0.68526956  1
  Zn  Zn115  1  0.31257414  0.30933371  0.31454793  1
  Zn  Zn116  1  0.31041296  0.31083626  0.81403750  1
  Zn  Zn117  1  0.31172677  0.81543447  0.30899249  1
  Zn  Zn118  1  0.31260350  0.81033896  0.81057076  1
  Zn  Zn119  1  0.81736843  0.31569561  0.31395071  1
  Zn  Zn120  1  0.81306489  0.31475193  0.82044673  1
  Zn  Zn121  1  0.81322044  0.81542782  0.30788302  1
  Zn  Zn122  1  0.81366609  0.81188352  0.80991037  1
  Zn  Zn123  1  0.18830990  0.43525581  0.43651622  1
  Zn  Zn124  1  0.18667223  0.43478764  0.94212527  1
  Zn  Zn125  1  0.19210624  0.94066217  0.44098611  1
  Zn  Zn126  1  0.18374689  0.94067864  0.93700691  1
  Zn  Zn127  1  0.68809750  0.43901867  0.43833782  1
  Zn  Zn128  1  0.68749583  0.44080072  0.93607274  1
  Zn  Zn129  1  0.68798537  0.94070997  0.43476507  1
  Zn  Zn130  1  0.68555896  0.93395031  0.93877563  1
  Zn  Zn131  1  0.30875313  0.06491334  0.06018120  1
  Zn  Zn132  1  0.32409619  0.05792555  0.55977413  1
  Zn  Zn133  1  0.31344049  0.55590551  0.06254983  1
  Zn  Zn134  1  0.31190961  0.56262687  0.55931827  1
  Zn  Zn135  1  0.81167055  0.06277057  0.06067265  1
  Zn  Zn136  1  0.81827818  0.06493473  0.56138101  1
  Zn  Zn137  1  0.81420016  0.56654350  0.06138479  1
  Zn  Zn138  1  0.80453223  0.56701187  0.57050993  1
  Zn  Zn139  1  0.44104343  0.43743971  0.19097339  1
  Zn  Zn140  1  0.43908262  0.43799490  0.69200445  1
  Zn  Zn141  1  0.43422146  0.93889527  0.18572538  1
  Zn  Zn142  1  0.43203605  0.93380721  0.68932388  1
  Zn  Zn143  1  0.93890425  0.43957385  0.18825934  1
  Zn  Zn144  1  0.94702816  0.43696046  0.70700731  1
  Zn  Zn145  1  0.93892071  0.93841743  0.18883301  1
  Zn  Zn146  1  0.93560095  0.93775246  0.69010198  1
  Zn  Zn147  1  0.06184906  0.05995212  0.31187994  1
  Zn  Zn148  1  0.05943629  0.05856499  0.79805843  1
  Zn  Zn149  1  0.05830929  0.55557367  0.31272779  1
  Zn  Zn150  1  0.06472518  0.56457094  0.81062889  1
  Zn  Zn151  1  0.56378215  0.06431732  0.31403842  1
  Zn  Zn152  1  0.56154656  0.06144603  0.80847349  1
  Zn  Zn153  1  0.55950187  0.55968164  0.31137547  1
  Zn  Zn154  1  0.56260104  0.56449540  0.81384065  1
  Zn  Zn155  1  0.43966226  0.18094210  0.43619384  1
  Zn  Zn156  1  0.43046085  0.18928245  0.93908615  1
  Zn  Zn157  1  0.44134547  0.68749116  0.43631116  1
  Zn  Zn158  1  0.43621348  0.68588779  0.93835778  1
  Zn  Zn159  1  0.93593812  0.19283725  0.43914167  1
  Zn  Zn160  1  0.92953700  0.19122928  0.91738715  1
  Zn  Zn161  1  0.93733908  0.68681903  0.44034812  1
  Zn  Zn162  1  0.93752857  0.69004838  0.93881222  1
  Zn  Zn163  1  0.06716564  0.31051764  0.06457362  1
  Zn  Zn164  1  0.06808804  0.30565278  0.56686503  1
  Zn  Zn165  1  0.05976949  0.81596854  0.05789102  1
  Zn  Zn166  1  0.06479785  0.81062244  0.55943679  1
  Zn  Zn167  1  0.56314925  0.31565575  0.06398433  1
  Zn  Zn168  1  0.56937942  0.30208359  0.56160295  1
  Zn  Zn169  1  0.56245136  0.81276826  0.06325925  1
  Zn  Zn170  1  0.56314700  0.81061567  0.56027096  1
  O  O171  1  0.12124041  0.11146149  0.12869193  1
  O  O172  1  0.10798910  0.12001331  0.62042699  1
  O  O173  1  0.11404805  0.62637984  0.12453548  1
  O  O174  1  0.11962904  0.61767500  0.61928540  1
  O  O175  1  0.62298644  0.11623105  0.11669477  1
  O  O176  1  0.62230498  0.12838436  0.63155383  1
  O  O177  1  0.61469176  0.61435828  0.13168763  1
  O  O178  1  0.61670858  0.62755599  0.61771400  1
  O  O179  1  0.38198875  0.37987407  0.38038540  1
  O  O180  1  0.38295174  0.38361470  0.87138804  1
  O  O181  1  0.36803298  0.88545287  0.38066167  1
  O  O182  1  0.38044417  0.87961638  0.87762745  1
  O  O183  1  0.88581781  0.38641756  0.37320011  1
  O  O184  1  0.88650201  0.38924643  0.88772126  1
  O  O185  1  0.88069971  0.88122364  0.37948218  1
  O  O186  1  0.88086596  0.88226493  0.87398498  1
  O  O187  1  0.25696687  0.00970941  0.37327682  1
  O  O188  1  0.25490053  0.00669868  0.87067345  1
  O  O189  1  0.26434023  0.50036873  0.37273002  1
  O  O190  1  0.25638175  0.50411532  0.87401930  1
  O  O191  1  0.76315870  0.00429815  0.36531630  1
  O  O192  1  0.75284788  -0.00124907  0.86889820  1
  O  O193  1  0.76563718  0.49719384  0.37389669  1
  O  O194  1  0.76434484  0.51108120  0.88459202  1
  O  O195  1  0.24807171  0.48573349  0.12490068  1
  O  O196  1  0.24552553  0.49574214  0.63128740  1
  O  O197  1  0.23830203  0.99090253  0.12526072  1
  O  O198  1  0.26015304  0.98205781  0.62400967  1
  O  O199  1  0.74070811  0.50248574  0.12458531  1
  O  O200  1  0.74750495  0.49585413  0.63123167  1
  O  O201  1  0.74333456  0.99345913  0.12888235  1
  O  O202  1  0.75791156  0.98751491  0.63122063  1
  O  O203  1  0.00702085  0.36965782  0.25450539  1
  O  O204  1  0.01261463  0.36940395  0.76596277  1
  O  O205  1  0.00473110  0.86866229  0.25951509  1
  O  O206  1  -0.00262331  0.86842541  0.76188595  1
  O  O207  1  0.50596301  0.36537227  0.25532152  1
  O  O208  1  0.50540352  0.37005642  0.76235887  1
  O  O209  1  0.50866979  0.86529144  0.24006913  1
  O  O210  1  0.50512174  0.87007257  0.75798020  1
  O  O211  1  0.50594184  0.14277898  0.25013901  1
  O  O212  1  0.48660201  0.13133976  0.75211123  1
  O  O213  1  0.48929842  0.63003700  0.23944150  1
  O  O214  1  0.49981173  0.63244093  0.74230531  1
  O  O215  1  0.99318017  0.13256196  0.25102401  1
  O  O216  1  0.99223220  0.11494997  0.72756361  1
  O  O217  1  0.99637766  0.63308957  0.24450316  1
  O  O218  1  1.00386238  0.63164372  0.73485357  1
  O  O219  1  0.35491830  0.24163128  0.00572828  1
  O  O220  1  0.37114155  0.25363693  0.50691526  1
  O  O221  1  0.37905507  0.75545009  0.01178189  1
  O  O222  1  0.36853567  0.75246524  0.50332079  1
  O  O223  1  0.86691909  0.25947779  -0.00088397  1
  O  O224  1  0.85079230  0.24965291  0.49132923  1
  O  O225  1  0.86974928  0.74985018  0.01346112  1
  O  O226  1  0.87300879  0.76121938  0.50459339  1
  O  O227  1  0.14362670  0.25170808  0.50229811  1
  O  O228  1  0.14406850  0.24262732  1.01356444  1
  O  O229  1  0.13536740  0.73866039  0.50317430  1
  O  O230  1  0.11800341  0.74835944  0.98416292  1
  O  O231  1  0.64889798  0.24310459  0.50465373  1
  O  O232  1  0.63042894  0.24498623  0.99697895  1
  O  O233  1  0.62433779  0.74578390  0.48545346  1
  O  O234  1  0.63367314  0.75494677  0.99180315  1
  O  O235  1  0.50080900  0.24960252  0.13552200  1
  O  O236  1  0.48741204  0.25262723  0.63131127  1
  O  O237  1  0.49415649  0.74272813  0.13114219  1
  O  O238  1  0.49280484  0.74105072  0.62782057  1
  O  O239  1  0.99688072  0.24758899  0.13419698  1
  O  O240  1  0.99524913  0.24637887  0.62868519  1
  O  O241  1  0.99394223  0.74803763  0.13144412  1
  O  O242  1  0.99602075  0.74742617  0.63201575  1
  O  O243  1  -0.00639940  0.26435830  0.36715162  1
  O  O244  1  0.02316558  0.25988556  0.90261884  1
  O  O245  1  -0.00425262  0.75760527  0.36363479  1
  O  O246  1  0.00315735  0.75641988  0.86915345  1
  O  O247  1  0.49729146  0.25992165  0.36620101  1
  O  O248  1  0.50112478  0.25753783  0.87269934  1
  O  O249  1  0.50751011  0.74679860  0.35887175  1
  O  O250  1  0.50642297  0.75459061  0.87177223  1
  O  O251  1  0.25873118  0.12935709  0.48790798  1
  O  O252  1  0.24375865  0.13040433  0.98851622  1
  O  O253  1  0.24267580  0.63275404  0.49767539  1
  O  O254  1  0.24940509  0.61975350  0.98821604  1
  O  O255  1  0.75406770  0.12566517  0.48496776  1
  O  O256  1  0.74111896  0.13241990  0.99555053  1
  O  O257  1  0.73457983  0.63247741  0.50307114  1
  O  O258  1  0.75356928  0.63962383  0.99312304  1
  O  O259  1  0.24768731  0.36471402  0.01162438  1
  O  O260  1  0.25832357  0.36741719  0.50496459  1
  O  O261  1  0.25273636  0.87729932  0.00945419  1
  O  O262  1  0.25843110  0.86509950  0.50723550  1
  O  O263  1  0.75810199  0.36949884  -0.00085442  1
  O  O264  1  0.74820444  0.36895422  0.50655488  1
  O  O265  1  0.74667854  0.86564218  0.01219048  1
  O  O266  1  0.75715462  0.87157904  0.50523084  1
  O  O267  1  0.12910232  0.49238364  0.24658625  1
  O  O268  1  0.12936308  0.49598230  0.73820762  1
  O  O269  1  0.12151186  0.98745190  0.24024446  1
  O  O270  1  0.12974087  1.00077944  0.72392438  1
  O  O271  1  0.62458951  0.49138552  0.24226785  1
  O  O272  1  0.61952409  0.48508150  0.75324068  1
  O  O273  1  0.62937768  0.99386566  0.24350693  1
  O  O274  1  0.63540701  0.98733427  0.75584871  1
  O  O275  1  0.36906176  -0.00639141  0.26184698  1
  O  O276  1  0.36909011  0.00627940  0.76141434  1
  O  O277  1  0.37509433  0.50881363  0.25615070  1
  O  O278  1  0.36935674  0.50231802  0.76235152  1
  O  O279  1  0.87117851  0.00788149  0.25524167  1
  O  O280  1  0.85944594  -0.00597803  0.75828000  1
  O  O281  1  0.87481577  0.51008621  0.25609560  1
  O  O282  1  0.87683015  0.50159903  0.76879072  1
  O  O283  1  0.11905354  0.38085839  0.36143491  1
  O  O284  1  0.11681024  0.38456067  0.86633363  1
  O  O285  1  0.11784923  0.88382246  0.36721674  1
  O  O286  1  0.11727458  0.86887048  0.87420594  1
  O  O287  1  0.61575313  0.38243538  0.36557839  1
  O  O288  1  0.61773540  0.37213607  0.86860588  1
  O  O289  1  0.63014616  0.86792593  0.35868068  1
  O  O290  1  0.61713619  0.86703588  0.86983070  1
  O  O291  1  0.37807596  0.10732858  0.13494123  1
  O  O292  1  0.37166181  0.13371721  0.63436911  1
  O  O293  1  0.37859636  0.63112592  0.12965498  1
  O  O294  1  0.38028624  0.63414777  0.62360925  1
  O  O295  1  0.87461685  0.12482512  0.13768252  1
  O  O296  1  0.87912568  0.13034059  0.63179219  1
  O  O297  1  0.88570163  0.63310999  0.13239954  1
  O  O298  1  0.88252102  0.64107105  0.61752652  1
  O  O299  1  0.25196601  0.26212390  0.12193170  1
  O  O300  1  0.26085424  0.25252157  0.61854589  1
  O  O301  1  0.25820284  0.75772132  0.12740288  1
  O  O302  1  0.25578609  0.75360177  0.61783763  1
  O  O303  1  0.75131287  0.25242281  0.11318547  1
  O  O304  1  0.76005579  0.26614869  0.62470611  1
  O  O305  1  0.75596120  0.75555069  0.11945126  1
  O  O306  1  0.75834089  0.76192412  0.62509152  1
  O  O307  1  0.25696970  0.23355310  0.38229142  1
  O  O308  1  0.25101399  0.24305581  0.88660033  1
  O  O309  1  0.25406182  0.74729612  0.38476916  1
  O  O310  1  0.24164304  0.74225838  0.86931339  1
  O  O311  1  0.75131061  0.23871629  0.37069258  1
  O  O312  1  0.73971380  0.24507898  0.88804838  1
  O  O313  1  0.73764406  0.75177569  0.36918726  1
  O  O314  1  0.74486696  0.74769890  0.88208285  1
  O  O315  1  -0.00326466  0.11375878  -0.00382633  1
  O  O316  1  -0.01172697  0.12984517  0.51761033  1
  O  O317  1  -0.00004961  0.62054474  0.00948797  1
  O  O318  1  0.01040542  0.63398661  0.51375013  1
  O  O319  1  0.51255036  0.13097064  -0.00212091  1
  O  O320  1  0.50666819  0.12429826  0.50437920  1
  O  O321  1  0.49734316  0.61878345  0.01207640  1
  O  O322  1  0.50920126  0.62494246  0.50742024  1
  O  O323  1  0.49807844  0.37174710  0.49367615  1
  O  O324  1  0.50345419  0.38170083  0.98835842  1
  O  O325  1  0.48576836  0.86940998  0.49920740  1
  O  O326  1  0.49394349  0.87076983  0.98834972  1
  O  O327  1  1.00936247  0.37598445  0.49308033  1
  O  O328  1  0.99608716  0.38431388  0.99804334  1
  O  O329  1  0.99449658  0.86755534  0.48653364  1
  O  O330  1  1.00236334  0.88798676  0.98630582  1
  O  O331  1  0.48882244  0.48881588  0.37417811  1
  O  O332  1  0.49427286  0.49614729  0.88161241  1
  O  O333  1  0.48751094  1.00039796  0.37250050  1
  O  O334  1  0.49067754  0.98967819  0.86950231  1
  O  O335  1  0.99019658  0.48707014  0.37589613  1
  O  O336  1  0.99090468  0.50466650  0.88275154  1
  O  O337  1  0.98718142  0.99189683  0.36990050  1
  O  O338  1  0.99182542  0.99386027  0.87576062  1
  O  O339  1  0.00426646  -0.00101104  0.11501858  1
  O  O340  1  0.00445948  -0.00697347  0.61750272  1
  O  O341  1  0.00063769  0.51069459  0.11807838  1
  O  O342  1  0.00498038  0.50507487  0.61988182  1
  O  O343  1  0.51278409  -0.00150963  0.12566065  1
  O  O344  1  0.47352470  0.00216004  0.61429450  1
  O  O345  1  0.50368642  0.50586840  0.11826867  1
  O  O346  1  0.49988010  0.51360997  0.62632373  1
  O  O347  1  0.24567637  0.37205599  0.24217268  1
  O  O348  1  0.24579918  0.38262844  0.74582120  1
  O  O349  1  0.24028295  0.87514070  0.23852096  1
  O  O350  1  0.25522046  0.87153176  0.73183881  1
  O  O351  1  0.74279048  0.37767874  0.24741913  1
  O  O352  1  0.73710889  0.37069992  0.75592744  1
  O  O353  1  0.74267500  0.87986921  0.23809884  1
  O  O354  1  0.74188680  0.87995013  0.74228930  1
  O  O355  1  0.24738115  0.12393188  0.26315201  1
  O  O356  1  0.25941789  0.12541361  0.75514554  1
  O  O357  1  0.26153002  0.62546579  0.25129494  1
  O  O358  1  0.25019814  0.61701402  0.76000888  1
  O  O359  1  0.75674802  0.12271095  0.25631806  1
  O  O360  1  0.75395000  0.11823115  0.75692222  1
  O  O361  1  0.76378034  0.62595376  0.24539971  1
  O  O362  1  0.74815808  0.63513146  0.76381543  1
  O  O363  1  0.37029543  0.11135320  0.36800087  1
  O  O364  1  0.36711132  0.11770409  0.86911690  1
  O  O365  1  0.37753327  0.61746918  0.36661590  1
  O  O366  1  0.36787438  0.61876898  0.87314664  1
  O  O367  1  0.87010294  0.11919712  0.36510988  1
  O  O368  1  0.86234124  0.10304654  0.87893413  1
  O  O369  1  0.88504634  0.61777578  0.36447146  1
  O  O370  1  0.86918314  0.61667176  0.87951213  1
  O  O371  1  0.13140150  0.37673282  0.13782772  1
  O  O372  1  0.13181146  0.38222278  0.63206103  1
  O  O373  1  0.12845670  0.88109082  0.12820088  1
  O  O374  1  0.14042025  0.87236820  0.62156723  1
  O  O375  1  0.62581272  0.38798575  0.13170416  1
  O  O376  1  0.61768150  0.37491315  0.64414555  1
  O  O377  1  0.63168002  0.88064414  0.13117304  1
  O  O378  1  0.63302517  0.86812513  0.63350705  1
  O  O379  1  0.11342596  0.25571747  0.24882253  1
  O  O380  1  0.13710608  0.26173163  0.74524750  1
  O  O381  1  0.11572153  0.76278781  0.24590387  1
  O  O382  1  0.11174847  0.74651111  0.75970197  1
  O  O383  1  0.61681382  0.26412145  0.24325075  1
  O  O384  1  0.61818988  0.25976829  0.75958180  1
  O  O385  1  0.61781680  0.75541309  0.25128337  1
  O  O386  1  0.62027737  0.76182296  0.75806964  1
  O  O387  1  0.39069918  0.25061167  0.25120236  1
  O  O388  1  0.37802459  0.24309091  0.74382297  1
  O  O389  1  0.38082476  0.74591438  0.24094435  1
  O  O390  1  0.38213712  0.74725098  0.74015721  1
  O  O391  1  0.88427291  0.24394201  0.24775690  1
  O  O392  1  0.89413003  0.24144790  0.81210033  1
  O  O393  1  0.88242975  0.74506018  0.24210646  1
  O  O394  1  0.88770495  0.75468956  0.74082914  1
  O  O395  1  0.37926466  0.49273678  0.49346870  1
  O  O396  1  0.38710676  0.50314038  0.98866875  1
  O  O397  1  0.37456360  0.98906300  0.48304353  1
  O  O398  1  0.36954042  0.99276123  0.98622755  1
  O  O399  1  0.87929341  0.51264924  0.49338381  1
  O  O400  1  0.88500809  0.49687001  0.99678826  1
  O  O401  1  0.87092034  0.98657916  0.49113048  1
  O  O402  1  0.88036690  0.99720812  0.99400073  1
  O  O403  1  0.11464380  0.00490660  0.00638573  1
  O  O404  1  0.13413788  -0.00565613  0.52295954  1
  O  O405  1  0.11271128  0.50417610  0.00177071  1
  O  O406  1  0.13416951  0.50620181  0.51385447  1
  O  O407  1  0.63101059  0.00889637  0.00804002  1
  O  O408  1  0.62331271  0.00513087  0.49390957  1
  O  O409  1  0.61257000  0.49794546  0.00640795  1
  O  O410  1  0.62116161  0.50898795  0.50231209  1
  O  O411  1  0.36322234  0.37866515  0.12897831  1
  O  O412  1  0.37053341  0.36895385  0.62235486  1
  O  O413  1  0.36598461  0.86907304  0.11929808  1
  O  O414  1  0.36792460  0.85965976  0.61645964  1
  O  O415  1  0.87393711  0.37723064  0.11302537  1
  O  O416  1  0.89229239  0.39285493  0.61624685  1
  O  O417  1  0.86571423  0.86701304  0.13304611  1
  O  O418  1  0.87043126  0.86784871  0.61690098  1
  O  O419  1  0.13742475  0.11595936  0.37830671  1
  O  O420  1  0.13487531  0.11643182  0.86722999  1
  O  O421  1  0.12377644  0.61535630  0.38874090  1
  O  O422  1  0.13311538  0.63291735  0.87671403  1
  O  O423  1  0.64338523  0.12341173  0.37074531  1
  O  O424  1  0.62919349  0.12810582  0.88018943  1
  O  O425  1  0.61814232  0.63240247  0.38014940  1
  O  O426  1  0.63114010  0.63776979  0.87297030  1
