# generated using pymatgen
data_V85Zn86O256
_symmetry_space_group_name_H-M   'P 1'
_cell_length_a   16.95431029
_cell_length_b   16.95977101
_cell_length_c   16.93973627
_cell_angle_alpha   89.96791793
_cell_angle_beta   90.03020815
_cell_angle_gamma   90.11662103
_symmetry_Int_Tables_number   1
_chemical_formula_structural   V85Zn86O256
_chemical_formula_sum   'V85 Zn86 O256'
_cell_volume   4870.86090909
_cell_formula_units_Z   1
loop_
 _symmetry_equiv_pos_site_id
 _symmetry_equiv_pos_as_xyz
  1  'x, y, z'
loop_
 _atom_site_type_symbol
 _atom_site_label
 _atom_site_symmetry_multiplicity
 _atom_site_fract_x
 _atom_site_fract_y
 _atom_site_fract_z
 _atom_site_occupancy
  V  V0  1  0.74216524  0.75018146  0.49696389  1
  V  V1  1  0.51558221  0.00648337  -0.00237833  1
  V  V2  1  0.25430017  0.35793397  0.61947797  1
  V  V3  1  0.13006615  0.88233697  0.75349656  1
  V  V4  1  0.25370217  0.75172483  0.01235406  1
  V  V5  1  0.87247603  0.00164230  0.37304620  1
  V  V6  1  0.62834266  0.75339729  0.86700461  1
  V  V7  1  -0.00072614  0.87578277  0.37313338  1
  V  V8  1  0.00062127  0.24865979  0.25671227  1
  V  V9  1  0.49508870  0.24676928  0.75071414  1
  V  V10  1  0.73903129  0.00054190  0.24504671  1
  V  V11  1  0.24970118  0.61502153  0.36501487  1
  V  V12  1  0.00381868  0.75097308  0.75166780  1
  V  V13  1  0.12501501  0.00249543  0.62496295  1
  V  V14  1  0.49869606  0.24454670  0.25012633  1
  V  V15  1  0.74411244  0.24814122  0.00268077  1
  V  V16  1  0.50042974  0.37375060  0.87521411  1
  V  V17  1  0.39725269  0.74193811  0.12887324  1
  V  V18  1  0.74449163  0.12979642  0.37262713  1
  V  V19  1  0.50375277  0.36574217  0.37870506  1
  V  V20  1  0.37499415  0.50013251  0.87579506  1
  V  V21  1  0.12619619  0.62425228  0.00285217  1
  V  V22  1  0.86835964  0.74786392  0.12362563  1
  V  V23  1  0.37803135  0.62595376  0.74648406  1
  V  V24  1  0.87939180  0.00284714  0.87870836  1
  V  V25  1  0.87316555  0.37581692  0.00081714  1
  V  V26  1  0.12266817  0.25073716  0.87746400  1
  V  V27  1  0.49267457  0.50234883  0.50102197  1
  V  V28  1  0.76776509  0.50628417  0.24822854  1
  V  V29  1  0.13061122  0.87610312  0.24829981  1
  V  V30  1  0.44546194  0.18250204  0.57861144  1
  V  V31  1  0.11405487  -0.00005483  0.12867764  1
  V  V32  1  0.74506871  0.87933514  0.63261522  1
  V  V33  1  0.74792897  0.12499448  0.87513029  1
  V  V34  1  0.61612729  -0.00238829  0.63143986  1
  V  V35  1  0.00003996  0.50008690  0.00178548  1
  V  V36  1  0.24946288  0.37348878  0.13064831  1
  V  V37  1  0.87459393  0.25240350  0.62166841  1
  V  V38  1  0.00393650  0.88120416  0.88416650  1
  V  V39  1  0.12698159  0.37162650  0.26168381  1
  V  V40  1  -0.00022604  0.12608191  0.62233109  1
  V  V41  1  0.12216852  0.74912403  0.37463355  1
  V  V42  1  0.10604706  0.11782477  0.00257932  1
  V  V43  1  0.74986214  0.62853439  0.37679110  1
  V  V44  1  0.50412507  0.50334143  -0.00101208  1
  V  V45  1  0.49415338  -0.00156096  0.49141690  1
  V  V46  1  0.00015132  0.61520416  0.62255165  1
  V  V47  1  0.62352630  0.24525256  0.87707384  1
  V  V48  1  0.62784355  0.85734279  0.26018611  1
  V  V49  1  0.12917252  0.49809191  0.13190417  1
  V  V50  1  0.62371149  0.37012968  0.24598553  1
  V  V51  1  0.62535650  0.12904862  0.50359650  1
  V  V52  1  -0.00424484  0.62490803  0.13493066  1
  V  V53  1  0.12175920  0.61472143  0.50040526  1
  V  V54  1  0.24892493  0.24140003  0.00032937  1
  V  V55  1  0.87692241  0.62690012  0.75262379  1
  V  V56  1  0.62610311  0.62615015  -0.00261149  1
  V  V57  1  0.62482018  0.50632628  0.61878344  1
  V  V58  1  0.38021850  0.87569348  -0.00054152  1
  V  V59  1  0.74961052  0.50021683  0.75112005  1
  V  V60  1  0.75225219  0.63168756  0.87946151  1
  V  V61  1  0.50525084  0.87557491  0.86496157  1
  V  V62  1  0.12872184  0.75219822  0.87787105  1
  V  V63  1  0.87800328  0.75435044  0.62725183  1
  V  V64  1  0.25440915  0.12295871  0.34712947  1
  V  V65  1  0.24931311  0.87939455  0.62702209  1
  V  V66  1  0.37349616  0.37339590  0.00201503  1
  V  V67  1  0.74482288  0.87831364  0.11530373  1
  V  V68  1  0.36723872  -0.00306624  0.87425065  1
  V  V69  1  0.37123226  0.12183219  0.75245565  1
  V  V70  1  0.87623759  0.12377400  0.24415553  1
  V  V71  1  0.24972154  0.49780950  0.74431780  1
  V  V72  1  0.24563193  0.74952244  0.49940609  1
  V  V73  1  -0.00943911  0.37800230  0.38562318  1
  V  V74  1  0.87847533  0.24960473  0.12520460  1
  V  V75  1  0.56874961  0.55685250  0.17483206  1
  V  V76  1  -0.00082123  0.37675897  0.86717005  1
  V  V77  1  0.13634074  0.13600056  0.48858615  1
  V  V78  1  0.37409527  0.75244412  0.62418299  1
  V  V79  1  0.74985819  0.25643200  0.49402640  1
  V  V80  1  0.75582867  0.37839760  0.62022855  1
  V  V81  1  0.87437283  0.87793775  0.50163233  1
  V  V82  1  0.87394859  0.50149294  0.87570468  1
  V  V83  1  0.50793143  0.12004178  0.12756098  1
  V  V84  1  0.25139667  0.62496906  0.87681377  1
  Zn  Zn85  1  0.37375167  0.35858234  0.50131315  1
  Zn  Zn86  1  0.49082662  0.85799014  0.36013750  1
  Zn  Zn87  1  0.50425874  0.62864398  0.62079064  1
  Zn  Zn88  1  0.12820919  0.37282797  0.74948654  1
  Zn  Zn89  1  0.74713686  0.00061401  0.75111838  1
  Zn  Zn90  1  0.37427282  0.24159499  0.12738388  1
  Zn  Zn91  1  0.12469424  0.49388168  0.62368760  1
  Zn  Zn92  1  0.87319778  0.12437798  0.74737767  1
  Zn  Zn93  1  0.50780143  0.75876868  0.73805022  1
  Zn  Zn94  1  0.36838646  0.88203460  0.48946363  1
  Zn  Zn95  1  -0.00804085  0.74542012  0.25407155  1
  Zn  Zn96  1  0.38590520  0.61887883  0.24333059  1
  Zn  Zn97  1  0.62410295  0.37450715  0.74911240  1
  Zn  Zn98  1  -0.00162431  0.25049270  0.74854233  1
  Zn  Zn99  1  0.87860280  0.50728829  0.38951739  1
  Zn  Zn100  1  0.74516300  0.38161775  0.12388494  1
  Zn  Zn101  1  0.28281901  0.90751507  0.15659136  1
  Zn  Zn102  1  0.87757666  0.87752237  0.00144115  1
  Zn  Zn103  1  0.00081469  0.00333877  0.49866195  1
  Zn  Zn104  1  0.24417010  0.11825747  0.87308107  1
  Zn  Zn105  1  0.35460463  -0.01249366  0.33552564  1
  Zn  Zn106  1  0.36842457  0.48815620  0.36501318  1
  Zn  Zn107  1  0.17537831  0.19088199  0.18012519  1
  Zn  Zn108  1  0.18546172  0.18371203  0.69280706  1
  Zn  Zn109  1  0.18242074  0.69201213  0.18899523  1
  Zn  Zn110  1  0.18734878  0.68745131  0.68801809  1
  Zn  Zn111  1  0.68310913  0.18868971  0.18416078  1
  Zn  Zn112  1  0.68441556  0.18733141  0.68744590  1
  Zn  Zn113  1  0.69771810  0.68894539  0.18957046  1
  Zn  Zn114  1  0.69007319  0.68899410  0.68518740  1
  Zn  Zn115  1  0.31496820  0.30552729  0.31312043  1
  Zn  Zn116  1  0.31173493  0.31136018  0.81224316  1
  Zn  Zn117  1  0.31615204  0.80105841  0.31140987  1
  Zn  Zn118  1  0.31280301  0.81193496  0.81303165  1
  Zn  Zn119  1  0.81084706  0.31634577  0.31122527  1
  Zn  Zn120  1  0.81311990  0.31276232  0.80859881  1
  Zn  Zn121  1  0.81167050  0.81112522  0.30979113  1
  Zn  Zn122  1  0.81487500  0.81499891  0.81468942  1
  Zn  Zn123  1  0.18777933  0.43218251  0.44217820  1
  Zn  Zn124  1  0.18839239  0.43599820  0.94140214  1
  Zn  Zn125  1  0.18622114  0.94276956  0.43723317  1
  Zn  Zn126  1  0.19125236  0.93980633  0.95280742  1
  Zn  Zn127  1  0.68559168  0.44191376  0.43295359  1
  Zn  Zn128  1  0.68542982  0.43629996  0.93726405  1
  Zn  Zn129  1  0.68556202  0.94058967  0.43976843  1
  Zn  Zn130  1  0.69016676  0.93611194  0.93198117  1
  Zn  Zn131  1  0.31108770  0.06599975  0.15970563  1
  Zn  Zn132  1  0.30735014  0.06061163  0.56209816  1
  Zn  Zn133  1  0.31378849  0.56060011  0.06656881  1
  Zn  Zn134  1  0.31230024  0.56029364  0.55992733  1
  Zn  Zn135  1  0.81171497  0.06227126  0.05951320  1
  Zn  Zn136  1  0.81030837  0.06351831  0.56236703  1
  Zn  Zn137  1  0.81075170  0.56430581  0.06409154  1
  Zn  Zn138  1  0.81195013  0.56899118  0.56298788  1
  Zn  Zn139  1  0.42972774  0.43104073  0.19361070  1
  Zn  Zn140  1  0.43440979  0.43247373  0.68530789  1
  Zn  Zn141  1  0.45480661  0.93257912  0.17860168  1
  Zn  Zn142  1  0.43697862  0.94211752  0.68497195  1
  Zn  Zn143  1  0.94058423  0.43228357  0.18811047  1
  Zn  Zn144  1  0.93951838  0.43615684  0.56143927  1
  Zn  Zn145  1  0.93596105  0.93673750  0.18658145  1
  Zn  Zn146  1  0.93884720  0.94142905  0.69354190  1
  Zn  Zn147  1  0.06212890  0.06180519  0.31213330  1
  Zn  Zn148  1  0.06133443  0.06422195  0.80948062  1
  Zn  Zn149  1  0.06385803  0.55631398  0.31384172  1
  Zn  Zn150  1  0.06429281  0.56226794  0.81219869  1
  Zn  Zn151  1  0.56435777  0.06319541  0.31360286  1
  Zn  Zn152  1  0.55828373  0.06583685  0.81146384  1
  Zn  Zn153  1  0.56465519  0.56490093  0.33916316  1
  Zn  Zn154  1  0.56332075  0.56450483  0.81009679  1
  Zn  Zn155  1  0.42809041  0.17935628  0.40999076  1
  Zn  Zn156  1  0.43427208  0.18272485  0.94080856  1
  Zn  Zn157  1  0.42890811  0.68326315  0.43487233  1
  Zn  Zn158  1  0.44202610  0.68930038  0.93603652  1
  Zn  Zn159  1  0.93674852  0.18941837  0.43773691  1
  Zn  Zn160  1  0.93211779  0.19034349  0.93558246  1
  Zn  Zn161  1  0.93266795  0.68727870  0.43922672  1
  Zn  Zn162  1  0.93986114  0.69192723  0.94435680  1
  Zn  Zn163  1  0.05975320  0.31278357  0.06338580  1
  Zn  Zn164  1  0.07133761  0.30787032  0.56440798  1
  Zn  Zn165  1  0.06182467  0.81068884  0.06702892  1
  Zn  Zn166  1  0.06156739  0.81195994  0.56225020  1
  Zn  Zn167  1  0.56273952  0.31224404  0.06639649  1
  Zn  Zn168  1  0.57246935  0.32077308  0.56042764  1
  Zn  Zn169  1  0.57044556  0.81314555  0.05553700  1
  Zn  Zn170  1  0.53808788  0.78915430  0.51852726  1
  O  O171  1  0.11960534  0.11556559  0.11153287  1
  O  O172  1  0.12022402  0.11937986  0.61941546  1
  O  O173  1  0.11958047  0.61678957  0.12235329  1
  O  O174  1  0.11757447  0.62495078  0.61862411  1
  O  O175  1  0.60884796  0.13166143  0.11725537  1
  O  O176  1  0.63306712  0.11144108  0.61447829  1
  O  O177  1  0.62890475  0.62209585  0.11889633  1
  O  O178  1  0.62386388  0.61093620  0.63024533  1
  O  O179  1  0.38599231  0.37006599  0.37968510  1
  O  O180  1  0.37968367  0.38142527  0.88196273  1
  O  O181  1  0.37474937  0.87914394  0.37151718  1
  O  O182  1  0.38441853  0.87702377  0.87859189  1
  O  O183  1  0.88874707  0.37568751  0.37510556  1
  O  O184  1  0.88070602  0.38051412  0.87957366  1
  O  O185  1  0.87986691  0.87961306  0.38133666  1
  O  O186  1  0.88607536  0.88210715  0.87660220  1
  O  O187  1  0.24520408  0.01490902  0.37303410  1
  O  O188  1  0.26375826  -0.00225568  0.88244745  1
  O  O189  1  0.24885047  0.51175700  0.38195165  1
  O  O190  1  0.25646861  0.50463772  0.87066849  1
  O  O191  1  0.75500899  0.00811949  0.36767747  1
  O  O192  1  0.75459823  0.00919747  0.87181511  1
  O  O193  1  0.75472275  0.50557115  0.36468333  1
  O  O194  1  0.75288078  0.50649461  0.86840338  1
  O  O195  1  0.24002216  0.48768250  0.11911730  1
  O  O196  1  0.24857548  0.49554463  0.63300050  1
  O  O197  1  0.22712584  0.99671744  0.11199200  1
  O  O198  1  0.24227037  0.98664751  0.62328446  1
  O  O199  1  0.75495415  0.50076066  0.14259339  1
  O  O200  1  0.74476640  0.49678858  0.63106164  1
  O  O201  1  0.75534837  0.98752918  0.13080179  1
  O  O202  1  0.74175780  0.99494083  0.62624551  1
  O  O203  1  0.00620607  0.36713096  0.25921678  1
  O  O204  1  0.00411936  0.37602393  0.76500187  1
  O  O205  1  0.00408017  0.87554862  0.26321839  1
  O  O206  1  0.01348633  0.87087283  0.75720871  1
  O  O207  1  0.50651938  0.36618475  0.25545670  1
  O  O208  1  0.49913051  0.36749148  0.75775350  1
  O  O209  1  0.52302638  0.87554232  0.24836330  1
  O  O210  1  0.49680726  0.87619877  0.76065451  1
  O  O211  1  0.50733302  0.12836333  0.23852275  1
  O  O212  1  0.48771156  0.13432580  0.75123026  1
  O  O213  1  0.51525690  0.61274778  0.24115384  1
  O  O214  1  0.48676903  0.62567096  0.74586202  1
  O  O215  1  0.98789962  0.13491996  0.25876533  1
  O  O216  1  0.99941243  0.12882140  0.73430860  1
  O  O217  1  1.00444526  0.62204003  0.23797658  1
  O  O218  1  0.99733849  0.63038677  0.74423194  1
  O  O219  1  0.36463270  0.25591651  -0.00176285  1
  O  O220  1  0.39120730  0.23580162  0.50750801  1
  O  O221  1  0.37297988  0.75423960  0.00549228  1
  O  O222  1  0.35854137  0.74988370  0.51075798  1
  O  O223  1  0.86592752  0.25527558  0.00683172  1
  O  O224  1  0.86282071  0.24441373  0.51140744  1
  O  O225  1  0.88176328  0.75801348  0.01711610  1
  O  O226  1  0.87041690  0.76484233  0.50763829  1
  O  O227  1  0.12548892  0.23365595  0.49730635  1
  O  O228  1  0.12514293  0.24360118  0.99409281  1
  O  O229  1  0.13295331  0.74427885  0.49624508  1
  O  O230  1  0.13474816  0.74617161  0.99783210  1
  O  O231  1  0.63450530  0.23739784  0.50764870  1
  O  O232  1  0.63690338  0.25756537  0.99317484  1
  O  O233  1  0.64591203  0.75581076  0.51556703  1
  O  O234  1  0.61954607  0.73353150  0.98662807  1
  O  O235  1  0.49911058  0.23993868  0.12953826  1
  O  O236  1  0.50528938  0.25171165  0.63241951  1
  O  O237  1  0.49505636  0.74733091  0.11783246  1
  O  O238  1  0.48872839  0.74898764  0.61928638  1
  O  O239  1  0.98460885  0.25652188  0.13394391  1
  O  O240  1  0.99201222  0.24539015  0.62388206  1
  O  O241  1  0.99280526  0.74043646  0.12847929  1
  O  O242  1  0.99626843  0.74604148  0.63336214  1
  O  O243  1  -0.00573902  0.26189187  0.36672959  1
  O  O244  1  0.00409807  0.25976601  0.87555958  1
  O  O245  1  0.00412692  0.75761995  0.37580625  1
  O  O246  1  0.00913977  0.75684563  0.87111640  1
  O  O247  1  0.50299775  0.25305693  0.36554716  1
  O  O248  1  0.50658555  0.25205343  0.87247897  1
  O  O249  1  0.50426342  0.75919680  0.41258790  1
  O  O250  1  0.50816785  0.75925214  0.86985754  1
  O  O251  1  0.23665089  0.12397987  0.50068881  1
  O  O252  1  0.23538275  0.13957844  0.99565979  1
  O  O253  1  0.24107727  0.63148601  0.49480682  1
  O  O254  1  0.24548747  0.63041869  0.99665091  1
  O  O255  1  0.74364670  0.13187019  0.49210425  1
  O  O256  1  0.75432556  0.13570095  0.98722594  1
  O  O257  1  0.75621023  0.64510642  0.49885547  1
  O  O258  1  0.74274989  0.61871240  0.98719227  1
  O  O259  1  0.25149204  0.36559705  0.01057950  1
  O  O260  1  0.25236916  0.37087018  0.51333569  1
  O  O261  1  0.26449910  0.86356866  -0.00250120  1
  O  O262  1  0.24806503  0.86791469  0.50711512  1
  O  O263  1  0.75622690  0.36912962  0.00081719  1
  O  O264  1  0.73965511  0.36499007  0.50520138  1
  O  O265  1  0.75004052  0.87831713  0.01251379  1
  O  O266  1  0.75704293  0.87159902  0.50789476  1
  O  O267  1  0.12188186  0.48854254  0.23844412  1
  O  O268  1  0.14015612  0.49990886  0.75154079  1
  O  O269  1  0.11934571  0.99262878  0.23857450  1
  O  O270  1  0.12354110  0.99471403  0.73771514  1
  O  O271  1  0.62256753  0.49931446  0.24300764  1
  O  O272  1  0.63613666  0.49927986  0.74616202  1
  O  O273  1  0.63754688  0.99875957  0.24985185  1
  O  O274  1  0.62412292  1.00669275  0.73542197  1
  O  O275  1  0.36091193  -0.02037259  0.22059162  1
  O  O276  1  0.38110163  0.00840259  0.76097328  1
  O  O277  1  0.37626539  0.50689365  0.25238313  1
  O  O278  1  0.36679646  0.50648706  0.75333625  1
  O  O279  1  0.86697808  0.00815386  0.25290047  1
  O  O280  1  0.87013845  0.00322382  0.76183861  1
  O  O281  1  0.86797490  0.49671443  0.25353801  1
  O  O282  1  0.86119593  0.51097088  0.75936712  1
  O  O283  1  0.11927269  0.37881556  0.36497998  1
  O  O284  1  0.11655529  0.36797090  0.87871099  1
  O  O285  1  0.11652553  0.87206897  0.37102320  1
  O  O286  1  0.12352467  0.87548548  0.87062482  1
  O  O287  1  0.61115903  0.38210474  0.36297394  1
  O  O288  1  0.61933106  0.36357282  0.87170803  1
  O  O289  1  0.62928483  0.87826290  0.36124701  1
  O  O290  1  0.61989026  0.86461463  0.87629089  1
  O  O291  1  0.39625465  0.12761101  0.11698771  1
  O  O292  1  0.37642018  0.12334101  0.63280760  1
  O  O293  1  0.37669952  0.63814539  0.12107482  1
  O  O294  1  0.37243104  0.63346825  0.63141103  1
  O  O295  1  0.86807615  0.13196849  0.13656763  1
  O  O296  1  0.88246410  0.13127081  0.62375510  1
  O  O297  1  0.88142042  0.63713138  0.11987141  1
  O  O298  1  0.88346631  0.63360042  0.63306469  1
  O  O299  1  0.24953699  0.25563443  0.11673668  1
  O  O300  1  0.24693266  0.26015027  0.63176271  1
  O  O301  1  0.25323923  0.74800180  0.11543925  1
  O  O302  1  0.25112817  0.75965025  0.61955117  1
  O  O303  1  0.75772777  0.25239875  0.11761436  1
  O  O304  1  0.75391733  0.25914303  0.61957309  1
  O  O305  1  0.76073830  0.75957757  0.12431517  1
  O  O306  1  0.75949098  0.75860955  0.62036430  1
  O  O307  1  0.25550162  0.22290071  0.36691440  1
  O  O308  1  0.23828971  0.25314469  0.88310315  1
  O  O309  1  0.24322221  0.73958685  0.38320613  1
  O  O310  1  0.24717538  0.74330044  0.88390065  1
  O  O311  1  0.75514253  0.24419760  0.38348820  1
  O  O312  1  0.74360780  0.24684429  0.88036711  1
  O  O313  1  0.75566581  0.74773377  0.38887782  1
  O  O314  1  0.74446571  0.74224279  0.87164285  1
  O  O315  1  0.00848210  0.13169905  -0.00114083  1
  O  O316  1  0.00838813  0.12502475  0.50747701  1
  O  O317  1  0.00765023  0.61947857  0.01009442  1
  O  O318  1  0.00979531  0.63588515  0.51161640  1
  O  O319  1  0.50128496  0.11095158  0.00119252  1
  O  O320  1  0.50402091  0.12292044  0.50358621  1
  O  O321  1  0.50730065  0.61125754  -0.00696739  1
  O  O322  1  0.49228095  0.60616298  0.50306428  1
  O  O323  1  0.49830727  0.37745085  0.49356487  1
  O  O324  1  0.49728269  0.38451153  0.99579180  1
  O  O325  1  0.49246944  0.89464700  0.50165080  1
  O  O326  1  0.49922300  0.88064648  0.98958987  1
  O  O327  1  1.00654899  0.37083355  0.49012110  1
  O  O328  1  0.99260603  0.38139381  0.99332202  1
  O  O329  1  0.99325759  0.87669164  0.49050089  1
  O  O330  1  1.00461370  0.87159175  0.98649588  1
  O  O331  1  0.49536586  0.49023499  0.38921344  1
  O  O332  1  0.49521644  0.49499792  0.88018685  1
  O  O333  1  0.49918279  1.00262489  0.38757385  1
  O  O334  1  0.49585865  0.99451944  0.88216188  1
  O  O335  1  0.99807689  0.48271856  0.37216157  1
  O  O336  1  0.99492542  0.49586565  0.88096827  1
  O  O337  1  0.99173549  0.99337859  0.37746231  1
  O  O338  1  0.99326436  0.99226746  0.86835424  1
  O  O339  1  0.01233931  -0.00644612  0.12162743  1
  O  O340  1  0.00608479  0.00817233  0.62303730  1
  O  O341  1  0.00497360  0.50472542  0.12074799  1
  O  O342  1  0.00283129  0.51177039  0.62772324  1
  O  O343  1  0.50531091  0.00787240  0.10843934  1
  O  O344  1  0.51156700  0.00098524  0.61639993  1
  O  O345  1  0.50332682  0.49848173  0.11917383  1
  O  O346  1  0.50632010  0.49619193  0.61692198  1
  O  O347  1  0.24150214  0.36334258  0.23958905  1
  O  O348  1  0.25071848  0.38236122  0.74239489  1
  O  O349  1  0.23402771  0.86206616  0.25236075  1
  O  O350  1  0.23728764  0.86903456  0.74361480  1
  O  O351  1  0.74134121  0.38962897  0.25274420  1
  O  O352  1  0.75048066  0.38510818  0.74148536  1
  O  O353  1  0.74316666  0.88229821  0.24243028  1
  O  O354  1  0.75370333  0.87572484  0.73594980  1
  O  O355  1  0.24515509  0.12356648  0.24273042  1
  O  O356  1  0.26479451  0.13034995  0.75570247  1
  O  O357  1  0.24183907  0.62810447  0.26494941  1
  O  O358  1  0.25989252  0.61956480  0.75411791  1
  O  O359  1  0.75292390  0.12124221  0.25453262  1
  O  O360  1  0.75057679  0.12774936  0.76274891  1
  O  O361  1  0.74995975  0.61288589  0.25803736  1
  O  O362  1  0.75525605  0.62077534  0.75973164  1
  O  O363  1  0.36014573  0.10679975  0.35773862  1
  O  O364  1  0.37223917  0.11330707  0.87111429  1
  O  O365  1  0.35853970  0.62274226  0.37074934  1
  O  O366  1  0.37091802  0.62109925  0.86759227  1
  O  O367  1  0.86401400  0.12234219  0.36679959  1
  O  O368  1  0.86796003  0.12056429  0.87114666  1
  O  O369  1  0.86204522  0.62385187  0.37923003  1
  O  O370  1  0.86997884  0.62410107  0.87463115  1
  O  O371  1  0.12958599  0.38004968  0.13186022  1
  O  O372  1  0.13691549  0.37593643  0.62941442  1
  O  O373  1  0.11991027  0.88246733  0.13564413  1
  O  O374  1  0.12847356  0.88183910  0.63198908  1
  O  O375  1  0.62681596  0.37588898  0.13892918  1
  O  O376  1  0.63815583  0.38645962  0.62990364  1
  O  O377  1  0.64070362  0.86618024  0.13264992  1
  O  O378  1  0.63309142  0.89433296  0.61839867  1
  O  O379  1  0.10936669  0.25798415  0.24381478  1
  O  O380  1  0.12131205  0.24993971  0.76552527  1
  O  O381  1  0.11527713  0.75777304  0.25732767  1
  O  O382  1  0.12287077  0.75683905  0.75858455  1
  O  O383  1  0.61620741  0.25917434  0.24750514  1
  O  O384  1  0.61311906  0.25064162  0.75707077  1
  O  O385  1  0.63461690  0.75870163  0.25543139  1
  O  O386  1  0.62208852  0.74200250  0.76115345  1
  O  O387  1  0.39329895  0.25191653  0.24627339  1
  O  O388  1  0.38769920  0.24311441  0.75858062  1
  O  O389  1  0.37947505  0.74110231  0.23402349  1
  O  O390  1  0.37462745  0.74389455  0.73819019  1
  O  O391  1  0.87773639  0.24484304  0.24321381  1
  O  O392  1  0.87603560  0.24866222  0.73542324  1
  O  O393  1  0.87713219  0.75596149  0.23196240  1
  O  O394  1  0.88311083  0.74633912  0.74739751  1
  O  O395  1  0.38539019  0.49099809  0.50028720  1
  O  O396  1  0.38295082  0.49433962  0.99660599  1
  O  O397  1  0.38926612  1.00430503  0.50531504  1
  O  O398  1  0.38827874  0.98179928  0.99119423  1
  O  O399  1  0.87035784  0.49866753  0.50252193  1
  O  O400  1  0.87880378  0.49620206  0.99488589  1
  O  O401  1  0.87449549  0.99071588  0.49475725  1
  O  O402  1  0.87170616  0.99809112  0.98464476  1
  O  O403  1  0.11811310  0.01271420  0.00208749  1
  O  O404  1  0.12142985  0.00607821  0.51288277  1
  O  O405  1  0.11983944  0.50334591  0.01055974  1
  O  O406  1  0.12616556  0.51164104  0.50274299  1
  O  O407  1  0.61353764  -0.00257796  -0.00768441  1
  O  O408  1  0.61389874  0.01022978  0.50478128  1
  O  O409  1  0.61730303  0.51054908  -0.00466974  1
  O  O410  1  0.61038299  0.49268622  0.50828220  1
  O  O411  1  0.36499405  0.36907459  0.11920328  1
  O  O412  1  0.35969373  0.37194374  0.62332399  1
  O  O413  1  0.38120384  0.85781509  0.11477126  1
  O  O414  1  0.36467384  0.86933574  0.62522972  1
  O  O415  1  0.87058594  0.36754502  0.11944723  1
  O  O416  1  0.86335782  0.36860639  0.62184315  1
  O  O417  1  0.86460041  0.86887284  0.12308175  1
  O  O418  1  0.87095516  0.87599685  0.61886090  1
  O  O419  1  0.13396414  0.11999784  0.38238983  1
  O  O420  1  0.12294605  0.13053008  0.88466640  1
  O  O421  1  0.12975587  0.62745820  0.38179991  1
  O  O422  1  0.13134141  0.63020087  0.88273287  1
  O  O423  1  0.63805786  0.12103335  0.38410100  1
  O  O424  1  0.63032415  0.13770893  0.87264431  1
  O  O425  1  0.64795538  0.62064415  0.38527544  1
  O  O426  1  0.63348546  0.62931295  0.87941770  1
