# generated using pymatgen
data_V85Zn86O256
_symmetry_space_group_name_H-M   'P 1'
_cell_length_a   16.93977402
_cell_length_b   16.93501887
_cell_length_c   16.94181820
_cell_angle_alpha   89.92635932
_cell_angle_beta   90.04645525
_cell_angle_gamma   90.03262840
_symmetry_Int_Tables_number   1
_chemical_formula_structural   V85Zn86O256
_chemical_formula_sum   'V85 Zn86 O256'
_cell_volume   4860.18435344
_cell_formula_units_Z   1
loop_
 _symmetry_equiv_pos_site_id
 _symmetry_equiv_pos_as_xyz
  1  'x, y, z'
loop_
 _atom_site_type_symbol
 _atom_site_label
 _atom_site_symmetry_multiplicity
 _atom_site_fract_x
 _atom_site_fract_y
 _atom_site_fract_z
 _atom_site_occupancy
  V  V0  1  0.62125556  0.75292032  0.87255396  1
  V  V1  1  0.88041287  0.25599187  0.62491045  1
  V  V2  1  0.61817347  0.36853469  0.24827365  1
  V  V3  1  0.23101928  0.37069434  0.63186742  1
  V  V4  1  0.37250296  0.75917270  0.61969838  1
  V  V5  1  0.61938718  0.62050872  -0.00157446  1
  V  V6  1  0.87694236  0.49052054  0.38250775  1
  V  V7  1  0.87542508  0.75078932  0.62416746  1
  V  V8  1  -0.00049412  0.24860056  0.25001028  1
  V  V9  1  0.25169069  0.25524469  0.00188562  1
  V  V10  1  0.49599955  -0.00363785  0.50114264  1
  V  V11  1  0.87792611  0.25397998  0.11591087  1
  V  V12  1  0.37928192  0.50109694  0.87294677  1
  V  V13  1  0.12789667  0.12719493  0.00242428  1
  V  V14  1  0.48090922  0.49032455  0.50035716  1
  V  V15  1  0.62216912  0.74816491  0.37530648  1
  V  V16  1  0.50353514  0.12170410  0.62553939  1
  V  V17  1  0.36432473  0.00425651  0.36904426  1
  V  V18  1  0.00468328  -0.00182022  0.50143110  1
  V  V19  1  0.12666048  0.50076386  0.12700281  1
  V  V20  1  0.87886673  0.11755401  0.75511829  1
  V  V21  1  0.51008868  0.37688945  0.87623313  1
  V  V22  1  0.49750300  0.74486843  0.74288203  1
  V  V23  1  0.74795897  0.25028183  -0.01342960  1
  V  V24  1  0.13442454  0.87182455  0.25562192  1
  V  V25  1  0.74789658  0.74899231  0.49991523  1
  V  V26  1  0.23440498  0.87813768  0.62851720  1
  V  V27  1  0.12486938  0.37924667  0.25409744  1
  V  V28  1  0.36878313  0.62429385  0.25843704  1
  V  V29  1  0.37619618  0.25832460  0.62476712  1
  V  V30  1  0.37578858  0.75019108  0.12463835  1
  V  V31  1  0.61445124  0.61949077  0.50734913  1
  V  V32  1  0.87682348  0.75422197  0.12634360  1
  V  V33  1  0.38067405  0.88136763  0.00049473  1
  V  V34  1  0.12317052  0.76722845  0.87228623  1
  V  V35  1  0.87445195  0.62532076  0.25060445  1
  V  V36  1  0.49306832  0.87547235  0.37869762  1
  V  V37  1  0.74853802  0.12567357  0.37284501  1
  V  V38  1  0.00682992  0.61812183  0.63004115  1
  V  V39  1  0.49892515  0.62008914  0.12217180  1
  V  V40  1  0.88061854  0.88087932  -0.01286505  1
  V  V41  1  0.13125636  0.12033176  0.49896613  1
  V  V42  1  0.75388479  0.37412125  0.12005314  1
  V  V43  1  0.24266583  0.75161719  0.49440147  1
  V  V44  1  0.49909155  0.74782621  0.25108653  1
  V  V45  1  0.12537856  0.62693193  0.00041393  1
  V  V46  1  0.25335865  0.24888778  0.50453223  1
  V  V47  1  0.38175170  0.38167599  -0.00207810  1
  V  V48  1  0.49959590  0.88082793  0.87332082  1
  V  V49  1  0.23463737  0.49393034  0.74866173  1
  V  V50  1  0.12144237  0.61603292  0.49549170  1
  V  V51  1  0.61535211  0.00148135  0.11264855  1
  V  V52  1  0.75281317  0.25723324  0.49767637  1
  V  V53  1  0.00036297  0.62636483  0.12387338  1
  V  V54  1  0.87506409  0.87344975  0.49772340  1
  V  V55  1  0.13187024  0.00062960  0.13212161  1
  V  V56  1  0.87485638  0.62681405  0.75134496  1
  V  V57  1  0.75349952  0.88141350  0.12357601  1
  V  V58  1  0.37146456  0.12817166  0.24557282  1
  V  V59  1  0.74981951  0.75508592  -0.00078941  1
  V  V60  1  0.37315211  0.62111612  0.73754471  1
  V  V61  1  0.87455941  0.00018201  0.37256113  1
  V  V62  1  0.25056345  0.75356552  0.00014517  1
  V  V63  1  0.62544451  0.12017865  0.50297763  1
  V  V64  1  0.51026524  0.25169528  0.75494497  1
  V  V65  1  0.74839456  0.63102619  0.87283611  1
  V  V66  1  0.74722975  0.49859941  0.24889365  1
  V  V67  1  0.74957793  0.37769468  0.62506279  1
  V  V68  1  0.37897738  0.12213588  0.75102302  1
  V  V69  1  0.30837446  0.45271515  0.31036788  1
  V  V70  1  0.25251061  0.38129856  0.12585269  1
  V  V71  1  0.00363559  0.76448329  0.75391000  1
  V  V72  1  0.00037009  -0.00095770  -0.01274441  1
  V  V73  1  -0.00189686  0.12162335  0.62430698  1
  V  V74  1  0.61275651  0.24940877  0.37214875  1
  V  V75  1  0.00239076  0.86570389  0.37329417  1
  V  V76  1  0.00131668  0.12354255  0.12508106  1
  V  V77  1  0.12726717  0.24250175  0.37569579  1
  V  V78  1  0.12414235  0.25502666  0.85842187  1
  V  V79  1  0.87453269  0.49961062  0.88561627  1
  V  V80  1  0.62497357  0.87692260  0.24929820  1
  V  V81  1  0.74822218  0.62357289  0.37530884  1
  V  V82  1  0.24902472  0.62508413  0.87290086  1
  V  V83  1  0.25494308  0.12619208  0.87569319  1
  V  V84  1  0.74044335  -0.00112744  0.74693471  1
  Zn  Zn85  1  0.00581281  0.37094482  0.87554621  1
  Zn  Zn86  1  0.50346879  0.13910566  0.12672109  1
  Zn  Zn87  1  0.38665424  0.25672130  0.13028913  1
  Zn  Zn88  1  0.00486702  0.74812874  0.25357087  1
  Zn  Zn89  1  0.48576631  0.37640609  0.37501425  1
  Zn  Zn90  1  0.61366495  0.12976613  -0.01327016  1
  Zn  Zn91  1  -0.00303996  0.48550421  0.51811328  1
  Zn  Zn92  1  0.74339147  0.88436490  0.61819094  1
  Zn  Zn93  1  -0.00446698  0.49098318  0.00462760  1
  Zn  Zn94  1  0.61794086  0.87837158  0.73746090  1
  Zn  Zn95  1  0.37977616  0.00432259  0.87992299  1
  Zn  Zn96  1  0.62382259  0.49781033  0.12002996  1
  Zn  Zn97  1  0.63165731  0.37532927  0.75302082  1
  Zn  Zn98  1  0.24166166  0.62190549  0.37083840  1
  Zn  Zn99  1  0.74850511  0.00252202  0.24791699  1
  Zn  Zn100  1  0.25604617  0.88052757  0.13092875  1
  Zn  Zn101  1  -0.00506405  0.36849214  0.38392607  1
  Zn  Zn102  1  0.74986991  0.12134912  0.87344121  1
  Zn  Zn103  1  0.61568859  0.49768215  0.62738459  1
  Zn  Zn104  1  0.74745996  0.50133458  0.74767995  1
  Zn  Zn105  1  0.23972311  -0.01215756  0.75581544  1
  Zn  Zn106  1  0.87380337  0.12593993  0.24821710  1
  Zn  Zn107  1  0.19454770  0.18820501  0.18861010  1
  Zn  Zn108  1  0.17629138  0.15268082  0.69752138  1
  Zn  Zn109  1  0.18920131  0.69147243  0.18930127  1
  Zn  Zn110  1  0.18591865  0.68903708  0.68750378  1
  Zn  Zn111  1  0.68746310  0.18749750  0.18469132  1
  Zn  Zn112  1  0.69156034  0.18676466  0.68690850  1
  Zn  Zn113  1  0.68680059  0.68968481  0.18584397  1
  Zn  Zn114  1  0.68586239  0.69373494  0.68489224  1
  Zn  Zn115  1  0.30822521  0.28750050  0.31355602  1
  Zn  Zn116  1  0.31678117  0.31016237  0.81040979  1
  Zn  Zn117  1  0.31388517  0.81144411  0.31693259  1
  Zn  Zn118  1  0.31291916  0.81255863  0.81076512  1
  Zn  Zn119  1  0.80908918  0.31062172  0.30713266  1
  Zn  Zn120  1  0.84119185  0.32257115  0.80052150  1
  Zn  Zn121  1  0.81190533  0.81219921  0.31126451  1
  Zn  Zn122  1  0.81213610  0.81745845  0.80821021  1
  Zn  Zn123  1  0.17736195  0.42899682  0.44887033  1
  Zn  Zn124  1  0.18498211  0.43819964  0.93629089  1
  Zn  Zn125  1  0.18707429  0.93269930  0.44091260  1
  Zn  Zn126  1  0.19151491  0.94264671  0.94273515  1
  Zn  Zn127  1  0.68403571  0.43658477  0.43623775  1
  Zn  Zn128  1  0.69537664  0.43915496  0.93763348  1
  Zn  Zn129  1  0.68402801  0.93771146  0.43781856  1
  Zn  Zn130  1  0.69064780  0.94092244  0.92880775  1
  Zn  Zn131  1  0.31606909  0.06395841  0.06446220  1
  Zn  Zn132  1  0.31675647  0.06006193  0.56305701  1
  Zn  Zn133  1  0.31354198  0.56257214  0.06294162  1
  Zn  Zn134  1  0.30260109  0.55755428  0.56402203  1
  Zn  Zn135  1  0.81499754  0.06541888  0.05880000  1
  Zn  Zn136  1  0.81293252  0.06266672  0.56122338  1
  Zn  Zn137  1  0.80766995  0.56782850  0.06405736  1
  Zn  Zn138  1  0.81188263  0.56483792  0.56205637  1
  Zn  Zn139  1  0.44487039  0.43589168  0.18173002  1
  Zn  Zn140  1  0.43893134  0.43836449  0.68642201  1
  Zn  Zn141  1  0.43772164  0.94031598  0.19220859  1
  Zn  Zn142  1  0.43343130  0.93773501  0.68718026  1
  Zn  Zn143  1  0.93768457  0.43715006  0.19017941  1
  Zn  Zn144  1  0.94062187  0.43526496  0.69977647  1
  Zn  Zn145  1  0.94278646  0.93926434  0.18699909  1
  Zn  Zn146  1  0.93379407  0.94006674  0.68476756  1
  Zn  Zn147  1  0.06462279  0.05900314  0.31380216  1
  Zn  Zn148  1  0.06764807  0.06376863  0.81037480  1
  Zn  Zn149  1  0.06070123  0.56109617  0.31311928  1
  Zn  Zn150  1  0.05888773  0.56955760  0.81731844  1
  Zn  Zn151  1  0.55930170  0.06135598  0.30757679  1
  Zn  Zn152  1  0.56846694  0.06449880  0.81495384  1
  Zn  Zn153  1  0.55833743  0.55801826  0.31637981  1
  Zn  Zn154  1  0.56194896  0.56190843  0.80749454  1
  Zn  Zn155  1  0.43405646  0.18267239  0.43719471  1
  Zn  Zn156  1  0.44325467  0.19164424  0.94260196  1
  Zn  Zn157  1  0.43329781  0.68475577  0.44120599  1
  Zn  Zn158  1  0.43614954  0.68963905  0.93361009  1
  Zn  Zn159  1  0.93657774  0.18695213  0.43907339  1
  Zn  Zn160  1  0.94034071  0.18783762  0.93732363  1
  Zn  Zn161  1  0.93812254  0.68100309  0.43932542  1
  Zn  Zn162  1  0.93903553  0.69307056  0.93872438  1
  Zn  Zn163  1  0.06268420  0.31584314  0.05820110  1
  Zn  Zn164  1  0.06181563  0.30760688  0.56263081  1
  Zn  Zn165  1  0.06375146  0.81636112  0.06515114  1
  Zn  Zn166  1  0.06266317  0.80684711  0.56225295  1
  Zn  Zn167  1  0.56514166  0.31040576  0.05983436  1
  Zn  Zn168  1  0.56303978  0.31252321  0.56051329  1
  Zn  Zn169  1  0.56244250  0.81188415  0.06118781  1
  Zn  Zn170  1  0.55880234  0.81015519  0.56205602  1
  O  O171  1  0.12271426  0.12074462  0.12233377  1
  O  O172  1  0.10455752  0.13796704  0.60920687  1
  O  O173  1  0.11873028  0.62258693  0.12247632  1
  O  O174  1  0.11439734  0.62928098  0.61659285  1
  O  O175  1  0.62815713  0.10863877  0.12450716  1
  O  O176  1  0.61665436  0.13018126  0.61392469  1
  O  O177  1  0.61729636  0.62784830  0.11619631  1
  O  O178  1  0.62900259  0.62472771  0.60936657  1
  O  O179  1  0.36632016  0.38060566  0.35862695  1
  O  O180  1  0.38124524  0.38349554  0.87962449  1
  O  O181  1  0.38627329  0.88480823  0.36996030  1
  O  O182  1  0.38149549  0.87492256  0.88230250  1
  O  O183  1  0.87150757  0.38752526  0.36921682  1
  O  O184  1  0.85089148  0.40317192  0.88861245  1
  O  O185  1  0.88118944  0.88133310  0.37798738  1
  O  O186  1  0.87518020  0.86843336  0.88864556  1
  O  O187  1  0.26747438  -0.00597185  0.38598893  1
  O  O188  1  0.25508433  0.01238063  0.87473992  1
  O  O189  1  0.24498651  0.49798221  0.37804114  1
  O  O190  1  0.25910543  0.50308397  0.86795795  1
  O  O191  1  0.75666713  0.00694270  0.37417305  1
  O  O192  1  0.75425434  0.00034086  0.85473271  1
  O  O193  1  0.75795824  0.50274627  0.36879724  1
  O  O194  1  0.75467097  0.52006041  0.87562184  1
  O  O195  1  0.24376980  0.48950052  0.12201215  1
  O  O196  1  0.24972660  0.48029212  0.63280167  1
  O  O197  1  0.23595406  0.99841396  0.11820477  1
  O  O198  1  0.25739318  0.97825852  0.61785887  1
  O  O199  1  0.74971821  0.49388187  0.13228069  1
  O  O200  1  0.75530935  0.48597671  0.62189946  1
  O  O201  1  0.74830002  0.99104671  0.12560086  1
  O  O202  1  0.75751210  0.99978257  0.63774088  1
  O  O203  1  0.00875171  0.36312839  0.25143610  1
  O  O204  1  -0.04801557  0.35875516  0.77682921  1
  O  O205  1  0.00792877  0.87313348  0.25888703  1
  O  O206  1  -0.00554594  0.86347337  0.74380143  1
  O  O207  1  0.51516315  0.38484711  0.25584838  1
  O  O208  1  0.50195183  0.36817530  0.75748213  1
  O  O209  1  0.50566836  0.86770402  0.25728722  1
  O  O210  1  0.49576422  0.86309214  0.75429896  1
  O  O211  1  0.48281496  0.11003309  0.24078248  1
  O  O212  1  0.49711597  0.12953530  0.74355733  1
  O  O213  1  0.49416188  0.62931828  0.24403969  1
  O  O214  1  0.48771554  0.63605846  0.75475751  1
  O  O215  1  1.00261424  0.13531319  0.24474548  1
  O  O216  1  0.98668450  0.11925395  0.73948441  1
  O  O217  1  0.99596004  0.62722745  0.24034951  1
  O  O218  1  0.99210115  0.63445540  0.74547537  1
  O  O219  1  0.36437340  0.26572343  -0.00152812  1
  O  O220  1  0.36168262  0.23983223  0.50800174  1
  O  O221  1  0.36774478  0.75683850  0.00369198  1
  O  O222  1  0.35721240  0.73627536  0.51045204  1
  O  O223  1  0.87156068  0.24819814  0.01146480  1
  O  O224  1  0.86340098  0.24108077  0.51136994  1
  O  O225  1  0.86967470  0.75811091  0.00815201  1
  O  O226  1  0.87119530  0.75143440  0.50628977  1
  O  O227  1  0.13129255  0.24095175  0.49245668  1
  O  O228  1  0.14112064  0.24502614  1.00502948  1
  O  O229  1  0.13565486  0.73751825  0.50328570  1
  O  O230  1  0.13283696  0.74835203  0.99623402  1
  O  O231  1  0.63239560  0.23940361  0.49120794  1
  O  O232  1  0.64499548  0.25143342  0.99977467  1
  O  O233  1  0.62481871  0.73646854  0.49282244  1
  O  O234  1  0.63119242  0.74520145  0.99205582  1
  O  O235  1  0.50015734  0.25608349  0.13019977  1
  O  O236  1  0.49409133  0.24027049  0.62718612  1
  O  O237  1  0.49537111  0.74224264  0.13154859  1
  O  O238  1  0.48663866  0.74835310  0.63115305  1
  O  O239  1  0.99646405  0.24552546  0.13033727  1
  O  O240  1  0.98458083  0.24124387  0.61945060  1
  O  O241  1  0.99433265  0.74341843  0.12681860  1
  O  O242  1  0.99051661  0.74176202  0.63051684  1
  O  O243  1  0.00471459  0.24862097  0.36620518  1
  O  O244  1  0.02332239  0.24386150  0.88161592  1
  O  O245  1  -0.00654824  0.76232123  0.37622707  1
  O  O246  1  0.01067283  0.74780070  0.86678604  1
  O  O247  1  0.50979034  0.25351640  0.38163052  1
  O  O248  1  0.49422466  0.26391361  0.86531525  1
  O  O249  1  0.50073546  0.75591899  0.37280557  1
  O  O250  1  0.50236100  0.75778369  0.86489139  1
  O  O251  1  0.23725179  0.13004092  0.51300221  1
  O  O252  1  0.25293989  0.13539164  0.99296015  1
  O  O253  1  0.23485673  0.62823436  0.50009482  1
  O  O254  1  0.24786832  0.63672985  0.99604322  1
  O  O255  1  0.74278381  0.12889590  0.49034695  1
  O  O256  1  0.75446148  0.14088388  0.99575754  1
  O  O257  1  0.74127257  0.62991259  0.49334141  1
  O  O258  1  0.74250521  0.63714231  0.99365509  1
  O  O259  1  0.25472389  0.37225369  0.00773562  1
  O  O260  1  0.24175580  0.36262017  0.51860967  1
  O  O261  1  0.25803485  0.86499986  0.00208683  1
  O  O262  1  0.24377581  0.85764561  0.50833583  1
  O  O263  1  0.74781543  0.36819959  0.01313827  1
  O  O264  1  0.74556853  0.36224334  0.50278310  1
  O  O265  1  0.75799328  0.87380459  0.00537522  1
  O  O266  1  0.75666824  0.86721698  0.49601063  1
  O  O267  1  0.11983779  0.48630635  0.24636578  1
  O  O268  1  0.13576063  0.50467447  0.76026058  1
  O  O269  1  0.12129911  0.98766337  0.24388025  1
  O  O270  1  0.14596929  1.04528762  0.73566260  1
  O  O271  1  0.63685333  0.49551597  0.25078730  1
  O  O272  1  0.62984011  0.49862686  0.74358155  1
  O  O273  1  0.62783840  0.99107525  0.24027313  1
  O  O274  1  0.63642415  0.99872640  0.74468999  1
  O  O275  1  0.37118934  0.00292231  0.26187585  1
  O  O276  1  0.36905447  0.01393105  0.75035916  1
  O  O277  1  0.37284533  0.50627801  0.24587168  1
  O  O278  1  0.36787034  0.50630497  0.75426455  1
  O  O279  1  0.87541162  0.00168921  0.26187228  1
  O  O280  1  0.86952792  0.01334039  0.74614238  1
  O  O281  1  0.86363373  0.50469541  0.25600049  1
  O  O282  1  0.86922098  0.51728739  0.76236842  1
  O  O283  1  0.12397819  0.36232109  0.36766740  1
  O  O284  1  0.12942899  0.36004685  0.87244962  1
  O  O285  1  0.11764445  0.87987541  0.36379359  1
  O  O286  1  0.13262815  0.86638422  0.87879263  1
  O  O287  1  0.62873900  0.36331210  0.36610237  1
  O  O288  1  0.61361307  0.38576121  0.87593885  1
  O  O289  1  0.61557548  0.86889214  0.36981541  1
  O  O290  1  0.61745237  0.86863740  0.86902126  1
  O  O291  1  0.37497911  0.12846862  0.13466602  1
  O  O292  1  0.38193771  0.13243590  0.63294644  1
  O  O293  1  0.38164741  0.63017760  0.13071481  1
  O  O294  1  0.36347136  0.63035647  0.63548728  1
  O  O295  1  0.88354884  0.13286771  0.12818133  1
  O  O296  1  0.88388300  0.12968601  0.62530955  1
  O  O297  1  0.88113010  0.63143341  0.13083318  1
  O  O298  1  0.87983309  0.63172620  0.63302170  1
  O  O299  1  0.25727917  0.26503159  0.12083400  1
  O  O300  1  0.25643366  0.25656288  0.62391133  1
  O  O301  1  0.25764438  0.75319226  0.11590638  1
  O  O302  1  0.25283321  0.75753033  0.61877319  1
  O  O303  1  0.75972718  0.25641442  0.12027112  1
  O  O304  1  0.75567196  0.25692560  0.61527471  1
  O  O305  1  0.75423977  0.76293218  0.12055343  1
  O  O306  1  0.76428026  0.74664108  0.61746610  1
  O  O307  1  0.23909663  0.24838538  0.39081606  1
  O  O308  1  0.24517623  0.24854793  0.88398564  1
  O  O309  1  0.25345171  0.74593295  0.39131099  1
  O  O310  1  0.24492232  0.74547490  0.88122338  1
  O  O311  1  0.74639929  0.24216107  0.38075817  1
  O  O312  1  0.76556569  0.26006409  0.88844531  1
  O  O313  1  0.74353505  0.74440469  0.38011959  1
  O  O314  1  0.74364194  0.74576889  0.87648987  1
  O  O315  1  0.00607994  0.11943891  0.00752541  1
  O  O316  1  0.00556025  0.11531387  0.50187240  1
  O  O317  1  0.00515123  0.62740354  0.01283472  1
  O  O318  1  0.00849101  0.62229194  0.51034739  1
  O  O319  1  0.50267400  0.12926800  0.01096484  1
  O  O320  1  0.50705106  0.12039933  0.50651141  1
  O  O321  1  0.50783001  0.63511987  0.00777271  1
  O  O322  1  0.51055697  0.61556427  0.49509637  1
  O  O323  1  0.49736285  0.38484227  0.49616585  1
  O  O324  1  0.49169298  0.37436708  0.99083537  1
  O  O325  1  0.50310810  0.88395974  0.49117384  1
  O  O326  1  0.49137370  0.86550680  0.98783751  1
  O  O327  1  1.00621350  0.37656861  0.49606492  1
  O  O328  1  1.00300590  0.37889420  0.99033939  1
  O  O329  1  0.99719516  0.87927482  0.49371209  1
  O  O330  1  0.99246483  0.88632705  1.00675260  1
  O  O331  1  0.50237105  0.49499265  0.39298817  1
  O  O332  1  0.48589055  0.49514642  0.86809252  1
  O  O333  1  0.49500113  0.99174854  0.38094969  1
  O  O334  1  0.49841861  0.98476837  0.86453504  1
  O  O335  1  0.98188902  0.49653925  0.36887592  1
  O  O336  1  0.98335459  0.50441513  0.87637812  1
  O  O337  1  0.99258048  0.99172901  0.38256113  1
  O  O338  1  1.00804440  1.00661454  0.88773043  1
  O  O339  1  0.01162213  0.00798833  0.12138916  1
  O  O340  1  -0.00663258  0.00539264  0.60912709  1
  O  O341  1  0.00545395  0.50855326  0.12569086  1
  O  O342  1  -0.01095694  0.51250010  0.63270134  1
  O  O343  1  0.51580806  -0.00918263  0.12226835  1
  O  O344  1  0.49222250  0.01185426  0.61715888  1
  O  O345  1  0.50483585  0.51563726  0.12471170  1
  O  O346  1  0.49936075  0.49736204  0.60814725  1
  O  O347  1  0.24869581  0.37895062  0.24827703  1
  O  O348  1  0.25486627  0.37937421  0.74001513  1
  O  O349  1  0.23862248  0.87172856  0.25167857  1
  O  O350  1  0.25069538  0.87344055  0.73539935  1
  O  O351  1  0.74235916  0.38142111  0.24083800  1
  O  O352  1  0.75180429  0.37583425  0.73928047  1
  O  O353  1  0.74374298  0.87621366  0.24094031  1
  O  O354  1  0.75076664  0.88785243  0.74439210  1
  O  O355  1  0.26807150  0.12625603  0.24961296  1
  O  O356  1  0.26810140  0.14304844  0.76744453  1
  O  O357  1  0.25820348  0.62645067  0.25295334  1
  O  O358  1  0.25450615  0.61706543  0.75413180  1
  O  O359  1  0.75137805  0.12418631  0.26179107  1
  O  O360  1  0.75944008  0.11458229  0.74647145  1
  O  O361  1  0.75230297  0.61745274  0.25351381  1
  O  O362  1  0.75651285  0.63050599  0.75699710  1
  O  O363  1  0.37968805  0.11178964  0.36431693  1
  O  O364  1  0.37367086  0.12586406  0.87015660  1
  O  O365  1  0.37334336  0.62503718  0.36133491  1
  O  O366  1  0.36797711  0.61894343  0.86714520  1
  O  O367  1  0.86675918  0.11734043  0.37421924  1
  O  O368  1  0.87444630  0.13361214  0.85733603  1
  O  O369  1  0.86834905  0.61706456  0.36848624  1
  O  O370  1  0.86633596  0.62934029  0.86921141  1
  O  O371  1  0.13442296  0.37743194  0.13524352  1
  O  O372  1  0.13268770  0.36480419  0.63598962  1
  O  O373  1  0.12730247  0.88314543  0.13773809  1
  O  O374  1  0.13494919  0.87235813  0.62401143  1
  O  O375  1  0.63396460  0.37866569  0.13193763  1
  O  O376  1  0.63586548  0.37540517  0.62509162  1
  O  O377  1  0.63378921  0.88172346  0.12669341  1
  O  O378  1  0.63319437  0.85918922  0.62667504  1
  O  O379  1  0.12235995  0.25639542  0.25614637  1
  O  O380  1  0.12961821  0.24268577  0.76090919  1
  O  O381  1  0.12222037  0.76654564  0.24662953  1
  O  O382  1  0.11594777  0.74581983  0.76066806  1
  O  O383  1  0.63231777  0.25774764  0.25927538  1
  O  O384  1  0.61341896  0.25174849  0.74316663  1
  O  O385  1  0.61936059  0.75558208  0.25578262  1
  O  O386  1  0.61300149  0.74655835  0.75595269  1
  O  O387  1  0.38142778  0.23418084  0.25057432  1
  O  O388  1  0.38843270  0.24221335  0.74284038  1
  O  O389  1  0.37917558  0.74307168  0.24508882  1
  O  O390  1  0.37769145  0.74128846  0.74169314  1
  O  O391  1  0.88479469  0.24849772  0.24199858  1
  O  O392  1  0.86173372  0.23030604  0.72829528  1
  O  O393  1  0.87636189  0.74273157  0.24388277  1
  O  O394  1  0.87964658  0.74425017  0.74369708  1
  O  O395  1  0.38240945  0.50442624  0.50035029  1
  O  O396  1  0.36872829  0.49067015  0.98929076  1
  O  O397  1  0.38974854  1.00953698  0.48712770  1
  O  O398  1  0.37130397  0.98501284  1.00053896  1
  O  O399  1  0.87703065  0.50617216  0.48483168  1
  O  O400  1  0.87714518  0.51884709  0.98845105  1
  O  O401  1  0.88042501  0.99482676  0.48825989  1
  O  O402  1  0.88695721  0.99299248  1.00419374  1
  O  O403  1  0.11979995  0.00784414  0.00804057  1
  O  O404  1  0.11636472  0.00745949  0.49290466  1
  O  O405  1  0.12468492  0.51024102  0.00710793  1
  O  O406  1  0.11877666  0.51225026  0.50368889  1
  O  O407  1  0.63273948  -0.00140839  0.01127113  1
  O  O408  1  0.61386703  0.01261333  0.49277541  1
  O  O409  1  0.63264967  0.51743984  0.00024457  1
  O  O410  1  0.62502721  0.51177947  0.50155173  1
  O  O411  1  0.36978346  0.38006455  0.11619169  1
  O  O412  1  0.37318942  0.35987883  0.62954732  1
  O  O413  1  0.37688751  0.86862077  0.11970773  1
  O  O414  1  0.36867320  0.86193358  0.62523304  1
  O  O415  1  0.86657902  0.36670174  0.13215299  1
  O  O416  1  0.87017109  0.36005445  0.62587764  1
  O  O417  1  0.86888586  0.87277963  0.12230072  1
  O  O418  1  0.87339315  0.86589031  0.61471010  1
  O  O419  1  0.12006853  0.13411859  0.38230723  1
  O  O420  1  0.13845622  0.13625097  0.88482884  1
  O  O421  1  0.12031179  0.62330741  0.38977613  1
  O  O422  1  0.13168844  0.63216595  0.88473698  1
  O  O423  1  0.62963169  0.13037256  0.37762897  1
  O  O424  1  0.63588021  0.12584505  0.87569566  1
  O  O425  1  0.62970275  0.62863662  0.38134905  1
  O  O426  1  0.62892542  0.63218037  0.87993846  1
