# generated using pymatgen
data_V85Zn86O256
_symmetry_space_group_name_H-M   'P 1'
_cell_length_a   16.89977300
_cell_length_b   16.89979060
_cell_length_c   16.89957325
_cell_angle_alpha   89.98580452
_cell_angle_beta   90.01446350
_cell_angle_gamma   90.02576984
_symmetry_Int_Tables_number   1
_chemical_formula_structural   V85Zn86O256
_chemical_formula_sum   'V85 Zn86 O256'
_cell_volume   4826.56168797
_cell_formula_units_Z   1
loop_
 _symmetry_equiv_pos_site_id
 _symmetry_equiv_pos_as_xyz
  1  'x, y, z'
loop_
 _atom_site_type_symbol
 _atom_site_label
 _atom_site_symmetry_multiplicity
 _atom_site_fract_x
 _atom_site_fract_y
 _atom_site_fract_z
 _atom_site_occupancy
  V  V0  1  0.25073727  0.62436052  0.87337980  1
  V  V1  1  0.11993426  0.74834365  0.37133594  1
  V  V2  1  0.37998018  0.49689662  0.88300926  1
  V  V3  1  0.12654952  0.37448589  0.24939153  1
  V  V4  1  0.87776885  0.51024471  0.87136744  1
  V  V5  1  0.13308790  0.49902381  0.61412075  1
  V  V6  1  0.12658546  -0.01292677  0.62092315  1
  V  V7  1  0.76086175  0.37380873  0.62761576  1
  V  V8  1  0.49883050  0.12309303  0.13073726  1
  V  V9  1  0.87405819  0.87940235  0.49525082  1
  V  V10  1  0.37161562  0.87875505  0.50801717  1
  V  V11  1  0.75065945  0.24357456  -0.01599250  1
  V  V12  1  0.87632594  0.36981017  0.00401051  1
  V  V13  1  0.50008895  0.74936989  0.25230274  1
  V  V14  1  0.24520037  0.24950552  0.50458296  1
  V  V15  1  0.49799728  0.00169363  -0.00771282  1
  V  V16  1  0.12228443  0.24582092  0.37531518  1
  V  V17  1  0.24234945  -0.01158245  0.75041383  1
  V  V18  1  -0.00046448  0.00482038  0.49588215  1
  V  V19  1  0.62166528  0.11920727  0.49971194  1
  V  V20  1  0.37326618  0.25340923  0.62798004  1
  V  V21  1  0.00092097  0.37645592  0.87183622  1
  V  V22  1  0.25289628  0.49172977  0.74539608  1
  V  V23  1  0.00453643  0.87686065  0.86213460  1
  V  V24  1  0.86466238  0.00489287  0.87149114  1
  V  V25  1  0.25870218  0.37718326  0.12154648  1
  V  V26  1  0.37492556  0.75166924  0.12600975  1
  V  V27  1  0.75307587  0.36122584  0.12698161  1
  V  V28  1  0.62629819  0.50237025  0.62408145  1
  V  V29  1  0.12641733  0.50201295  0.12495012  1
  V  V30  1  0.86894168  0.13304435  0.74471237  1
  V  V31  1  0.37564248  0.62576014  0.25105567  1
  V  V32  1  0.24613090  0.62695883  0.38017332  1
  V  V33  1  0.49839891  0.87894675  0.38148093  1
  V  V34  1  0.62301270  0.74098255  0.37860588  1
  V  V35  1  0.50291063  0.36598776  0.88378290  1
  V  V36  1  0.74919955  0.86780639  0.12049473  1
  V  V37  1  0.87602612  0.37250670  0.49127231  1
  V  V38  1  0.75203826  0.51064207  0.75165580  1
  V  V39  1  0.74669571  0.74426299  0.50152537  1
  V  V40  1  0.37160954  0.37653030  0.50601960  1
  V  V41  1  0.75127778  0.61687846  0.37771999  1
  V  V42  1  0.50649144  0.62506551  0.11800257  1
  V  V43  1  0.25319070  0.00336124  0.25092933  1
  V  V44  1  -0.00581088  0.50780507  0.49629805  1
  V  V45  1  0.12484505  0.63053684  -0.00189629  1
  V  V46  1  0.62502415  0.36818901  0.75271839  1
  V  V47  1  0.49655050  0.87019300  0.86947171  1
  V  V48  1  0.87437680  0.12495291  0.25032943  1
  V  V49  1  -0.00567252  0.25125130  0.24019378  1
  V  V50  1  0.38161877  0.62895443  0.75000481  1
  V  V51  1  0.24991953  0.87667351  0.12590824  1
  V  V52  1  0.62788046  0.12744987  -0.01523655  1
  V  V53  1  0.24970525  0.12650767  0.37513779  1
  V  V54  1  0.12533179  0.25073053  0.87225258  1
  V  V55  1  0.00072165  0.50213616  0.00099463  1
  V  V56  1  0.50162683  0.37249229  0.37423128  1
  V  V57  1  0.88211014  0.63045986  0.25362549  1
  V  V58  1  0.37223872  0.11960595  0.75086959  1
  V  V59  1  0.87145127  0.86723870  -0.00357117  1
  V  V60  1  0.37707074  0.00551436  0.37791797  1
  V  V61  1  0.75620126  0.49687263  0.25070639  1
  V  V62  1  0.37379048  0.87972093  -0.00386051  1
  V  V63  1  0.62511071  0.87548539  0.25156508  1
  V  V64  1  0.37567427  0.50163806  0.37597170  1
  V  V65  1  0.62618351  0.00101424  0.12340619  1
  V  V66  1  0.74842762  0.62794334  0.89327591  1
  V  V67  1  0.75517708  -0.00136083  0.25811507  1
  V  V68  1  -0.00215465  0.87503338  0.36975963  1
  V  V69  1  0.12269542  0.00329206  0.12552273  1
  V  V70  1  0.75053083  0.87809723  0.62665142  1
  V  V71  1  0.00691592  0.13354030  0.62117437  1
  V  V72  1  0.63073472  0.50093477  0.11801410  1
  V  V73  1  0.62235889  0.86669223  0.74924936  1
  V  V74  1  0.87633871  0.74211887  0.63250293  1
  V  V75  1  0.25649088  0.25366985  -0.00193227  1
  V  V76  1  0.75251185  0.24721421  0.50309704  1
  V  V77  1  0.50454025  0.63125591  0.62702561  1
  V  V78  1  0.25242437  0.12127267  0.87368708  1
  V  V79  1  0.62585051  0.74508174  0.88810887  1
  V  V80  1  0.50467381  0.50524210  0.50043225  1
  V  V81  1  0.24385245  0.75327745  0.50894538  1
  V  V82  1  -0.00272703  0.00160067  -0.00269991  1
  V  V83  1  0.37540863  0.24596965  0.13105956  1
  V  V84  1  0.49708868  0.11784445  0.62078265  1
  Zn  Zn85  1  0.12960135  0.37413293  0.74420465  1
  Zn  Zn86  1  0.00318832  0.62158447  0.63084215  1
  Zn  Zn87  1  -0.00190627  0.25330290  0.74511926  1
  Zn  Zn88  1  -0.00405459  0.37775452  0.37204745  1
  Zn  Zn89  1  0.00597947  0.63664216  0.13166564  1
  Zn  Zn90  1  0.62466699  0.37130082  0.24878625  1
  Zn  Zn91  1  0.62459770  0.24632448  0.37328733  1
  Zn  Zn92  1  0.61811285  -0.00387302  0.62413942  1
  Zn  Zn93  1  0.50372969  0.49917783  0.00045046  1
  Zn  Zn94  1  0.11786692  0.87158040  0.24596988  1
  Zn  Zn95  1  0.74370326  0.00520296  0.75158097  1
  Zn  Zn96  1  0.25059902  0.50108260  0.25165575  1
  Zn  Zn97  1  0.12357208  0.12641714  -0.00075260  1
  Zn  Zn98  1  0.24974788  0.75166598  -0.00058404  1
  Zn  Zn99  1  0.88131090  0.75172387  0.12670311  1
  Zn  Zn100  1  0.37537001  0.75364435  0.62925620  1
  Zn  Zn101  1  -0.00751466  0.12977802  0.11998400  1
  Zn  Zn102  1  0.50008844  0.24635505  0.25192972  1
  Zn  Zn103  1  0.13090747  0.75802101  0.86458117  1
  Zn  Zn104  1  0.00358422  0.73778807  0.75189317  1
  Zn  Zn105  1  0.75326683  0.12120830  0.37904195  1
  Zn  Zn106  1  0.50443615  0.24457329  0.75373255  1
  Zn  Zn107  1  0.18754260  0.18610932  0.18868466  1
  Zn  Zn108  1  0.18493205  0.18490398  0.68642162  1
  Zn  Zn109  1  0.18800549  0.68967181  0.19060979  1
  Zn  Zn110  1  0.18269901  0.68222873  0.68921940  1
  Zn  Zn111  1  0.68420590  0.18521745  0.18746294  1
  Zn  Zn112  1  0.68656368  0.18900923  0.68291795  1
  Zn  Zn113  1  0.68989007  0.68611286  0.18918217  1
  Zn  Zn114  1  0.68662376  0.68872841  0.69203072  1
  Zn  Zn115  1  0.31425082  0.31326227  0.31233452  1
  Zn  Zn116  1  0.31897170  0.31174350  0.81477511  1
  Zn  Zn117  1  0.30956859  0.81532970  0.31527029  1
  Zn  Zn118  1  0.31342167  0.80933638  0.81203374  1
  Zn  Zn119  1  0.81198612  0.30712443  0.31520073  1
  Zn  Zn120  1  0.81539855  0.31664319  0.81144219  1
  Zn  Zn121  1  0.81077084  0.81097977  0.31414715  1
  Zn  Zn122  1  0.80985506  0.81231386  0.81417248  1
  Zn  Zn123  1  0.18767017  0.43524776  0.43718373  1
  Zn  Zn124  1  0.18881156  0.43940596  0.93679098  1
  Zn  Zn125  1  0.18401992  0.93568849  0.43943299  1
  Zn  Zn126  1  0.18594841  0.94061152  0.93734251  1
  Zn  Zn127  1  0.68699715  0.43571270  0.43983540  1
  Zn  Zn128  1  0.68874112  0.43484748  0.93776841  1
  Zn  Zn129  1  0.68450759  0.93608279  0.44030756  1
  Zn  Zn130  1  0.68531273  0.93597684  0.93655751  1
  Zn  Zn131  1  0.31292015  0.06406297  0.06038919  1
  Zn  Zn132  1  0.30667164  0.06386059  0.56223659  1
  Zn  Zn133  1  0.31395297  0.56369557  0.06194008  1
  Zn  Zn134  1  0.31315726  0.56635181  0.56304474  1
  Zn  Zn135  1  0.81235332  0.06207377  0.06645499  1
  Zn  Zn136  1  0.81598813  0.06326368  0.56499849  1
  Zn  Zn137  1  0.81740188  0.56023996  0.06731165  1
  Zn  Zn138  1  0.81272482  0.56051626  0.55993890  1
  Zn  Zn139  1  0.43862038  0.43850013  0.18756331  1
  Zn  Zn140  1  0.43997488  0.43858614  0.69185444  1
  Zn  Zn141  1  0.43688809  0.93989042  0.18977561  1
  Zn  Zn142  1  0.43344483  0.93923501  0.69155224  1
  Zn  Zn143  1  0.93766964  0.44158213  0.18720879  1
  Zn  Zn144  1  0.94066355  0.44379627  0.68683099  1
  Zn  Zn145  1  0.93373135  0.93978064  0.18503228  1
  Zn  Zn146  1  0.93376314  0.94284945  0.68287415  1
  Zn  Zn147  1  0.06190794  0.06399983  0.31179004  1
  Zn  Zn148  1  0.06152497  0.06374696  0.80792810  1
  Zn  Zn149  1  0.06540020  0.56112392  0.31694706  1
  Zn  Zn150  1  0.06586582  0.56598638  0.80465953  1
  Zn  Zn151  1  0.56488635  0.06158203  0.31447943  1
  Zn  Zn152  1  0.55991929  0.05650808  0.80835162  1
  Zn  Zn153  1  0.56589316  0.55855270  0.30683780  1
  Zn  Zn154  1  0.56515933  0.56085725  0.81318704  1
  Zn  Zn155  1  0.43609618  0.18731035  0.43990347  1
  Zn  Zn156  1  0.43462181  0.18673978  0.93998517  1
  Zn  Zn157  1  0.43383621  0.68891990  0.44290278  1
  Zn  Zn158  1  0.43789626  0.69083271  0.93742195  1
  Zn  Zn159  1  0.93468908  0.18883029  0.43400598  1
  Zn  Zn160  1  0.93461336  0.18721350  0.93307807  1
  Zn  Zn161  1  0.93331662  0.68902855  0.43794507  1
  Zn  Zn162  1  0.94022635  0.68987346  0.93652737  1
  Zn  Zn163  1  0.06804935  0.31353471  0.06003636  1
  Zn  Zn164  1  0.06434216  0.31946221  0.56140075  1
  Zn  Zn165  1  0.05915560  0.81442649  0.05904986  1
  Zn  Zn166  1  0.05956211  0.81109483  0.55919293  1
  Zn  Zn167  1  0.56802595  0.30920277  0.06287732  1
  Zn  Zn168  1  0.56295955  0.30994579  0.56469820  1
  Zn  Zn169  1  0.56093832  0.81363231  0.06219330  1
  Zn  Zn170  1  0.56229048  0.81315700  0.55965285  1
  O  O171  1  0.12322148  0.11374010  0.12300104  1
  O  O172  1  0.11055254  0.11546176  0.62746657  1
  O  O173  1  0.12834102  0.62051234  0.11741406  1
  O  O174  1  0.12396395  0.60488595  0.62419138  1
  O  O175  1  0.61776478  0.11833498  0.11411833  1
  O  O176  1  0.61430320  0.12286772  0.62054627  1
  O  O177  1  0.61783620  0.61672994  0.13230252  1
  O  O178  1  0.62069563  0.61203769  0.63279600  1
  O  O179  1  0.38384677  0.38121284  0.38211900  1
  O  O180  1  0.39230562  0.38293021  0.86989655  1
  O  O181  1  0.38006329  0.88358070  0.38242224  1
  O  O182  1  0.38416258  0.86793327  0.88357706  1
  O  O183  1  0.87342847  0.37609529  0.38691781  1
  O  O184  1  0.88209443  0.38245800  0.88477852  1
  O  O185  1  0.87999034  0.86787472  0.38725048  1
  O  O186  1  0.88041284  0.88400990  0.87895852  1
  O  O187  1  0.25171654  0.00670517  0.37001257  1
  O  O188  1  0.24210029  0.00823218  0.86162690  1
  O  O189  1  0.25554828  0.50935009  0.37663293  1
  O  O190  1  0.25902811  0.50677455  0.86963377  1
  O  O191  1  0.74371696  -0.00274558  0.36193329  1
  O  O192  1  0.76097444  -0.00200501  0.87335821  1
  O  O193  1  0.74145048  0.50934283  0.36838468  1
  O  O194  1  0.75644535  0.50603199  0.87113658  1
  O  O195  1  0.24615889  0.49276782  0.12575460  1
  O  O196  1  0.24344854  0.50159271  0.62884744  1
  O  O197  1  0.24494990  0.99865408  0.13184861  1
  O  O198  1  0.23477997  1.00509433  0.63342517  1
  O  O199  1  0.74699927  0.49062765  0.13142961  1
  O  O200  1  0.74493074  0.49590718  0.63204184  1
  O  O201  1  0.74322051  0.99065982  0.13338705  1
  O  O202  1  0.74947389  0.98593123  0.62483496  1
  O  O203  1  0.00683650  0.37045657  0.25013569  1
  O  O204  1  -0.00064793  0.37379208  0.76129177  1
  O  O205  1  -0.00343418  0.88499344  0.26590041  1
  O  O206  1  -0.00600916  0.88001701  0.76153481  1
  O  O207  1  0.50093133  0.37501010  0.26091515  1
  O  O208  1  0.50933021  0.37293120  0.75897936  1
  O  O209  1  0.50334717  0.86909925  0.26011665  1
  O  O210  1  0.50342068  0.87883631  0.76169921  1
  O  O211  1  0.50373862  0.12163402  0.23462137  1
  O  O212  1  0.48910236  0.12497965  0.74582637  1
  O  O213  1  0.49462019  0.62997590  0.24294461  1
  O  O214  1  0.49374265  0.61698259  0.74054151  1
  O  O215  1  0.99346618  0.13311076  0.24819438  1
  O  O216  1  0.99383055  0.12794347  0.73732686  1
  O  O217  1  0.98508424  0.61595967  0.25372846  1
  O  O218  1  0.99170332  0.62245828  0.74547185  1
  O  O219  1  0.36255027  0.24855247  0.00879827  1
  O  O220  1  0.36781255  0.25682210  0.50833771  1
  O  O221  1  0.37519781  0.76222274  0.00760537  1
  O  O222  1  0.36339194  0.75981741  0.50125584  1
  O  O223  1  0.86440639  0.25585220  -0.00367456  1
  O  O224  1  0.86720978  0.25863815  0.49970331  1
  O  O225  1  0.87472295  0.76439605  -0.00180689  1
  O  O226  1  0.86274532  0.75650376  0.50763341  1
  O  O227  1  0.13664045  0.26070527  0.49014988  1
  O  O228  1  0.13504926  0.24808656  0.98910392  1
  O  O229  1  0.13765389  0.75478126  0.49237191  1
  O  O230  1  0.12697939  0.73990115  0.99268480  1
  O  O231  1  0.63163597  0.23882270  0.50132560  1
  O  O232  1  0.64019706  0.24173358  1.00106991  1
  O  O233  1  0.63738599  0.75302903  0.49304013  1
  O  O234  1  0.62645944  0.75536895  0.98731627  1
  O  O235  1  0.49246730  0.24166318  0.12203249  1
  O  O236  1  0.48930889  0.24060145  0.62851726  1
  O  O237  1  0.49686070  0.74440456  0.13166516  1
  O  O238  1  0.50042951  0.73457420  0.61709818  1
  O  O239  1  1.00895673  0.24934006  0.13570958  1
  O  O240  1  1.00861809  0.23770197  0.62387722  1
  O  O241  1  0.99668871  0.75002802  0.12425710  1
  O  O242  1  0.98465230  0.74725084  0.61927282  1
  O  O243  1  0.00866684  0.25386591  0.36610339  1
  O  O244  1  0.00906869  0.25825560  0.87486852  1
  O  O245  1  0.00864993  0.75955263  0.38557263  1
  O  O246  1  -0.00345132  0.76759161  0.87251397  1
  O  O247  1  0.49754156  0.25879907  0.37391949  1
  O  O248  1  0.49508761  0.26195538  0.87403164  1
  O  O249  1  0.50580329  0.75399492  0.37384571  1
  O  O250  1  0.51268514  0.75695758  0.87851746  1
  O  O251  1  0.25269817  0.13628890  0.48689416  1
  O  O252  1  0.24785481  0.13114242  0.99023370  1
  O  O253  1  0.25854187  0.63851271  0.48865809  1
  O  O254  1  0.24397150  0.62538176  0.99168371  1
  O  O255  1  0.74545375  0.13157848  0.50349501  1
  O  O256  1  0.74565376  0.13621536  1.00215275  1
  O  O257  1  0.75281162  0.63112173  0.49069662  1
  O  O258  1  0.75167369  0.61994577  0.99264206  1
  O  O259  1  0.24437054  0.36660906  0.00896841  1
  O  O260  1  0.26477010  0.36700158  0.49362356  1
  O  O261  1  0.25734822  0.87702277  0.00510362  1
  O  O262  1  0.25669869  0.86228224  0.49591481  1
  O  O263  1  0.75702161  0.36404350  0.00412702  1
  O  O264  1  0.75672130  0.37143829  0.50800390  1
  O  O265  1  0.75844976  0.88310860  0.00839607  1
  O  O266  1  0.75513866  0.86825759  0.50538766  1
  O  O267  1  0.12746341  0.49185121  0.24478521  1
  O  O268  1  0.13744900  0.49652425  0.74130268  1
  O  O269  1  0.13394050  0.99848286  0.24306646  1
  O  O270  1  0.13439336  1.00135113  0.73973379  1
  O  O271  1  0.63817896  0.49546206  0.24014421  1
  O  O272  1  0.63376403  0.49018124  0.74517348  1
  O  O273  1  0.63006460  0.99292167  0.24360350  1
  O  O274  1  0.62663741  0.98572022  0.74717071  1
  O  O275  1  0.36096890  -0.00487946  0.25945244  1
  O  O276  1  0.35837108  0.01200589  0.74264459  1
  O  O277  1  0.37378993  0.50742715  0.25750029  1
  O  O278  1  0.37141111  0.50814198  0.75835746  1
  O  O279  1  0.86451846  0.00633552  0.24884915  1
  O  O280  1  0.87130370  0.00950444  0.75535904  1
  O  O281  1  0.86294216  0.50812277  0.24780642  1
  O  O282  1  0.86511469  0.49147554  0.76212970  1
  O  O283  1  0.12826821  0.36604988  0.36178602  1
  O  O284  1  0.11733272  0.37004945  0.87395382  1
  O  O285  1  0.11532197  0.86788604  0.37366658  1
  O  O286  1  0.10830416  0.87699290  0.87976077  1
  O  O287  1  0.61130901  0.37373215  0.37766773  1
  O  O288  1  0.61301735  0.38029658  0.86761272  1
  O  O289  1  0.61630555  0.86615828  0.37320902  1
  O  O290  1  0.61935796  0.86550311  0.86980562  1
  O  O291  1  0.38484686  0.13319101  0.11839007  1
  O  O292  1  0.37783494  0.13220761  0.62940814  1
  O  O293  1  0.38097485  0.63076809  0.13200443  1
  O  O294  1  0.38594414  0.62355997  0.63321876  1
  O  O295  1  0.87689405  0.12139184  0.14032710  1
  O  O296  1  0.88900064  0.11927201  0.63745499  1
  O  O297  1  0.87527200  0.62739567  0.14023139  1
  O  O298  1  0.86795213  0.64064346  0.62293347  1
  O  O299  1  0.25486357  0.25452667  0.11878499  1
  O  O300  1  0.25699162  0.24327343  0.61509354  1
  O  O301  1  0.25597849  0.75824456  0.12335979  1
  O  O302  1  0.25139267  0.74106363  0.61119419  1
  O  O303  1  0.74825871  0.25934529  0.11901262  1
  O  O304  1  0.74607166  0.26169250  0.61435930  1
  O  O305  1  0.75122666  0.76441564  0.13033602  1
  O  O306  1  0.75474708  0.75689753  0.62009211  1
  O  O307  1  0.24664384  0.24417754  0.37929420  1
  O  O308  1  0.24623099  0.24634986  0.88061119  1
  O  O309  1  0.24343087  0.74509155  0.38271406  1
  O  O310  1  0.25127022  0.73638988  0.87742717  1
  O  O311  1  0.74556965  0.24913131  0.39026074  1
  O  O312  1  0.75082545  0.25319195  0.88535179  1
  O  O313  1  0.74208819  0.74150115  0.38221595  1
  O  O314  1  0.73841750  0.74156093  0.87235788  1
  O  O315  1  -0.00038345  0.11481917  -0.00116389  1
  O  O316  1  -0.00883611  0.11950011  0.51203220  1
  O  O317  1  0.00944367  0.61981787  -0.00115722  1
  O  O318  1  -0.00832794  0.61107260  0.50394162  1
  O  O319  1  0.50528258  0.11782989  0.00368120  1
  O  O320  1  0.50761421  0.12933187  0.50890774  1
  O  O321  1  0.49598337  0.62482077  0.01475124  1
  O  O322  1  0.49493922  0.61162820  0.50692317  1
  O  O323  1  0.49090304  0.38222490  0.49653311  1
  O  O324  1  0.50656682  0.37515489  0.98737540  1
  O  O325  1  0.49120235  0.87130652  0.48820532  1
  O  O326  1  0.49395093  0.88200758  0.99318169  1
  O  O327  1  0.99046484  0.38154907  0.49799705  1
  O  O328  1  0.99523480  0.37831973  0.99243091  1
  O  O329  1  0.99175211  0.88302153  0.49304496  1
  O  O330  1  0.99085457  0.88701815  0.99061898  1
  O  O331  1  0.49770876  0.49588419  0.38260539  1
  O  O332  1  0.49606263  0.49249497  0.87835226  1
  O  O333  1  0.48954067  0.99114823  0.36904361  1
  O  O334  1  0.50196354  0.98942516  0.88612294  1
  O  O335  1  1.00816971  0.49532440  0.39233546  1
  O  O336  1  0.99521152  0.49415743  0.87957527  1
  O  O337  1  1.00939303  0.99512743  0.38959811  1
  O  O338  1  0.99354581  0.99377903  0.87836773  1
  O  O339  1  0.00685244  0.00025519  0.11582388  1
  O  O340  1  0.00888706  0.00612910  0.61704532  1
  O  O341  1  0.00899612  0.50435989  0.11807885  1
  O  O342  1  0.00933257  0.49917307  0.61251079  1
  O  O343  1  0.50391600  0.00397622  0.11501157  1
  O  O344  1  0.49667530  0.01297156  0.62833914  1
  O  O345  1  0.50954971  0.50671294  0.12438037  1
  O  O346  1  0.50780192  0.50499033  0.61923046  1
  O  O347  1  0.24349889  0.37600154  0.24212626  1
  O  O348  1  0.25486172  0.38844792  0.75641411  1
  O  O349  1  0.24689747  0.88358002  0.24250829  1
  O  O350  1  0.25553746  0.88986450  0.75395195  1
  O  O351  1  0.75310784  0.37927229  0.24330083  1
  O  O352  1  0.74518136  0.38195392  0.74449696  1
  O  O353  1  0.74540451  0.88041925  0.24523711  1
  O  O354  1  0.74237969  0.87583469  0.74190166  1
  O  O355  1  0.24793800  0.11868280  0.26304244  1
  O  O356  1  0.25351917  0.11883731  0.75572779  1
  O  O357  1  0.25839181  0.62581687  0.26117732  1
  O  O358  1  0.25853912  0.61348633  0.75698347  1
  O  O359  1  0.75454228  0.11579646  0.25021723  1
  O  O360  1  0.76394775  0.12402137  0.73940532  1
  O  O361  1  0.75693062  0.61689674  0.25770953  1
  O  O362  1  0.74609357  0.61321312  0.75888797  1
  O  O363  1  0.36927812  0.11300971  0.37867697  1
  O  O364  1  0.36214117  0.12934464  0.86695951  1
  O  O365  1  0.37058416  0.62091992  0.37040029  1
  O  O366  1  0.37246629  0.61890793  0.87006787  1
  O  O367  1  0.87087264  0.12760421  0.35970746  1
  O  O368  1  0.88260565  0.11694701  0.85702334  1
  O  O369  1  0.86456006  0.62667957  0.36565090  1
  O  O370  1  0.86784948  0.61610553  0.88139438  1
  O  O371  1  0.13515368  0.37882506  0.13317175  1
  O  O372  1  0.12435711  0.39097114  0.62843014  1
  O  O373  1  0.13087330  0.88692670  0.12344291  1
  O  O374  1  0.11896078  0.88793358  0.62314026  1
  O  O375  1  0.63617562  0.38107058  0.12597581  1
  O  O376  1  0.63111521  0.38474454  0.63166802  1
  O  O377  1  0.62921554  0.88033293  0.12993407  1
  O  O378  1  0.63034264  0.87345681  0.63075794  1
  O  O379  1  0.12019350  0.25687466  0.25505660  1
  O  O380  1  0.12600362  0.25446901  0.76058184  1
  O  O381  1  0.12790641  0.75390323  0.26529295  1
  O  O382  1  0.11902354  0.74627878  0.75271285  1
  O  O383  1  0.62022001  0.25268484  0.25348494  1
  O  O384  1  0.62486859  0.26340912  0.74560255  1
  O  O385  1  0.62065513  0.75607830  0.25890895  1
  O  O386  1  0.62600123  0.76137102  0.75916056  1
  O  O387  1  0.37665465  0.25202016  0.23571732  1
  O  O388  1  0.37299607  0.23906691  0.74186482  1
  O  O389  1  0.38054182  0.74698316  0.24705737  1
  O  O390  1  0.37221918  0.73475395  0.74734555  1
  O  O391  1  0.88464169  0.24464935  0.25098059  1
  O  O392  1  0.87756047  0.23759390  0.75327787  1
  O  O393  1  0.86931048  0.73420432  0.25076838  1
  O  O394  1  0.87546210  0.75791567  0.73421927  1
  O  O395  1  0.38108108  0.49317024  0.49716212  1
  O  O396  1  0.37777939  0.50253542  0.98690117  1
  O  O397  1  0.36394770  0.99109182  0.49111850  1
  O  O398  1  0.38247503  0.98885764  1.00356807  1
  O  O399  1  0.88732285  0.49171868  0.50469407  1
  O  O400  1  0.88141583  0.49269321  0.99245157  1
  O  O401  1  0.88433699  0.99064173  0.50438812  1
  O  O402  1  0.88024234  0.99758976  0.99134277  1
  O  O403  1  0.11609361  0.00318987  0.00689799  1
  O  O404  1  0.11934703  -0.00024742  0.51263001  1
  O  O405  1  0.12167096  0.50953598  0.00442479  1
  O  O406  1  0.11696253  0.49355849  0.50753949  1
  O  O407  1  0.61780450  0.00508680  0.00393500  1
  O  O408  1  0.62867371  0.01314154  0.50464054  1
  O  O409  1  0.62718524  0.49778221  0.01346572  1
  O  O410  1  0.61625969  0.49510985  0.51087467  1
  O  O411  1  0.36445362  0.37001014  0.12677553  1
  O  O412  1  0.38119510  0.36520238  0.61958561  1
  O  O413  1  0.37055105  0.87180036  0.11933406  1
  O  O414  1  0.38172842  0.87302642  0.61267885  1
  O  O415  1  0.86945538  0.38110282  0.11128046  1
  O  O416  1  0.86432637  0.38083257  0.62012955  1
  O  O417  1  0.86647925  0.87663596  0.11478547  1
  O  O418  1  0.86842665  0.86755638  0.61557861  1
  O  O419  1  0.13158115  0.13873318  0.37176964  1
  O  O420  1  0.13332581  0.13366659  0.87341645  1
  O  O421  1  0.13505369  0.63275761  0.37380391  1
  O  O422  1  0.13595138  0.62023378  0.88269277  1
  O  O423  1  0.62807839  0.12575845  0.38478608  1
  O  O424  1  0.61944150  0.12000507  0.88525131  1
  O  O425  1  0.63013222  0.63537587  0.36901838  1
  O  O426  1  0.62977247  0.63736780  0.87385588  1
