# generated using pymatgen
data_V85Zn86O256
_symmetry_space_group_name_H-M   'P 1'
_cell_length_a   16.92773732
_cell_length_b   16.93566953
_cell_length_c   16.92691205
_cell_angle_alpha   89.93470573
_cell_angle_beta   90.00248715
_cell_angle_gamma   90.01789275
_symmetry_Int_Tables_number   1
_chemical_formula_structural   V85Zn86O256
_chemical_formula_sum   'V85 Zn86 O256'
_cell_volume   4852.64717524
_cell_formula_units_Z   1
loop_
 _symmetry_equiv_pos_site_id
 _symmetry_equiv_pos_as_xyz
  1  'x, y, z'
loop_
 _atom_site_type_symbol
 _atom_site_label
 _atom_site_symmetry_multiplicity
 _atom_site_fract_x
 _atom_site_fract_y
 _atom_site_fract_z
 _atom_site_occupancy
  V  V0  1  -0.00095549  0.12772874  0.62648636  1
  V  V1  1  0.75272831  0.74862065  0.50025890  1
  V  V2  1  -0.00076107  0.87533828  0.37697240  1
  V  V3  1  0.48623635  0.49602571  0.49604514  1
  V  V4  1  0.24229559  0.50155078  0.74345922  1
  V  V5  1  0.50040984  0.74707466  0.24847045  1
  V  V6  1  0.87540441  0.37535940  0.49934500  1
  V  V7  1  0.75188100  0.37479177  0.12774367  1
  V  V8  1  0.36511124  0.01139825  0.37932695  1
  V  V9  1  0.87034540  0.88237696  0.00806571  1
  V  V10  1  0.49659071  0.62222796  0.62781895  1
  V  V11  1  0.00493692  0.62819684  0.11586686  1
  V  V12  1  0.87292326  0.50383658  0.86120848  1
  V  V13  1  0.74970408  0.37710615  0.62877661  1
  V  V14  1  0.30813878  0.05786982  0.20376752  1
  V  V15  1  0.50081853  0.13608701  0.62056046  1
  V  V16  1  0.12142196  0.87476466  0.75282906  1
  V  V17  1  0.37248640  0.62331870  0.74717841  1
  V  V18  1  0.62522492  0.37216378  0.25618831  1
  V  V19  1  0.50085275  -0.00013226  0.49671960  1
  V  V20  1  0.74766010  0.24874075  0.49722837  1
  V  V21  1  0.87828619  0.50002858  0.37519983  1
  V  V22  1  0.12655090  0.74656107  0.88983973  1
  V  V23  1  0.43480033  0.79674284  0.68376664  1
  V  V24  1  0.12601457  0.25203843  0.87716969  1
  V  V25  1  0.12302835  0.37513446  0.73784285  1
  V  V26  1  0.25739226  0.62070258  0.37765153  1
  V  V27  1  0.87325446  0.87786924  0.49599591  1
  V  V28  1  0.00119711  0.75044636  0.25218218  1
  V  V29  1  0.74861002  0.75324671  0.00249047  1
  V  V30  1  0.62895456  0.50028353  0.62708795  1
  V  V31  1  0.62347160  0.37833971  0.75631516  1
  V  V32  1  -0.00236888  0.00073321  0.49664612  1
  V  V33  1  0.25179785  0.86756297  0.12148712  1
  V  V34  1  0.37434068  0.13132070  0.74461258  1
  V  V35  1  0.75388858  0.62504854  0.86160054  1
  V  V36  1  0.74552383  0.12755802  0.87635098  1
  V  V37  1  0.38572099  -0.00764206  0.87053360  1
  V  V38  1  0.87620960  0.00304925  0.88070185  1
  V  V39  1  0.12642701  0.50308114  0.11995383  1
  V  V40  1  0.87600968  0.62550093  0.24976185  1
  V  V41  1  0.24907286  0.86859311  0.62262555  1
  V  V42  1  0.37166287  0.74417423  0.11727354  1
  V  V43  1  0.37673515  0.49038530  0.87364410  1
  V  V44  1  0.74708543  0.00024260  0.75084297  1
  V  V45  1  0.26203669  0.75024468  0.50550057  1
  V  V46  1  0.25393575  0.49875425  0.25339978  1
  V  V47  1  0.62766140  0.62363318  -0.00179078  1
  V  V48  1  0.74990389  0.25069804  0.00203802  1
  V  V49  1  0.12574913  0.00162715  0.62372954  1
  V  V50  1  0.62620848  0.49854522  0.12664598  1
  V  V51  1  0.50563658  -0.00922480  0.00524726  1
  V  V52  1  0.48953774  0.87417537  0.37688318  1
  V  V53  1  0.62490313  0.62286869  0.49951987  1
  V  V54  1  -0.00103395  0.87959955  0.88219093  1
  V  V55  1  0.26109634  0.25058975  0.49197879  1
  V  V56  1  0.24799566  0.62541982  0.88944022  1
  V  V57  1  0.13094179  0.88206635  0.25137051  1
  V  V58  1  0.26539435  0.36909307  0.62152789  1
  V  V59  1  0.25715132  0.36872282  0.12006932  1
  V  V60  1  0.62848927  0.88123666  0.23633865  1
  V  V61  1  0.00120291  0.37775607  0.87453761  1
  V  V62  1  0.62615870  0.75148442  0.37283239  1
  V  V63  1  0.24897596  0.00205025  0.74984122  1
  V  V64  1  0.11869369  0.11670263  -0.00315975  1
  V  V65  1  0.87739922  0.38037023  -0.00015492  1
  V  V66  1  0.61254036  0.75426250  0.86874498  1
  V  V67  1  0.12757636  0.74618848  0.37934508  1
  V  V68  1  0.50229467  0.48978454  -0.00593411  1
  V  V69  1  0.49800491  0.25516868  0.75564338  1
  V  V70  1  0.88588652  0.25044961  0.13003118  1
  V  V71  1  0.75746762  -0.00321459  0.24503690  1
  V  V72  1  0.01119872  0.50075107  0.50302800  1
  V  V73  1  0.62232707  0.12370036  0.01314105  1
  V  V74  1  0.12076603  0.36548182  0.24994595  1
  V  V75  1  0.75003416  0.87456351  0.62757294  1
  V  V76  1  0.00385418  0.36326408  0.37089206  1
  V  V77  1  0.87878700  0.12603717  0.26058772  1
  V  V78  1  0.12835039  0.13444035  0.48747302  1
  V  V79  1  0.48234522  0.37601922  0.37650266  1
  V  V80  1  -0.00336748  0.11305505  0.12321889  1
  V  V81  1  0.87235315  0.75268721  0.12506124  1
  V  V82  1  0.50047964  0.62063841  0.12530361  1
  V  V83  1  -0.00721847  0.74472655  0.75241039  1
  V  V84  1  0.48744568  0.24223381  0.24448330  1
  Zn  Zn85  1  0.62561916  0.00198079  0.62408256  1
  Zn  Zn86  1  0.12795100  0.62386721  0.51476385  1
  Zn  Zn87  1  0.62591754  0.12513673  0.49741856  1
  Zn  Zn88  1  0.38627580  0.36053903  -0.00166432  1
  Zn  Zn89  1  0.12608511  -0.00051353  0.12475289  1
  Zn  Zn90  1  -0.00305710  0.24993421  0.75036335  1
  Zn  Zn91  1  0.48665306  0.12416909  0.12668905  1
  Zn  Zn92  1  0.62299811  0.24627416  0.37428416  1
  Zn  Zn93  1  0.61470774  0.87409180  0.75133261  1
  Zn  Zn94  1  0.37755375  0.61934576  0.25294886  1
  Zn  Zn95  1  0.00446705  0.50643142  -0.00378373  1
  Zn  Zn96  1  0.75098810  0.62345740  0.37539278  1
  Zn  Zn97  1  -0.00082548  0.61343437  0.63675975  1
  Zn  Zn98  1  0.75065035  0.49999003  0.25218559  1
  Zn  Zn99  1  0.24998635  0.12654729  0.87293243  1
  Zn  Zn100  1  0.62147261  0.25651326  0.87939437  1
  Zn  Zn101  1  0.87283582  0.74014842  0.63148906  1
  Zn  Zn102  1  0.25714728  0.24227629  0.00395503  1
  Zn  Zn103  1  0.87364964  0.12801994  0.75088510  1
  Zn  Zn104  1  0.37460375  0.86712339  -0.00809189  1
  Zn  Zn105  1  0.87392922  0.25032342  0.62786322  1
  Zn  Zn106  1  0.74873660  0.11442094  0.37822401  1
  Zn  Zn107  1  0.17929933  0.18924686  0.18476765  1
  Zn  Zn108  1  0.18480015  0.19142927  0.68390774  1
  Zn  Zn109  1  0.18785065  0.68796269  0.18981393  1
  Zn  Zn110  1  0.17866622  0.68709483  0.69170386  1
  Zn  Zn111  1  0.69109154  0.18806285  0.19229537  1
  Zn  Zn112  1  0.68423744  0.19037540  0.68590140  1
  Zn  Zn113  1  0.68912544  0.68743152  0.18711020  1
  Zn  Zn114  1  0.68407209  0.68993892  0.68715840  1
  Zn  Zn115  1  0.30726397  0.30918213  0.30922183  1
  Zn  Zn116  1  0.30978331  0.31135269  0.81083961  1
  Zn  Zn117  1  0.31243645  0.80902307  0.30766560  1
  Zn  Zn118  1  0.30348169  0.81307526  0.81709703  1
  Zn  Zn119  1  0.81455550  0.31100499  0.31312606  1
  Zn  Zn120  1  0.81184119  0.31291491  0.81119705  1
  Zn  Zn121  1  0.81063338  0.81553001  0.31343574  1
  Zn  Zn122  1  0.80957743  0.81474833  0.81768887  1
  Zn  Zn123  1  0.19183599  0.43090825  0.43510771  1
  Zn  Zn124  1  0.18852261  0.43945779  0.93670806  1
  Zn  Zn125  1  0.18645419  0.93625451  0.44087904  1
  Zn  Zn126  1  0.18917570  0.93830955  0.93779460  1
  Zn  Zn127  1  0.68738077  0.43810235  0.43965117  1
  Zn  Zn128  1  0.69271529  0.44094299  0.93682410  1
  Zn  Zn129  1  0.68565689  0.93802601  0.43124009  1
  Zn  Zn130  1  0.68502424  0.93605998  0.93779643  1
  Zn  Zn131  1  0.31111466  0.05821542  0.04248034  1
  Zn  Zn132  1  0.31365761  0.06613344  0.55920474  1
  Zn  Zn133  1  0.31690669  0.55334573  0.06470302  1
  Zn  Zn134  1  0.30741494  0.56143009  0.56575133  1
  Zn  Zn135  1  0.80730038  0.06260761  0.06843937  1
  Zn  Zn136  1  0.81377043  0.06165661  0.56222097  1
  Zn  Zn137  1  0.81244945  0.56399413  0.06076543  1
  Zn  Zn138  1  0.81734096  0.56364504  0.56631781  1
  Zn  Zn139  1  0.43738932  0.43492854  0.18972092  1
  Zn  Zn140  1  0.43894249  0.43890536  0.68803835  1
  Zn  Zn141  1  0.44164533  0.93021391  0.18492513  1
  Zn  Zn142  1  0.43292159  0.95723454  0.67723053  1
  Zn  Zn143  1  0.94118854  0.44080382  0.18670914  1
  Zn  Zn144  1  0.93730560  0.43543346  0.68533433  1
  Zn  Zn145  1  0.93761662  0.93806398  0.19063928  1
  Zn  Zn146  1  0.93377101  0.93756659  0.68834375  1
  Zn  Zn147  1  0.06037124  0.06415916  0.31188485  1
  Zn  Zn148  1  0.06014088  0.06302603  0.81268306  1
  Zn  Zn149  1  0.06622299  0.55968967  0.31144712  1
  Zn  Zn150  1  0.06567944  0.56381962  0.81628007  1
  Zn  Zn151  1  0.56463182  0.06236348  0.31306447  1
  Zn  Zn152  1  0.56320423  0.06548131  0.81366668  1
  Zn  Zn153  1  0.56196526  0.55896984  0.31386262  1
  Zn  Zn154  1  0.56310230  0.56467349  0.81083506  1
  Zn  Zn155  1  0.43753721  0.18799899  0.43174207  1
  Zn  Zn156  1  0.43664162  0.18159921  0.93429333  1
  Zn  Zn157  1  0.43782123  0.68650344  0.43964215  1
  Zn  Zn158  1  0.43610843  0.67762240  0.93828181  1
  Zn  Zn159  1  0.93632533  0.18852494  0.44187813  1
  Zn  Zn160  1  0.93779451  0.19056587  0.93929298  1
  Zn  Zn161  1  0.93762802  0.68616693  0.44201720  1
  Zn  Zn162  1  0.93368308  0.69155216  0.93519622  1
  Zn  Zn163  1  0.06523085  0.31190483  0.06101338  1
  Zn  Zn164  1  0.06251813  0.31177070  0.55923920  1
  Zn  Zn165  1  0.05924564  0.81826796  0.06478764  1
  Zn  Zn166  1  0.06430474  0.80920669  0.56488732  1
  Zn  Zn167  1  0.56348617  0.30837417  0.06880165  1
  Zn  Zn168  1  0.56130250  0.31417887  0.56114991  1
  Zn  Zn169  1  0.56034664  0.80824151  0.05923513  1
  Zn  Zn170  1  0.56880452  0.81868770  0.55544354  1
  O  O171  1  0.11443148  0.12216108  0.11734755  1
  O  O172  1  0.11458238  0.11996454  0.61943252  1
  O  O173  1  0.11561608  0.61850883  0.13169758  1
  O  O174  1  0.11181214  0.62616133  0.62727685  1
  O  O175  1  0.62500303  0.12948158  0.11471342  1
  O  O176  1  0.61530304  0.12242093  0.62149949  1
  O  O177  1  0.62132048  0.61846319  0.11940780  1
  O  O178  1  0.61714191  0.61925828  0.62208383  1
  O  O179  1  0.38427755  0.37671479  0.37055663  1
  O  O180  1  0.37031648  0.38760162  0.87339766  1
  O  O181  1  0.38700393  0.87746426  0.36659136  1
  O  O182  1  0.36960291  0.88682212  0.87345254  1
  O  O183  1  0.88324815  0.38247018  0.37694607  1
  O  O184  1  0.87745251  0.38307448  0.88227123  1
  O  O185  1  0.88140891  0.86980354  0.38832354  1
  O  O186  1  0.87901411  0.88378472  0.88506429  1
  O  O187  1  0.26670970  -0.00809144  0.38160429  1
  O  O188  1  0.25447497  0.00021548  0.86067985  1
  O  O189  1  0.24365731  0.50850772  0.36764907  1
  O  O190  1  0.25669992  0.50575519  0.86665399  1
  O  O191  1  0.74528579  -0.00163881  0.35621880  1
  O  O192  1  0.75590028  0.00601999  0.87060865  1
  O  O193  1  0.76478772  0.50076161  0.37511436  1
  O  O194  1  0.75685324  0.51637387  0.87726422  1
  O  O195  1  0.24326622  0.49146127  0.13147331  1
  O  O196  1  0.25061727  0.48610705  0.63269933  1
  O  O197  1  0.25430002  0.99685524  0.13422782  1
  O  O198  1  0.24919779  0.99296775  0.63312443  1
  O  O199  1  0.74471122  0.49300807  0.12608837  1
  O  O200  1  0.73899249  0.49192660  0.61708765  1
  O  O201  1  0.74617617  1.00167901  0.14360465  1
  O  O202  1  0.74918404  0.99415753  0.63391019  1
  O  O203  1  0.01251651  0.38108262  0.25488060  1
  O  O204  1  0.00834440  0.37600260  0.75600043  1
  O  O205  1  0.00487089  0.86888566  0.25767122  1
  O  O206  1  0.00171205  0.87351783  0.76365379  1
  O  O207  1  0.50522810  0.36941116  0.25897191  1
  O  O208  1  0.50896037  0.36684654  0.74364642  1
  O  O209  1  0.51192887  0.86873269  0.25538447  1
  O  O210  1  0.49308244  0.86598953  0.73196769  1
  O  O211  1  0.50275019  0.13802350  0.24807634  1
  O  O212  1  0.49430762  0.13089333  0.74155600  1
  O  O213  1  0.49992583  0.62802494  0.24401995  1
  O  O214  1  0.49201760  0.62165532  0.73624812  1
  O  O215  1  0.99049330  0.12026739  0.23995844  1
  O  O216  1  0.99706881  0.12527710  0.73997511  1
  O  O217  1  0.99164916  0.63032156  0.24472695  1
  O  O218  1  1.00065675  0.64192587  0.75918839  1
  O  O219  1  0.36985500  0.24993945  -0.00961003  1
  O  O220  1  0.36016848  0.24098593  0.49967400  1
  O  O221  1  0.38348771  0.74923300  0.01187531  1
  O  O222  1  0.36167488  0.74772590  0.50004662  1
  O  O223  1  0.87012534  0.26263106  0.00565677  1
  O  O224  1  0.86790815  0.25891095  0.50393830  1
  O  O225  1  0.86680980  0.75929067  0.00380625  1
  O  O226  1  0.86858428  0.75760513  0.50248710  1
  O  O227  1  0.12973254  0.23776195  0.50162918  1
  O  O228  1  0.12799990  0.24170275  0.99236011  1
  O  O229  1  0.13197340  0.74894313  0.49218993  1
  O  O230  1  0.11813721  0.75549013  0.98895596  1
  O  O231  1  0.63344292  0.25054160  0.49728211  1
  O  O232  1  0.63028430  0.24335062  0.99895388  1
  O  O233  1  0.63155500  0.74455877  0.49154097  1
  O  O234  1  0.63108680  0.74464165  0.99148946  1
  O  O235  1  0.49693615  0.24732700  0.13945272  1
  O  O236  1  0.50298845  0.24129234  0.63242758  1
  O  O237  1  0.49627945  0.73934667  0.12874745  1
  O  O238  1  0.49798324  0.74447878  0.61907943  1
  O  O239  1  0.98879602  0.24454368  0.12043014  1
  O  O240  1  0.99841037  0.24071675  0.62468320  1
  O  O241  1  0.99451179  0.74545982  0.13199424  1
  O  O242  1  0.99852483  0.75995347  0.64598342  1
  O  O243  1  -0.00323153  0.26415428  0.37951621  1
  O  O244  1  0.00916108  0.25845757  0.87455211  1
  O  O245  1  0.00854733  0.75438318  0.37362286  1
  O  O246  1  0.00347379  0.75915491  0.86982310  1
  O  O247  1  0.50090186  0.26214913  0.36737087  1
  O  O248  1  0.50504602  0.24262752  0.85957800  1
  O  O249  1  0.50542597  0.75483922  0.37046024  1
  O  O250  1  0.51457899  0.74045343  0.87982556  1
  O  O251  1  0.23737348  0.13698940  0.50791011  1
  O  O252  1  0.23674159  0.12552826  0.99249377  1
  O  O253  1  0.24646681  0.63035807  0.49508845  1
  O  O254  1  0.25843785  0.61678287  0.98796488  1
  O  O255  1  0.75099369  0.13355518  0.49896793  1
  O  O256  1  0.74309808  0.12970325  0.99563323  1
  O  O257  1  0.74314745  0.63087474  0.49844289  1
  O  O258  1  0.74407982  0.63235584  0.99347450  1
  O  O259  1  0.24866226  0.37590131  0.01443072  1
  O  O260  1  0.24560861  0.36498062  0.51245756  1
  O  O261  1  0.25364770  0.88426837  0.01643939  1
  O  O262  1  0.24666400  0.86846899  0.51525536  1
  O  O263  1  0.75719487  0.37124792  0.00635953  1
  O  O264  1  0.75406435  0.36995670  0.50836053  1
  O  O265  1  0.75760871  0.86597123  -0.00503102  1
  O  O266  1  0.75561665  0.87199755  0.50501444  1
  O  O267  1  0.13398882  0.49407351  0.23971460  1
  O  O268  1  0.13584150  0.49110358  0.75733473  1
  O  O269  1  0.11928489  0.98535574  0.25002435  1
  O  O270  1  0.13116187  0.99565443  0.74542687  1
  O  O271  1  0.62806775  0.49294140  0.24396263  1
  O  O272  1  0.61824574  0.49413311  0.73647232  1
  O  O273  1  0.62859143  0.98523350  0.25016883  1
  O  O274  1  0.63512143  0.99509086  0.75220928  1
  O  O275  1  0.37460525  -0.00237652  0.25913635  1
  O  O276  1  0.36721492  0.00685004  0.75376742  1
  O  O277  1  0.35923892  0.49971636  0.24559441  1
  O  O278  1  0.36693177  0.50587289  0.75484117  1
  O  O279  1  0.86546493  0.00676440  0.24804918  1
  O  O280  1  0.86240464  0.00235100  0.75943245  1
  O  O281  1  0.87611963  0.50870058  0.25625139  1
  O  O282  1  0.87667563  0.49547400  0.76201461  1
  O  O283  1  0.11876985  0.38098484  0.35842688  1
  O  O284  1  0.12136635  0.36993381  0.86896906  1
  O  O285  1  0.12277168  0.86526299  0.37051252  1
  O  O286  1  0.11651120  0.87259225  0.87360686  1
  O  O287  1  0.62344996  0.37608095  0.36334085  1
  O  O288  1  0.63325340  0.37872393  0.86012043  1
  O  O289  1  0.61663355  0.86276334  0.36834547  1
  O  O290  1  0.62652238  0.85873086  0.87261696  1
  O  O291  1  0.36343224  0.11202169  0.13567175  1
  O  O292  1  0.38431596  0.11770414  0.63673926  1
  O  O293  1  0.38234708  0.62710394  0.12662537  1
  O  O294  1  0.37907699  0.62208118  0.63784669  1
  O  O295  1  0.88067496  0.13266374  0.12973113  1
  O  O296  1  0.88868484  0.12385946  0.62454842  1
  O  O297  1  0.88194270  0.63071304  0.13198853  1
  O  O298  1  0.88751023  0.62773722  0.62262446  1
  O  O299  1  0.24417835  0.26578438  0.12485422  1
  O  O300  1  0.24722694  0.26360984  0.61831416  1
  O  O301  1  0.25925585  0.75414629  0.12666344  1
  O  O302  1  0.24363603  0.75693161  0.61992756  1
  O  O303  1  0.76036727  0.25572767  0.12003037  1
  O  O304  1  0.74936683  0.25809447  0.61445519  1
  O  O305  1  0.75575982  0.74453836  0.11099909  1
  O  O306  1  0.75084334  0.75750710  0.61990736  1
  O  O307  1  0.24789804  0.25971752  0.39252171  1
  O  O308  1  0.23530965  0.24857202  0.87256063  1
  O  O309  1  0.24476232  0.74538121  0.38264511  1
  O  O310  1  0.23928345  0.73956039  0.87417009  1
  O  O311  1  0.75017758  0.25199051  0.38862238  1
  O  O312  1  0.74827978  0.24303075  0.88311164  1
  O  O313  1  0.74178970  0.74883221  0.38068363  1
  O  O314  1  0.74562321  0.74062548  0.88352695  1
  O  O315  1  0.00590997  0.12966239  0.00904983  1
  O  O316  1  0.00840577  0.11900203  0.50445826  1
  O  O317  1  -0.00706666  0.62768043  0.01258200  1
  O  O318  1  0.00487099  0.60774776  0.49282802  1
  O  O319  1  0.50675458  0.11587003  0.00420628  1
  O  O320  1  0.49975995  0.12133306  0.50521182  1
  O  O321  1  0.50806530  0.61199972  0.00593371  1
  O  O322  1  0.50431894  0.61930038  0.50872935  1
  O  O323  1  0.50178115  0.38006477  0.48505752  1
  O  O324  1  0.50466298  0.38551076  1.00417311  1
  O  O325  1  0.50184657  0.88436856  0.48918939  1
  O  O326  1  0.49901844  0.88708534  1.00146958  1
  O  O327  1  0.99761764  0.38305832  0.49087356  1
  O  O328  1  0.99283192  0.37799461  0.99393142  1
  O  O329  1  0.99387490  0.88067826  0.49887251  1
  O  O330  1  0.98897997  0.87366538  0.98910595  1
  O  O331  1  0.50229759  0.48602159  0.38111709  1
  O  O332  1  0.49113403  0.50737451  0.88285150  1
  O  O333  1  0.49210797  0.99263603  0.37791943  1
  O  O334  1  0.49429392  1.00312588  0.88314050  1
  O  O335  1  0.99273104  0.49332993  0.37947140  1
  O  O336  1  0.99226162  0.49685279  0.87786036  1
  O  O337  1  1.00663763  0.99198043  0.38932653  1
  O  O338  1  0.98455474  0.99546562  0.87176318  1
  O  O339  1  -0.00051314  0.00951868  0.12336842  1
  O  O340  1  0.00446502  0.00380251  0.61615286  1
  O  O341  1  0.00788405  0.51113175  0.12301590  1
  O  O342  1  -0.00170354  0.49321221  0.60614204  1
  O  O343  1  0.49400395  0.00257565  0.10940341  1
  O  O344  1  0.50414239  0.01204720  0.61277450  1
  O  O345  1  0.50610901  0.50261900  0.11972221  1
  O  O346  1  0.50578308  0.50594572  0.61703324  1
  O  O347  1  0.24058992  0.37938348  0.24179438  1
  O  O348  1  0.24454114  0.37990061  0.73905525  1
  O  O349  1  0.24151567  0.86898751  0.23805107  1
  O  O350  1  0.24333614  0.88098331  0.74097005  1
  O  O351  1  0.74355125  0.37557638  0.24483789  1
  O  O352  1  0.74156581  0.37055692  0.73560006  1
  O  O353  1  0.73947431  0.88172191  0.25045391  1
  O  O354  1  0.75020531  0.88216526  0.74327592  1
  O  O355  1  0.24409937  0.11859902  0.24997734  1
  O  O356  1  0.25538927  0.11890665  0.74631739  1
  O  O357  1  0.25023734  0.61623216  0.25888875  1
  O  O358  1  0.25504996  0.61664965  0.75308388  1
  O  O359  1  0.75944091  0.11513312  0.25180046  1
  O  O360  1  0.74827837  0.11889700  0.75836088  1
  O  O361  1  0.76402106  0.62431906  0.25147927  1
  O  O362  1  0.74965665  0.63099226  0.76278984  1
  O  O363  1  0.37372213  0.11041750  0.37255023  1
  O  O364  1  0.37251984  0.11181051  0.86083343  1
  O  O365  1  0.36167592  0.62974666  0.37291994  1
  O  O366  1  0.36855263  0.61737743  0.86388798  1
  O  O367  1  0.87558953  0.12906203  0.36371614  1
  O  O368  1  0.86360609  0.11948263  0.87862009  1
  O  O369  1  0.87672053  0.61832569  0.36706347  1
  O  O370  1  0.86230097  0.61927351  0.87955553  1
  O  O371  1  0.12907792  0.38240845  0.13321727  1
  O  O372  1  0.12800167  0.37187999  0.63577845  1
  O  O373  1  0.13179615  0.87761073  0.13232954  1
  O  O374  1  0.13181036  0.88179234  0.63124825  1
  O  O375  1  0.63009143  0.37901872  0.13651252  1
  O  O376  1  0.62979219  0.38328778  0.63024499  1
  O  O377  1  0.62174280  0.86746101  0.13860135  1
  O  O378  1  0.63777908  0.87739951  0.62782424  1
  O  O379  1  0.12249743  0.26646344  0.24684973  1
  O  O380  1  0.12143322  0.25871975  0.75711647  1
  O  O381  1  0.11972146  0.75877537  0.25826586  1
  O  O382  1  0.11378094  0.75946980  0.76277494  1
  O  O383  1  0.61752221  0.25844101  0.25127083  1
  O  O384  1  0.61759697  0.26083860  0.75141886  1
  O  O385  1  0.62274463  0.75602470  0.25576715  1
  O  O386  1  0.62405380  0.75183844  0.76376362  1
  O  O387  1  0.38855934  0.25188489  0.25304573  1
  O  O388  1  0.38170819  0.24161321  0.75338796  1
  O  O389  1  0.38428665  0.74555085  0.23829008  1
  O  O390  1  0.37678985  0.74379081  0.75256429  1
  O  O391  1  0.87009355  0.24001740  0.24044252  1
  O  O392  1  0.87770172  0.24660365  0.74694308  1
  O  O393  1  0.87911056  0.74538358  0.24615631  1
  O  O394  1  0.88917375  0.75841624  0.75494973  1
  O  O395  1  0.38737371  0.50559120  0.50366562  1
  O  O396  1  0.38559975  0.49358023  0.99103759  1
  O  O397  1  0.38556538  1.00316040  0.48945015  1
  O  O398  1  0.38814252  0.99660301  0.98717748  1
  O  O399  1  0.88394836  0.49389949  0.49078972  1
  O  O400  1  0.87573559  0.48952097  0.99576092  1
  O  O401  1  0.88505676  0.99061932  0.50348475  1
  O  O402  1  0.86527040  0.99336905  0.99388526  1
  O  O403  1  0.12563273  0.01227368  0.00060644  1
  O  O404  1  0.12070320  0.00905813  0.50638985  1
  O  O405  1  0.12387237  0.49707884  0.01447387  1
  O  O406  1  0.11326049  0.49827414  0.49246583  1
  O  O407  1  0.61268295  0.00602166  -0.00497023  1
  O  O408  1  0.61251741  0.00049810  0.49821849  1
  O  O409  1  0.62116265  0.50366267  0.00455193  1
  O  O410  1  0.61666372  0.50538346  0.50753262  1
  O  O411  1  0.35996239  0.37937272  0.12252906  1
  O  O412  1  0.36392708  0.37433395  0.62715503  1
  O  O413  1  0.36878102  0.86298743  0.12411801  1
  O  O414  1  0.37163973  0.86311157  0.63422785  1
  O  O415  1  0.87409338  0.37023035  0.12022121  1
  O  O416  1  0.86531279  0.37560498  0.61819055  1
  O  O417  1  0.88062903  0.86990261  0.11498261  1
  O  O418  1  0.86391861  0.87321383  0.61663632  1
  O  O419  1  0.12237169  0.12259043  0.38937652  1
  O  O420  1  0.12155962  0.13310729  0.88027723  1
  O  O421  1  0.13336732  0.63650396  0.37310371  1
  O  O422  1  0.13504199  0.63352072  0.87582803  1
  O  O423  1  0.62949173  0.12880684  0.37801960  1
  O  O424  1  0.63655623  0.12596909  0.88371465  1
  O  O425  1  0.62487769  0.63578177  0.37787738  1
  O  O426  1  0.63560255  0.63132866  0.87772256  1
