# generated using pymatgen
data_V85Zn86O256
_symmetry_space_group_name_H-M   'P 1'
_cell_length_a   16.92067149
_cell_length_b   16.91366234
_cell_length_c   16.92054573
_cell_angle_alpha   90.01676564
_cell_angle_beta   89.95100635
_cell_angle_gamma   89.97511268
_symmetry_Int_Tables_number   1
_chemical_formula_structural   V85Zn86O256
_chemical_formula_sum   'V85 Zn86 O256'
_cell_volume   4842.49741679
_cell_formula_units_Z   1
loop_
 _symmetry_equiv_pos_site_id
 _symmetry_equiv_pos_as_xyz
  1  'x, y, z'
loop_
 _atom_site_type_symbol
 _atom_site_label
 _atom_site_symmetry_multiplicity
 _atom_site_fract_x
 _atom_site_fract_y
 _atom_site_fract_z
 _atom_site_occupancy
  V  V0  1  0.74909758  0.37415050  0.12638606  1
  V  V1  1  0.63151303  0.49597217  0.62430882  1
  V  V2  1  0.24565024  0.25408883  0.49201218  1
  V  V3  1  0.12700519  0.37406573  0.74792079  1
  V  V4  1  0.62718809  0.87595811  0.74450903  1
  V  V5  1  0.63213135  0.37091252  0.74567740  1
  V  V6  1  0.25129603  0.50161590  0.75060841  1
  V  V7  1  -0.00386298  0.87859872  0.87185646  1
  V  V8  1  0.74596547  0.24670351  -0.00271468  1
  V  V9  1  -0.00362439  0.75135090  0.74478246  1
  V  V10  1  0.62513957  0.50194590  0.12450247  1
  V  V11  1  0.61626436  0.24983929  0.36990687  1
  V  V12  1  0.37176906  0.50480849  0.87519335  1
  V  V13  1  0.13180750  0.62239794  -0.00324641  1
  V  V14  1  0.49848120  0.49707602  0.49577085  1
  V  V15  1  0.87052724  0.74901920  0.12047244  1
  V  V16  1  0.13437951  0.01027313  0.62189126  1
  V  V17  1  0.00821162  0.62608637  0.12734474  1
  V  V18  1  0.12817864  0.24883314  0.87558425  1
  V  V19  1  0.64077956  0.62861778  -0.00598575  1
  V  V20  1  0.75517422  0.76188451  0.51745266  1
  V  V21  1  -0.00426812  0.24324354  0.75041625  1
  V  V22  1  0.37436824  0.75253071  0.12720975  1
  V  V23  1  0.50095802  0.50239870  -0.00190903  1
  V  V24  1  0.37646294  0.62755837  0.24959810  1
  V  V25  1  0.75998316  0.11742338  0.87112040  1
  V  V26  1  0.12628904  0.49977283  0.62378153  1
  V  V27  1  0.87159233  0.24962412  0.12733096  1
  V  V28  1  0.50195245  0.63257248  0.12159882  1
  V  V29  1  0.13130173  0.74569405  0.87225057  1
  V  V30  1  0.87146870  0.36714302  0.50872430  1
  V  V31  1  0.37638330  0.25515624  0.13423970  1
  V  V32  1  0.87538846  0.37602115  0.00023153  1
  V  V33  1  0.13001297  0.87589608  0.74310675  1
  V  V34  1  0.11858048  0.76899734  0.36905423  1
  V  V35  1  0.87376987  0.12276233  0.25361828  1
  V  V36  1  0.36873424  0.87839444  -0.00508112  1
  V  V37  1  0.25289333  -0.00021755  0.75848987  1
  V  V38  1  0.26225277  0.37499478  0.61927579  1
  V  V39  1  0.49551289  0.00308577  -0.00242861  1
  V  V40  1  -0.00937367  0.00036631  -0.00626639  1
  V  V41  1  0.37386103  0.75418423  0.62445329  1
  V  V42  1  0.37599808  0.49493478  0.37617826  1
  V  V43  1  0.37069677  0.11950353  0.25448735  1
  V  V44  1  0.50021104  0.75075213  0.74978470  1
  V  V45  1  0.24549760  0.88012292  0.13947793  1
  V  V46  1  0.37516777  0.87732464  0.50190183  1
  V  V47  1  0.00062439  0.37616735  0.87511174  1
  V  V48  1  0.24533072  0.50116972  0.24240872  1
  V  V49  1  0.24853053  0.75437790  0.50414253  1
  V  V50  1  0.87791150  0.49711358  0.37925711  1
  V  V51  1  0.00395807  0.24759509  0.25364912  1
  V  V52  1  0.37091644  0.62826200  0.75399248  1
  V  V53  1  0.00499824  0.36905133  0.37834867  1
  V  V54  1  0.75500601  0.63185595  0.37886323  1
  V  V55  1  -0.00450843  0.12302264  0.12230561  1
  V  V56  1  0.74975526  0.49896502  0.25149078  1
  V  V57  1  0.23653854  0.12294309  0.38033878  1
  V  V58  1  0.62948148  0.62762906  0.50317610  1
  V  V59  1  0.12410586  0.37577115  0.24511518  1
  V  V60  1  0.12313510  0.62711948  0.49859188  1
  V  V61  1  0.38207689  0.11860148  0.74958784  1
  V  V62  1  0.00588150  0.49905405  0.00561502  1
  V  V63  1  0.50038610  0.37277466  0.87332990  1
  V  V64  1  0.62098065  -0.00020831  0.62751743  1
  V  V65  1  0.49992430  0.24772626  0.73886923  1
  V  V66  1  0.50310246  0.87123301  0.36170057  1
  V  V67  1  0.49610081  0.87935683  0.87353036  1
  V  V68  1  0.63836451  0.74801506  0.87521740  1
  V  V69  1  0.62103534  0.12682097  0.50797891  1
  V  V70  1  0.74992498  0.50190440  0.75695042  1
  V  V71  1  0.76344773  -0.00076830  0.74628571  1
  V  V72  1  0.86289332  0.87220585  -0.00635324  1
  V  V73  1  -0.00551001  0.62641881  0.62507594  1
  V  V74  1  0.12575905  0.12137020  0.00396402  1
  V  V75  1  0.74872425  0.12495402  0.37798480  1
  V  V76  1  0.24766379  0.62727976  0.37433614  1
  V  V77  1  0.50081801  0.12893229  0.12972153  1
  V  V78  1  0.49849224  0.00325709  0.50079678  1
  V  V79  1  0.87121574  0.62846690  0.75661257  1
  V  V80  1  -0.00774849  0.12207505  0.62169228  1
  V  V81  1  0.25345166  0.25073328  0.00469742  1
  V  V82  1  0.74137229  -0.00968078  0.24866887  1
  V  V83  1  0.88736329  0.88007684  0.50659176  1
  V  V84  1  0.88229548  0.62746589  0.25157727  1
  Zn  Zn85  1  0.24717260  0.37898309  0.12182741  1
  Zn  Zn86  1  0.01307376  0.00382303  0.48948030  1
  Zn  Zn87  1  0.37742486  0.24590919  0.61877939  1
  Zn  Zn88  1  0.00236706  0.77424275  0.24938128  1
  Zn  Zn89  1  0.11405608  -0.01852707  0.13173992  1
  Zn  Zn90  1  0.62616702  0.75927787  0.36452000  1
  Zn  Zn91  1  0.86606221  0.24686929  0.63498060  1
  Zn  Zn92  1  0.62472263  0.11948722  0.00005790  1
  Zn  Zn93  1  0.61789332  -0.01253250  0.12897429  1
  Zn  Zn94  1  0.49465161  0.37216656  0.37031142  1
  Zn  Zn95  1  0.61861796  0.36965626  0.24833667  1
  Zn  Zn96  1  0.62334725  0.24333757  0.87285389  1
  Zn  Zn97  1  0.87083518  0.50517196  0.87966642  1
  Zn  Zn98  1  0.88128872  -0.00987351  0.37337784  1
  Zn  Zn99  1  0.74551759  0.25220371  0.50812514  1
  Zn  Zn100  1  0.00046913  0.49781460  0.50303283  1
  Zn  Zn101  1  0.25077953  0.74798285  -0.00342167  1
  Zn  Zn102  1  0.49939642  0.62485301  0.62334577  1
  Zn  Zn103  1  0.25668276  0.12173599  0.87902510  1
  Zn  Zn104  1  0.37549459  0.37490286  0.00116398  1
  Zn  Zn105  1  0.37221388  -0.00109500  0.37168291  1
  Zn  Zn106  1  0.74054784  0.86491153  0.12390391  1
  Zn  Zn107  1  0.15012055  0.13473985  0.23171407  1
  Zn  Zn108  1  0.19245555  0.18731642  0.68686031  1
  Zn  Zn109  1  0.18849803  0.69361537  0.18641026  1
  Zn  Zn110  1  0.18798514  0.68717848  0.68614552  1
  Zn  Zn111  1  0.68503512  0.18185116  0.18772065  1
  Zn  Zn112  1  0.69004289  0.18454738  0.68735198  1
  Zn  Zn113  1  0.68680535  0.68879046  0.19186262  1
  Zn  Zn114  1  0.68838001  0.68564373  0.68988220  1
  Zn  Zn115  1  0.31088641  0.31167283  0.31168527  1
  Zn  Zn116  1  0.31514621  0.31004761  0.81143913  1
  Zn  Zn117  1  0.31515885  0.81230719  0.31552984  1
  Zn  Zn118  1  0.31025516  0.81577058  0.81193095  1
  Zn  Zn119  1  0.80994438  0.31029551  0.31799205  1
  Zn  Zn120  1  0.81199537  0.31242634  0.81503680  1
  Zn  Zn121  1  0.82044765  0.81263680  0.31622291  1
  Zn  Zn122  1  0.81434173  0.81575050  0.80459268  1
  Zn  Zn123  1  0.18756037  0.43663655  0.43534656  1
  Zn  Zn124  1  0.18863519  0.43707978  0.93707179  1
  Zn  Zn125  1  0.19446284  0.94073582  0.43945458  1
  Zn  Zn126  1  0.18151681  0.93673892  0.93743787  1
  Zn  Zn127  1  0.68890443  0.43681605  0.43747112  1
  Zn  Zn128  1  0.68540434  0.43602956  0.93642497  1
  Zn  Zn129  1  0.68653636  0.93814764  0.43467785  1
  Zn  Zn130  1  0.68123552  0.94054998  0.93228167  1
  Zn  Zn131  1  0.31284410  0.06220704  0.06662578  1
  Zn  Zn132  1  0.31172398  0.06858415  0.56364718  1
  Zn  Zn133  1  0.31312617  0.56257167  0.06160335  1
  Zn  Zn134  1  0.31340370  0.56622086  0.56245840  1
  Zn  Zn135  1  0.80982509  0.05833943  0.06286082  1
  Zn  Zn136  1  0.81027646  0.05984788  0.56443143  1
  Zn  Zn137  1  0.81750371  0.56294652  0.06469269  1
  Zn  Zn138  1  0.81341634  0.56042347  0.56627784  1
  Zn  Zn139  1  0.43956678  0.43875669  0.19042904  1
  Zn  Zn140  1  0.44396446  0.44026986  0.68684807  1
  Zn  Zn141  1  0.43359443  0.94136190  0.18368175  1
  Zn  Zn142  1  0.43755976  0.93909650  0.68555362  1
  Zn  Zn143  1  0.93893141  0.43847275  0.18769904  1
  Zn  Zn144  1  0.93824745  0.43915331  0.68988104  1
  Zn  Zn145  1  0.92712337  0.93793430  0.18092515  1
  Zn  Zn146  1  0.93978792  0.93389934  0.67660662  1
  Zn  Zn147  1  0.05726540  -0.03225093  0.30405787  1
  Zn  Zn148  1  0.06372694  0.06363102  0.81190968  1
  Zn  Zn149  1  0.06426604  0.56183015  0.31455897  1
  Zn  Zn150  1  0.06073697  0.56176845  0.81406934  1
  Zn  Zn151  1  0.55724306  0.06414492  0.31490614  1
  Zn  Zn152  1  0.56486685  0.06417039  0.81561260  1
  Zn  Zn153  1  0.57059397  0.58783719  0.30646185  1
  Zn  Zn154  1  0.56126887  0.56440455  0.81177057  1
  Zn  Zn155  1  0.43292731  0.19017012  0.44254013  1
  Zn  Zn156  1  0.43618932  0.18714083  0.93394295  1
  Zn  Zn157  1  0.44016949  0.68632849  0.43648632  1
  Zn  Zn158  1  0.44141822  0.69205529  0.93732740  1
  Zn  Zn159  1  0.94285088  0.17979746  0.43649099  1
  Zn  Zn160  1  0.93527295  0.18927510  0.93519017  1
  Zn  Zn161  1  0.93746506  0.69473689  0.44106317  1
  Zn  Zn162  1  0.94165064  0.69006078  0.93607323  1
  Zn  Zn163  1  0.06374940  0.30818355  0.06520283  1
  Zn  Zn164  1  0.06446316  0.30803034  0.56344779  1
  Zn  Zn165  1  0.05923391  0.80940567  0.05993219  1
  Zn  Zn166  1  0.06474244  0.81536164  0.56464691  1
  Zn  Zn167  1  0.56150701  0.31290689  0.06357114  1
  Zn  Zn168  1  0.56319894  0.31638594  0.55849679  1
  Zn  Zn169  1  0.56434965  0.81334421  0.05931683  1
  Zn  Zn170  1  0.56290074  0.81277778  0.55927742  1
  O  O171  1  0.11221089  0.13416017  0.11006203  1
  O  O172  1  0.11969476  0.11353951  0.63132841  1
  O  O173  1  0.11425511  0.63408014  0.11696000  1
  O  O174  1  0.11745078  0.62020805  0.61941134  1
  O  O175  1  0.61292179  0.12313921  0.12084719  1
  O  O176  1  0.62336862  0.11769502  0.61449439  1
  O  O177  1  0.61803481  0.62169861  0.11454123  1
  O  O178  1  0.62549879  0.61836463  0.61629470  1
  O  O179  1  0.37298964  0.39159894  0.37146561  1
  O  O180  1  0.38710107  0.38292666  0.87249949  1
  O  O181  1  0.38253864  0.87777784  0.38373810  1
  O  O182  1  0.38373332  0.86910463  0.88222915  1
  O  O183  1  0.88370712  0.38043842  0.38217876  1
  O  O184  1  0.88270742  0.37638114  0.88375273  1
  O  O185  1  0.86719093  0.87561725  0.39714706  1
  O  O186  1  0.88847811  0.86656409  0.87854908  1
  O  O187  1  0.25598456  0.01767792  0.38221921  1
  O  O188  1  0.24318223  0.00124520  0.86276548  1
  O  O189  1  0.25622973  0.50860854  0.36858746  1
  O  O190  1  0.26489807  0.49458083  0.86859859  1
  O  O191  1  0.74946029  0.01025653  0.36584376  1
  O  O192  1  0.74770146  0.00913191  0.86358331  1
  O  O193  1  0.76226218  0.50433399  0.37107993  1
  O  O194  1  0.74981661  0.49711826  0.86212313  1
  O  O195  1  0.25403220  0.49874219  0.13815058  1
  O  O196  1  0.24536310  0.49531550  0.62838731  1
  O  O197  1  0.24902349  0.98134378  0.11841643  1
  O  O198  1  0.23905293  1.00677130  0.63561094  1
  O  O199  1  0.74847475  0.49544683  0.13369631  1
  O  O200  1  0.73889499  0.50218042  0.63572919  1
  O  O201  1  0.74560231  0.99955699  0.13911477  1
  O  O202  1  0.73777790  1.00693445  0.63986652  1
  O  O203  1  0.00323690  0.36830833  0.25620120  1
  O  O204  1  0.00874427  0.37005631  0.75495870  1
  O  O205  1  0.00379977  0.88676855  0.24270261  1
  O  O206  1  0.00447229  0.86926722  0.75290225  1
  O  O207  1  0.50718134  0.38383328  0.25821041  1
  O  O208  1  0.50916316  0.36945323  0.75499814  1
  O  O209  1  0.49016421  0.87987220  0.26311354  1
  O  O210  1  0.50498100  0.87165194  0.75604755  1
  O  O211  1  0.48704734  0.12322453  0.24123638  1
  O  O212  1  0.49169304  0.13216985  0.75363492  1
  O  O213  1  0.48140019  0.61451160  0.23569600  1
  O  O214  1  0.48888601  0.63182405  0.74712110  1
  O  O215  1  0.98317932  0.13378205  0.24286796  1
  O  O216  1  1.00518460  0.13325753  0.74096374  1
  O  O217  1  0.99756368  0.62090742  0.24099315  1
  O  O218  1  0.99612083  0.63214003  0.74415896  1
  O  O219  1  0.36811287  0.25086819  0.00502429  1
  O  O220  1  0.36082383  0.24948043  0.50536322  1
  O  O221  1  0.37318098  0.75659139  0.00887065  1
  O  O222  1  0.36964548  0.75428478  0.50625803  1
  O  O223  1  0.86431852  0.25490044  0.00538124  1
  O  O224  1  0.87741603  0.26175963  0.49944763  1
  O  O225  1  0.88152435  0.75861286  0.00727578  1
  O  O226  1  0.86237377  0.75950944  0.49967454  1
  O  O227  1  0.14489046  0.25212767  0.50481861  1
  O  O228  1  0.13266174  0.24476717  0.99482377  1
  O  O229  1  0.13197494  0.75071189  0.49219595  1
  O  O230  1  0.12300986  0.74140167  0.98847873  1
  O  O231  1  0.62414736  0.24155314  0.49348302  1
  O  O232  1  0.63798616  0.25085310  0.99873392  1
  O  O233  1  0.63659935  0.74281880  0.49673628  1
  O  O234  1  0.62129252  0.74028617  0.98738915  1
  O  O235  1  0.49015781  0.23878500  0.11646861  1
  O  O236  1  0.49883727  0.25739328  0.63527256  1
  O  O237  1  0.49193039  0.73869629  0.11885679  1
  O  O238  1  0.49271629  0.74864898  0.63063061  1
  O  O239  1  0.98867351  0.24505399  0.13035293  1
  O  O240  1  1.00076582  0.23785918  0.63348086  1
  O  O241  1  0.99108907  0.74273954  0.12783737  1
  O  O242  1  1.00855988  0.74206172  0.63669036  1
  O  O243  1  -0.00714110  0.25755410  0.36584319  1
  O  O244  1  0.00752721  0.25530135  0.87042203  1
  O  O245  1  0.01619525  0.75027021  0.37503631  1
  O  O246  1  0.01007025  0.75574228  0.86226947  1
  O  O247  1  0.51315572  0.25081192  0.38132124  1
  O  O248  1  0.50145098  0.25855196  0.86531634  1
  O  O249  1  0.49956968  0.76768086  0.38132667  1
  O  O250  1  0.50615945  0.76105295  0.86731833  1
  O  O251  1  0.25266326  0.13621472  0.48897467  1
  O  O252  1  0.24250522  0.12973965  1.00037981  1
  O  O253  1  0.24437382  0.63490580  0.49487652  1
  O  O254  1  0.23587977  0.62557563  1.00426023  1
  O  O255  1  0.73953976  0.12123439  0.49270736  1
  O  O256  1  0.74959828  0.12908539  0.99127550  1
  O  O257  1  0.75141045  0.63505524  0.49821184  1
  O  O258  1  0.73988206  0.61850923  1.00104084  1
  O  O259  1  0.25229856  0.36692975  0.00201196  1
  O  O260  1  0.24871518  0.36789127  0.50609116  1
  O  O261  1  0.26097975  0.87382556  -0.00400992  1
  O  O262  1  0.26576539  0.86854228  0.49654406  1
  O  O263  1  0.75450318  0.36761539  0.00409000  1
  O  O264  1  0.76831314  0.37383954  0.49495432  1
  O  O265  1  0.76081844  0.88101851  -0.00733278  1
  O  O266  1  0.74562709  0.86313553  0.50062048  1
  O  O267  1  0.13339420  0.48981606  0.25538320  1
  O  O268  1  0.13230507  0.49658955  0.74552183  1
  O  O269  1  0.12440112  1.02486849  0.23437342  1
  O  O270  1  0.13251500  0.99473281  0.74364079  1
  O  O271  1  0.64014398  0.50707701  0.24469301  1
  O  O272  1  0.62956442  0.49485766  0.74447001  1
  O  O273  1  0.63841363  1.00837893  0.25091121  1
  O  O274  1  0.62588417  0.99364422  0.74344045  1
  O  O275  1  0.37033385  0.01616668  0.24795954  1
  O  O276  1  0.36918226  0.00878802  0.74659318  1
  O  O277  1  0.36454559  0.50862835  0.25682667  1
  O  O278  1  0.37381979  0.50919708  0.75509973  1
  O  O279  1  0.86121679  0.00918602  0.25043724  1
  O  O280  1  0.86167422  -0.00718422  0.74252469  1
  O  O281  1  0.86846019  0.50341844  0.25785413  1
  O  O282  1  0.86650110  0.50605971  0.75218052  1
  O  O283  1  0.11112475  0.37816626  0.36627796  1
  O  O284  1  0.12030540  0.36886259  0.86884259  1
  O  O285  1  0.12736628  0.87091652  0.37549431  1
  O  O286  1  0.11472323  0.86835171  0.86513714  1
  O  O287  1  0.63044669  0.35797467  0.37639338  1
  O  O288  1  0.61412192  0.37367316  0.86648004  1
  O  O289  1  0.60928875  0.87555986  0.37463496  1
  O  O290  1  0.61730314  0.86863774  0.86418265  1
  O  O291  1  0.37718025  0.13233711  0.13571252  1
  O  O292  1  0.37157445  0.12787868  0.64300338  1
  O  O293  1  0.37935963  0.63333751  0.12744364  1
  O  O294  1  0.37673198  0.63793914  0.63123178  1
  O  O295  1  0.87534799  0.13005563  0.13139870  1
  O  O296  1  0.88886957  0.12363905  0.62559929  1
  O  O297  1  0.88686997  0.63032554  0.12909114  1
  O  O298  1  0.88901183  0.61819236  0.63479373  1
  O  O299  1  0.26073259  0.25356709  0.11179493  1
  O  O300  1  0.25198093  0.26037421  0.61905270  1
  O  O301  1  0.25782541  0.76003980  0.11959857  1
  O  O302  1  0.25522387  0.74792402  0.61186091  1
  O  O303  1  0.75251762  0.25298194  0.11855092  1
  O  O304  1  0.75456565  0.24506436  0.62135534  1
  O  O305  1  0.76523427  0.74389230  0.13171945  1
  O  O306  1  0.74800997  0.75063481  0.61548181  1
  O  O307  1  0.25406745  0.24463897  0.38579666  1
  O  O308  1  0.24525673  0.24975047  0.88525129  1
  O  O309  1  0.24095570  0.74794484  0.38374928  1
  O  O310  1  0.23564259  0.75248778  0.87423538  1
  O  O311  1  0.74110553  0.23790222  0.38121058  1
  O  O312  1  0.74873756  0.23958537  0.88100739  1
  O  O313  1  0.74918183  0.73893723  0.37802751  1
  O  O314  1  0.73745266  0.75391966  0.86583560  1
  O  O315  1  0.00220149  0.11798938  -0.00076587  1
  O  O316  1  0.00359350  0.12596600  0.51765953  1
  O  O317  1  0.00759566  0.61750574  0.00587966  1
  O  O318  1  0.00360767  0.62571595  0.50902948  1
  O  O319  1  0.49745034  0.11720736  0.00422126  1
  O  O320  1  0.50551328  0.11151422  0.49443313  1
  O  O321  1  0.50468643  0.61926296  0.00554743  1
  O  O322  1  0.51321078  0.61968890  0.50036263  1
  O  O323  1  0.50551946  0.39239610  0.49069010  1
  O  O324  1  0.50053122  0.38262485  0.99027474  1
  O  O325  1  0.49157642  0.88377023  0.49637285  1
  O  O326  1  0.48859751  0.87949890  0.99269107  1
  O  O327  1  0.99437486  0.37422401  0.49319198  1
  O  O328  1  0.99816762  0.38088485  0.99800555  1
  O  O329  1  0.99193970  0.88004978  0.50451386  1
  O  O330  1  0.99393326  0.88175540  0.99052694  1
  O  O331  1  0.49122809  0.51116837  0.38023006  1
  O  O332  1  0.49184262  0.49419813  0.87719126  1
  O  O333  1  0.49595506  0.99008939  0.38326652  1
  O  O334  1  0.50307240  0.98755553  0.88039527  1
  O  O335  1  0.98940812  0.49301934  0.37634928  1
  O  O336  1  0.99859322  0.49211147  0.88553888  1
  O  O337  1  0.99240147  1.01697806  0.38026067  1
  O  O338  1  1.00455081  0.99020373  0.87952037  1
  O  O339  1  -0.00447705  0.00760772  0.11077503  1
  O  O340  1  0.01177287  0.01184644  0.62679468  1
  O  O341  1  -0.00271300  0.50787846  0.11374492  1
  O  O342  1  0.00967268  0.50811690  0.62630594  1
  O  O343  1  0.49771396  0.01117134  0.11736186  1
  O  O344  1  0.51223879  -0.00388280  0.61736261  1
  O  O345  1  0.50428478  0.51033834  0.11710187  1
  O  O346  1  0.51084304  0.50403370  0.61663895  1
  O  O347  1  0.24036121  0.38214134  0.25107404  1
  O  O348  1  0.24586290  0.38040240  0.74270664  1
  O  O349  1  0.25366079  0.87396465  0.23842134  1
  O  O350  1  0.24129197  0.88386303  0.75106085  1
  O  O351  1  0.74761375  0.38285440  0.24663418  1
  O  O352  1  0.73798043  0.38016141  0.75496633  1
  O  O353  1  0.75424293  0.88823102  0.25359393  1
  O  O354  1  0.74079093  0.89031572  0.75537293  1
  O  O355  1  0.26391827  0.13723008  0.26712464  1
  O  O356  1  0.25929672  0.11827717  0.75470373  1
  O  O357  1  0.25550587  0.62026307  0.25219859  1
  O  O358  1  0.26282940  0.61938506  0.74507648  1
  O  O359  1  0.75755981  0.12054851  0.25661080  1
  O  O360  1  0.74670349  0.11259838  0.76147222  1
  O  O361  1  0.76363050  0.61643324  0.26065606  1
  O  O362  1  0.76007972  0.61688374  0.74666700  1
  O  O363  1  0.37975869  0.12519538  0.36196879  1
  O  O364  1  0.37274114  0.12898087  0.85712030  1
  O  O365  1  0.36809934  0.62490458  0.36518498  1
  O  O366  1  0.38038885  0.61846458  0.86667062  1
  O  O367  1  0.86398249  0.12716373  0.36828219  1
  O  O368  1  0.85948958  0.12644605  0.87611300  1
  O  O369  1  0.87274258  0.61804154  0.37516693  1
  O  O370  1  0.88335961  0.62336387  0.86124179  1
  O  O371  1  0.12420944  0.37102171  0.14056187  1
  O  O372  1  0.13132524  0.38240394  0.63046533  1
  O  O373  1  0.14141843  0.86782054  0.11730946  1
  O  O374  1  0.11976361  0.88740477  0.63804755  1
  O  O375  1  0.63181920  0.38313764  0.12593531  1
  O  O376  1  0.62123926  0.38389375  0.63350644  1
  O  O377  1  0.62847410  0.87257386  0.12607322  1
  O  O378  1  0.62069202  0.88007943  0.63744755  1
  O  O379  1  0.10780848  0.24883458  0.24578182  1
  O  O380  1  0.11966515  0.25390681  0.75659298  1
  O  O381  1  0.12477004  0.74844982  0.26692442  1
  O  O382  1  0.12130398  0.75703373  0.75256375  1
  O  O383  1  0.62926153  0.24712807  0.26630606  1
  O  O384  1  0.61847717  0.25579334  0.75052916  1
  O  O385  1  0.61331109  0.69588982  0.27252524  1
  O  O386  1  0.61975162  0.75627631  0.75284416  1
  O  O387  1  0.37309532  0.24481498  0.23846114  1
  O  O388  1  0.38379125  0.24233435  0.74569369  1
  O  O389  1  0.36973052  0.74248966  0.23733493  1
  O  O390  1  0.37647455  0.74609437  0.74384057  1
  O  O391  1  0.87684365  0.24477107  0.24554847  1
  O  O392  1  0.89155485  0.25827183  0.75168431  1
  O  O393  1  0.88315160  0.74436401  0.24530723  1
  O  O394  1  0.88464772  0.74294131  0.74915631  1
  O  O395  1  0.38583388  0.51307067  0.48976147  1
  O  O396  1  0.38102462  0.49996022  0.99102187  1
  O  O397  1  0.38163689  0.99334810  0.50482197  1
  O  O398  1  0.38455030  0.99230692  1.00281925  1
  O  O399  1  0.87772070  0.49028064  0.49477128  1
  O  O400  1  0.88383248  0.49381758  0.99912898  1
  O  O401  1  0.87405732  0.98844171  0.50123928  1
  O  O402  1  0.88364376  0.99101313  1.00003582  1
  O  O403  1  0.11356830  0.00645115  0.00379519  1
  O  O404  1  0.12885316  -0.00696947  0.51905469  1
  O  O405  1  0.11719590  0.50727956  -0.00454864  1
  O  O406  1  0.12328129  0.50722850  0.50553260  1
  O  O407  1  0.60855235  -0.00253881  0.00244700  1
  O  O408  1  0.61900782  0.00458423  0.50704482  1
  O  O409  1  0.61999343  0.50670141  0.00394683  1
  O  O410  1  0.62399479  0.50363737  0.50855941  1
  O  O411  1  0.37432793  0.36819331  0.12292169  1
  O  O412  1  0.36414632  0.37882843  0.62992025  1
  O  O413  1  0.36682379  0.86915197  0.11813699  1
  O  O414  1  0.37883488  0.86247978  0.61927182  1
  O  O415  1  0.86868113  0.37005718  0.12055435  1
  O  O416  1  0.88440293  0.37334014  0.61094581  1
  O  O417  1  0.86482129  0.86625108  0.11239288  1
  O  O418  1  0.87170152  0.87310104  0.60790393  1
  O  O419  1  0.14084140  0.12807027  0.36765337  1
  O  O420  1  0.12617832  0.13147140  0.88792265  1
  O  O421  1  0.13025786  0.62988812  0.38330953  1
  O  O422  1  0.11895706  0.63340602  0.88302264  1
  O  O423  1  0.62764879  0.13278912  0.38345913  1
  O  O424  1  0.63652715  0.12613169  0.88081047  1
  O  O425  1  0.64445876  0.60808395  0.39641496  1
  O  O426  1  0.61975319  0.63492305  0.88171376  1
