# generated using pymatgen
data_V85Zn86O256
_symmetry_space_group_name_H-M   'P 1'
_cell_length_a   16.91831143
_cell_length_b   16.91827851
_cell_length_c   16.91428913
_cell_angle_alpha   89.94209965
_cell_angle_beta   89.95701131
_cell_angle_gamma   89.98498703
_symmetry_Int_Tables_number   1
_chemical_formula_structural   V85Zn86O256
_chemical_formula_sum   'V85 Zn86 O256'
_cell_volume   4841.35106857
_cell_formula_units_Z   1
loop_
 _symmetry_equiv_pos_site_id
 _symmetry_equiv_pos_as_xyz
  1  'x, y, z'
loop_
 _atom_site_type_symbol
 _atom_site_label
 _atom_site_symmetry_multiplicity
 _atom_site_fract_x
 _atom_site_fract_y
 _atom_site_fract_z
 _atom_site_occupancy
  V  V0  1  0.73919325  -0.00240492  0.74929018  1
  V  V1  1  0.04014551  0.42870604  0.42972061  1
  V  V2  1  0.25237600  0.50639808  0.74678408  1
  V  V3  1  0.37585718  0.87258109  0.50543607  1
  V  V4  1  0.51024201  0.11258287  0.10915548  1
  V  V5  1  0.87821724  0.50072508  0.87475635  1
  V  V6  1  0.37780931  0.75467515  0.12569216  1
  V  V7  1  0.50662753  0.87844079  0.37220858  1
  V  V8  1  0.25418172  0.87763088  0.12204989  1
  V  V9  1  0.63058368  0.37213841  0.74467401  1
  V  V10  1  0.25569148  0.00565578  0.75040712  1
  V  V11  1  0.75126922  0.74299509  0.49601750  1
  V  V12  1  0.75415675  0.25055929  0.52151185  1
  V  V13  1  0.62311362  0.24655262  0.87597772  1
  V  V14  1  0.38094758  0.49815596  0.37278055  1
  V  V15  1  0.25198127  0.62814840  0.87365315  1
  V  V16  1  0.11812478  0.00554367  0.62575970  1
  V  V17  1  -0.00284576  0.87738318  0.87918074  1
  V  V18  1  0.63043152  0.37478744  0.23641245  1
  V  V19  1  0.86945732  0.62450857  0.25644653  1
  V  V20  1  0.00514206  0.49929496  0.00658852  1
  V  V21  1  0.25490496  0.36880073  0.62678592  1
  V  V22  1  0.87057836  0.00034153  0.87827340  1
  V  V23  1  0.37207070  0.74597822  0.63112133  1
  V  V24  1  0.75173395  0.75183122  0.00045696  1
  V  V25  1  0.12423120  0.87586537  0.25541375  1
  V  V26  1  0.45209322  -0.06771668  -0.06687047  1
  V  V27  1  0.73298733  0.00663774  0.24863178  1
  V  V28  1  0.37810235  0.51608518  0.87134503  1
  V  V29  1  0.62947016  0.49926809  0.62226364  1
  V  V30  1  0.87033997  0.12708075  0.74521642  1
  V  V31  1  0.49610752  0.62265077  0.62859999  1
  V  V32  1  -0.00679278  0.25015567  0.74659318  1
  V  V33  1  0.51000902  0.62328999  0.12588750  1
  V  V34  1  0.26164624  0.12325031  0.87318212  1
  V  V35  1  0.12336578  0.87939541  0.75055209  1
  V  V36  1  0.50775139  0.50270345  0.00185989  1
  V  V37  1  0.37861862  0.62482363  0.25049161  1
  V  V38  1  0.00430891  0.62283740  0.12900382  1
  V  V39  1  0.11899713  0.24896964  0.37795570  1
  V  V40  1  0.24880705  0.37730464  0.12514803  1
  V  V41  1  0.24749071  0.50009341  0.24095129  1
  V  V42  1  0.74802583  0.49663590  0.23249108  1
  V  V43  1  0.24567041  0.62681883  0.38013398  1
  V  V44  1  -0.00036926  0.37448495  0.87817791  1
  V  V45  1  0.73463582  0.87987362  0.13132926  1
  V  V46  1  0.49807197  0.37699689  0.87137659  1
  V  V47  1  0.12425600  0.00374909  0.12554566  1
  V  V48  1  -0.00378742  0.00544833  0.00852273  1
  V  V49  1  0.00701074  0.62106593  0.60838063  1
  V  V50  1  0.87777459  0.75748786  0.61694908  1
  V  V51  1  0.12383351  0.37897245  0.74873390  1
  V  V52  1  0.86475893  0.00124250  0.37338912  1
  V  V53  1  0.62813978  0.74347163  0.36952496  1
  V  V54  1  0.12500239  0.75152397  0.87594407  1
  V  V55  1  0.62384134  0.74698082  0.87163639  1
  V  V56  1  0.64221546  0.24825789  0.37463609  1
  V  V57  1  0.62325852  0.86824659  0.74585336  1
  V  V58  1  -0.00250019  0.75391419  0.25067000  1
  V  V59  1  0.74452293  0.25714991  0.00653830  1
  V  V60  1  0.87193876  0.37209770  0.50921568  1
  V  V61  1  0.75502786  0.49485886  0.74480248  1
  V  V62  1  0.50519083  0.37083046  0.37274026  1
  V  V63  1  0.25189778  0.00108085  0.25022559  1
  V  V64  1  0.38012104  0.36686540  0.50382511  1
  V  V65  1  -0.00054238  0.75085748  0.74952012  1
  V  V66  1  0.25026718  0.24881732  -0.00142965  1
  V  V67  1  0.00124143  0.23864124  0.24810352  1
  V  V68  1  0.11656024  0.37824824  0.24459343  1
  V  V69  1  0.62863983  0.11956979  0.50658705  1
  V  V70  1  0.87888150  0.62651369  0.74747333  1
  V  V71  1  0.37435679  0.37935809  -0.00126151  1
  V  V72  1  0.88135684  0.24891357  0.12085420  1
  V  V73  1  0.12386836  0.12532680  0.00257792  1
  V  V74  1  -0.00913878  -0.00431774  0.49931486  1
  V  V75  1  0.37999150  0.12369165  0.24983857  1
  V  V76  1  0.86237381  0.49466050  0.37981407  1
  V  V77  1  0.74644230  0.12187997  0.88614759  1
  V  V78  1  0.12475320  0.62493243  0.00414530  1
  V  V79  1  0.74870871  0.87848288  0.61601505  1
  V  V80  1  0.25161750  0.12631835  0.37847465  1
  V  V81  1  0.48607489  0.12346661  0.62746789  1
  V  V82  1  0.37762260  0.24759153  0.12456857  1
  V  V83  1  0.24869154  0.75335398  0.00156840  1
  V  V84  1  0.48690366  0.24808286  0.74093303  1
  Zn  Zn85  1  -0.00860609  0.12960175  0.62032828  1
  Zn  Zn86  1  -0.00749952  0.87351321  0.38165801  1
  Zn  Zn87  1  0.87155642  0.75496707  0.12826726  1
  Zn  Zn88  1  0.24906262  0.87548205  0.62314774  1
  Zn  Zn89  1  0.63197732  0.62049625  0.00177065  1
  Zn  Zn90  1  0.12453895  0.24782729  0.87497284  1
  Zn  Zn91  1  0.25352879  0.24395991  0.50756908  1
  Zn  Zn92  1  0.86783015  0.38252588  0.01008289  1
  Zn  Zn93  1  0.86965879  0.12550255  0.24896427  1
  Zn  Zn94  1  0.75471839  0.62391976  0.87703735  1
  Zn  Zn95  1  0.87051623  0.87926555  0.00565199  1
  Zn  Zn96  1  0.62754171  0.62091367  0.49691202  1
  Zn  Zn97  1  0.50604964  0.75471519  0.24811452  1
  Zn  Zn98  1  0.11873846  0.74562016  0.38306744  1
  Zn  Zn99  1  0.12202239  0.12412281  0.50064012  1
  Zn  Zn100  1  0.50397678  0.49900727  0.49920230  1
  Zn  Zn101  1  0.37726992  0.00005074  0.38187505  1
  Zn  Zn102  1  0.12518216  0.50182138  0.60373547  1
  Zn  Zn103  1  0.49222758  0.74687850  0.75156544  1
  Zn  Zn104  1  0.50426295  -0.00594062  0.51330886  1
  Zn  Zn105  1  0.24505790  0.74884039  0.50341774  1
  Zn  Zn106  1  0.50596744  0.24774839  0.24763083  1
  Zn  Zn107  1  0.18959418  0.18845765  0.18801917  1
  Zn  Zn108  1  0.18300344  0.18830654  0.69067896  1
  Zn  Zn109  1  0.18691910  0.69007655  0.19190840  1
  Zn  Zn110  1  0.18547171  0.68767696  0.68441953  1
  Zn  Zn111  1  0.68678803  0.18840278  0.18446254  1
  Zn  Zn112  1  0.68144090  0.18135583  0.69164572  1
  Zn  Zn113  1  0.69062022  0.68823587  0.18942900  1
  Zn  Zn114  1  0.69218791  0.68402642  0.68331065  1
  Zn  Zn115  1  0.31260480  0.31023910  0.31274817  1
  Zn  Zn116  1  0.31090023  0.31621465  0.81576026  1
  Zn  Zn117  1  0.31771142  0.81324215  0.31396076  1
  Zn  Zn118  1  0.31437469  0.82039847  0.81187345  1
  Zn  Zn119  1  0.81913993  0.31805631  0.31191204  1
  Zn  Zn120  1  0.81206896  0.31173351  0.81677186  1
  Zn  Zn121  1  0.80941108  0.81944716  0.31181319  1
  Zn  Zn122  1  0.81008309  0.81373536  0.81278875  1
  Zn  Zn123  1  0.20666049  0.43478291  0.43184595  1
  Zn  Zn124  1  0.18691484  0.43999976  0.93660784  1
  Zn  Zn125  1  0.18691978  0.93835378  0.44077819  1
  Zn  Zn126  1  0.19081202  0.94098995  0.93663560  1
  Zn  Zn127  1  0.69138842  0.43202232  0.43628566  1
  Zn  Zn128  1  0.68770155  0.43617023  0.93088164  1
  Zn  Zn129  1  0.68771691  0.93572472  0.43636453  1
  Zn  Zn130  1  0.67165495  0.93186405  0.94429308  1
  Zn  Zn131  1  0.32477245  0.05639923  0.05416080  1
  Zn  Zn132  1  0.31304583  0.05711576  0.56504289  1
  Zn  Zn133  1  0.31830656  0.56728949  0.06120958  1
  Zn  Zn134  1  0.31799558  0.55651814  0.56162320  1
  Zn  Zn135  1  0.80839186  0.06534952  0.06940551  1
  Zn  Zn136  1  0.80862731  0.06158399  0.56122222  1
  Zn  Zn137  1  0.81971683  0.56820612  0.06445045  1
  Zn  Zn138  1  0.81672110  0.56279629  0.56277446  1
  Zn  Zn139  1  0.44159192  0.43651557  0.18671388  1
  Zn  Zn140  1  0.43895908  0.43866929  0.68817829  1
  Zn  Zn141  1  0.44052713  0.93980388  0.18878813  1
  Zn  Zn142  1  0.46184533  0.96617353  0.73173074  1
  Zn  Zn143  1  0.93450633  0.43450645  0.18823656  1
  Zn  Zn144  1  0.94131876  0.43941723  0.68340025  1
  Zn  Zn145  1  0.92897031  0.93800135  0.18860470  1
  Zn  Zn146  1  0.93281038  0.94038042  0.68958996  1
  Zn  Zn147  1  0.06045724  0.06097570  0.31700071  1
  Zn  Zn148  1  0.06137920  0.06559760  0.81841135  1
  Zn  Zn149  1  0.06468220  0.56400078  0.30772155  1
  Zn  Zn150  1  0.06382732  0.56357877  0.81213877  1
  Zn  Zn151  1  0.56102362  0.06689111  0.31993666  1
  Zn  Zn152  1  0.56701161  0.04623073  0.86459435  1
  Zn  Zn153  1  0.56807409  0.56038514  0.31017729  1
  Zn  Zn154  1  0.56657637  0.56602775  0.81076186  1
  Zn  Zn155  1  0.44324867  0.18761144  0.43865715  1
  Zn  Zn156  1  0.43887398  0.18848358  0.93569582  1
  Zn  Zn157  1  0.44115923  0.68887876  0.44267917  1
  Zn  Zn158  1  0.44507591  0.70922902  0.94754886  1
  Zn  Zn159  1  0.93277914  0.18267424  0.43640038  1
  Zn  Zn160  1  0.93554869  0.18696467  0.93673860  1
  Zn  Zn161  1  0.93322361  0.68764592  0.43383673  1
  Zn  Zn162  1  0.93580851  0.68897843  0.93934092  1
  Zn  Zn163  1  0.06249461  0.31162590  0.06478205  1
  Zn  Zn164  1  0.06761982  0.30789656  0.56850330  1
  Zn  Zn165  1  0.06184875  0.81628111  0.06687233  1
  Zn  Zn166  1  0.06455030  0.81399300  0.56060309  1
  Zn  Zn167  1  0.55856104  0.30940647  0.05949241  1
  Zn  Zn168  1  0.56641076  0.31192925  0.56250778  1
  Zn  Zn169  1  0.56240509  0.81519671  0.05740065  1
  Zn  Zn170  1  0.56308114  0.80844983  0.56170939  1
  O  O171  1  0.13427781  0.11908589  0.11231347  1
  O  O172  1  0.11781508  0.11562968  0.62663898  1
  O  O173  1  0.11255304  0.63048277  0.12345392  1
  O  O174  1  0.11192986  0.62183898  0.62481020  1
  O  O175  1  0.60775939  0.13147080  0.12546837  1
  O  O176  1  0.61579294  0.13228398  0.61126427  1
  O  O177  1  0.61350016  0.62949921  0.12445269  1
  O  O178  1  0.62146312  0.61242840  0.62377969  1
  O  O179  1  0.38411339  0.37793041  0.37711119  1
  O  O180  1  0.37993621  0.38643396  0.88072022  1
  O  O181  1  0.38715640  0.87166178  0.38634481  1
  O  O182  1  0.38509004  0.87626788  0.87659362  1
  O  O183  1  0.87865102  0.38389036  0.38587954  1
  O  O184  1  0.88805896  0.38152685  0.87619020  1
  O  O185  1  0.87707304  0.89333810  0.36806449  1
  O  O186  1  0.87823820  0.88349212  0.87943074  1
  O  O187  1  0.25048500  0.01220520  0.36970727  1
  O  O188  1  0.24657471  0.00725763  0.86060837  1
  O  O189  1  0.25963804  0.50895124  0.36095447  1
  O  O190  1  0.25785355  0.50743505  0.86911827  1
  O  O191  1  0.75509366  -0.00528574  0.36291181  1
  O  O192  1  0.75000889  0.00502264  0.87482675  1
  O  O193  1  0.75948831  0.49755754  0.36637027  1
  O  O194  1  0.75932745  0.50206371  0.86326355  1
  O  O195  1  0.25768963  0.49763913  0.13460208  1
  O  O196  1  0.24586288  0.49339171  0.63110204  1
  O  O197  1  0.24940483  0.99370972  0.12884580  1
  O  O198  1  0.23473187  1.00025442  0.63297443  1
  O  O199  1  0.75695994  0.49791753  0.13349603  1
  O  O200  1  0.74603129  0.50392705  0.63694018  1
  O  O201  1  0.74633444  0.99143555  0.13508015  1
  O  O202  1  0.75439783  0.98959366  0.63512963  1
  O  O203  1  0.01226229  0.36589377  0.24371272  1
  O  O204  1  0.00509817  0.37210137  0.75642485  1
  O  O205  1  0.00673244  0.86880244  0.24759451  1
  O  O206  1  0.00415720  0.87230579  0.75785048  1
  O  O207  1  0.50979380  0.37316814  0.25606680  1
  O  O208  1  0.50762796  0.36690019  0.75277733  1
  O  O209  1  0.49359774  0.87283111  0.26798111  1
  O  O210  1  0.51970370  0.86563292  0.73888438  1
  O  O211  1  0.48884483  0.12667131  0.24817060  1
  O  O212  1  0.50230334  0.14211734  0.73653663  1
  O  O213  1  0.49412535  0.62411822  0.24400538  1
  O  O214  1  0.50395633  0.62436834  0.73410077  1
  O  O215  1  1.00406752  0.13619975  0.24796217  1
  O  O216  1  0.98890332  0.13362146  0.75551584  1
  O  O217  1  0.99530324  0.63248497  0.24535043  1
  O  O218  1  0.99250459  0.63032359  0.74546990  1
  O  O219  1  0.37020230  0.25796378  0.00546443  1
  O  O220  1  0.37294937  0.26306358  0.49283894  1
  O  O221  1  0.36137104  0.73829195  0.01893344  1
  O  O222  1  0.36976617  0.75429708  0.50793854  1
  O  O223  1  0.86968568  0.25182310  0.00823993  1
  O  O224  1  0.86021884  0.25200477  0.49724793  1
  O  O225  1  0.86284936  0.75333134  0.00198538  1
  O  O226  1  0.86828793  0.75000800  0.50608036  1
  O  O227  1  0.12919654  0.24705151  0.49153185  1
  O  O228  1  0.13181775  0.24230970  1.00051202  1
  O  O229  1  0.13171355  0.75706834  0.49410829  1
  O  O230  1  0.12900710  0.74613702  0.99718237  1
  O  O231  1  0.63908671  0.24834769  0.49599989  1
  O  O232  1  0.62998333  0.25770354  0.98520965  1
  O  O233  1  0.63353270  0.74610726  0.49056919  1
  O  O234  1  0.63549212  0.74793656  0.98757650  1
  O  O235  1  0.48761775  0.24346146  0.12497416  1
  O  O236  1  0.50230830  0.24782314  0.63515485  1
  O  O237  1  0.49331917  0.74321604  0.12807449  1
  O  O238  1  0.49157746  0.73940696  0.62444935  1
  O  O239  1  0.99051427  0.24909688  0.13010252  1
  O  O240  1  1.00237159  0.24778564  0.64190568  1
  O  O241  1  0.99768984  0.74567057  0.13663841  1
  O  O242  1  0.99495874  0.74388520  0.62979492  1
  O  O243  1  0.01178171  0.24391042  0.36717661  1
  O  O244  1  0.00124800  0.25901053  0.86859418  1
  O  O245  1  -0.00084329  0.75342224  0.36385001  1
  O  O246  1  0.00510409  0.75635230  0.87085672  1
  O  O247  1  0.50876712  0.26085616  0.37302390  1
  O  O248  1  0.50608447  0.25407890  0.86453291  1
  O  O249  1  0.51137930  0.75753263  0.37534032  1
  O  O250  1  0.51888313  0.73725343  0.86640880  1
  O  O251  1  0.24936596  0.12534581  0.49164889  1
  O  O252  1  0.24784651  0.12671179  0.99317949  1
  O  O253  1  0.25582841  0.61784535  0.48182023  1
  O  O254  1  0.24252183  0.62953229  0.99523107  1
  O  O255  1  0.73900028  0.13665482  0.50574300  1
  O  O256  1  0.75083072  0.13190666  0.99059324  1
  O  O257  1  0.75031440  0.63870404  0.50399852  1
  O  O258  1  0.75061516  0.63464720  1.00172322  1
  O  O259  1  0.25434493  0.37228048  0.00446320  1
  O  O260  1  0.26052192  0.37165673  0.50954735  1
  O  O261  1  0.24256423  0.87116455  0.01422889  1
  O  O262  1  0.26119640  0.87582901  0.50116555  1
  O  O263  1  0.75401485  0.36372918  -0.01162206  1
  O  O264  1  0.75629955  0.35887791  0.50082630  1
  O  O265  1  0.74625288  0.87188301  0.01016858  1
  O  O266  1  0.74629124  0.86705419  0.51054985  1
  O  O267  1  0.13477588  0.49036366  0.25188052  1
  O  O268  1  0.13191204  0.48936314  0.75354204  1
  O  O269  1  0.13028384  0.99656489  0.24403038  1
  O  O270  1  0.12436660  0.99544827  0.74606025  1
  O  O271  1  0.64061216  0.49291693  0.25033410  1
  O  O272  1  0.63560602  0.49293557  0.74513783  1
  O  O273  1  0.63447072  1.00233098  0.25895472  1
  O  O274  1  0.63620211  0.98779000  0.76059649  1
  O  O275  1  0.36899611  0.00804689  0.25558520  1
  O  O276  1  0.35157852  0.00012526  0.73124424  1
  O  O277  1  0.37075292  0.50561530  0.25319360  1
  O  O278  1  0.36472675  0.49611432  0.75942769  1
  O  O279  1  0.86444185  0.00462661  0.25689575  1
  O  O280  1  0.86364585  0.00563883  0.76030597  1
  O  O281  1  0.86532574  0.50283707  0.25471708  1
  O  O282  1  0.87283995  0.50567577  0.75184934  1
  O  O283  1  0.11938843  0.37056807  0.37045823  1
  O  O284  1  0.11436673  0.37547845  0.86960703  1
  O  O285  1  0.12239544  0.87957957  0.36231013  1
  O  O286  1  0.11988984  0.87278915  0.86716220  1
  O  O287  1  0.62093192  0.36714709  0.36806777  1
  O  O288  1  0.61757343  0.36943259  0.86238413  1
  O  O289  1  0.61163394  0.86540837  0.38207978  1
  O  O290  1  0.63974345  0.85257561  0.86067918  1
  O  O291  1  0.37973429  0.13064208  0.13043794  1
  O  O292  1  0.38706888  0.13110611  0.61756070  1
  O  O293  1  0.38248866  0.63082080  0.13639877  1
  O  O294  1  0.38240538  0.63101711  0.62030610  1
  O  O295  1  0.87041385  0.14214801  0.12934554  1
  O  O296  1  0.87209539  0.11974422  0.64156859  1
  O  O297  1  0.88735684  0.63015957  0.13740091  1
  O  O298  1  0.88649969  0.63407336  0.62937246  1
  O  O299  1  0.26121341  0.25400029  0.11949856  1
  O  O300  1  0.24426843  0.26438146  0.62824456  1
  O  O301  1  0.25497379  0.75878776  0.12450167  1
  O  O302  1  0.25666753  0.75250972  0.62427663  1
  O  O303  1  0.75593375  0.24723474  0.11132105  1
  O  O304  1  0.74824715  0.24912538  0.61996381  1
  O  O305  1  0.74788370  0.76091207  0.11932782  1
  O  O306  1  0.75981624  0.75490092  0.61679003  1
  O  O307  1  0.23953289  0.24055291  0.37307675  1
  O  O308  1  0.24657801  0.24490745  0.88122936  1
  O  O309  1  0.25346821  0.73326010  0.37140766  1
  O  O310  1  0.24521986  0.74754091  0.87917795  1
  O  O311  1  0.74375974  0.25229571  0.37488398  1
  O  O312  1  0.74239316  0.24172837  0.88161007  1
  O  O313  1  0.73714623  0.75954495  0.38113629  1
  O  O314  1  0.74768876  0.74514287  0.88283055  1
  O  O315  1  0.01013093  0.11727497  -0.00500179  1
  O  O316  1  -0.00018542  0.11399743  0.50270869  1
  O  O317  1  0.00329243  0.62059769  0.00931502  1
  O  O318  1  -0.00176366  0.62890887  0.50995082  1
  O  O319  1  0.49805817  0.12696128  0.00912155  1
  O  O320  1  0.50851717  0.12637625  0.51280891  1
  O  O321  1  0.50199240  0.61996822  0.00849934  1
  O  O322  1  0.50472662  0.61867528  0.51087476  1
  O  O323  1  0.49724223  0.37560859  0.49258550  1
  O  O324  1  0.49406784  0.38323819  0.99291189  1
  O  O325  1  0.49494554  0.87478261  0.49360820  1
  O  O326  1  0.48241904  0.84393745  0.98603540  1
  O  O327  1  0.99308807  0.36435927  0.49769556  1
  O  O328  1  1.00080287  0.38304300  0.99466319  1
  O  O329  1  0.99899539  0.89050596  0.50203850  1
  O  O330  1  0.99847008  0.88389319  0.99554907  1
  O  O331  1  0.49998817  0.48779211  0.37414191  1
  O  O332  1  0.49366061  0.49879120  0.87682446  1
  O  O333  1  0.49976898  0.98772566  0.38106201  1
  O  O334  1  0.47074503  0.99726146  0.84145434  1
  O  O335  1  0.99091730  0.49729760  0.36856376  1
  O  O336  1  0.99697088  0.49446626  0.88186582  1
  O  O337  1  0.99063746  0.99726861  0.38226993  1
  O  O338  1  0.99272814  0.99648706  0.88615916  1
  O  O339  1  0.00365872  -0.00432065  0.11432627  1
  O  O340  1  0.00098151  0.00321833  0.62038641  1
  O  O341  1  -0.00420167  0.50862415  0.11869505  1
  O  O342  1  0.00374704  0.51674919  0.62479420  1
  O  O343  1  0.49821932  0.01363111  0.12649055  1
  O  O344  1  0.49879217  0.01927828  0.63284659  1
  O  O345  1  0.49314373  0.50962143  0.11328418  1
  O  O346  1  0.51028386  0.50367671  0.62362039  1
  O  O347  1  0.24302090  0.38204928  0.24689502  1
  O  O348  1  0.24339762  0.38387432  0.74611659  1
  O  O349  1  0.24449412  0.87976539  0.24495086  1
  O  O350  1  0.23871981  0.88726795  0.74947749  1
  O  O351  1  0.74536886  0.38692361  0.25010105  1
  O  O352  1  0.74336968  0.38222192  0.75491913  1
  O  O353  1  0.74700946  0.88532729  0.23787298  1
  O  O354  1  0.74614397  0.87960626  0.73992832  1
  O  O355  1  0.26104411  0.12225138  0.25549054  1
  O  O356  1  0.24004687  0.11454168  0.75819564  1
  O  O357  1  0.25848146  0.61814106  0.25325001  1
  O  O358  1  0.24174867  0.61315827  0.75588246  1
  O  O359  1  0.74718356  0.11054824  0.24462513  1
  O  O360  1  0.75214704  0.11637736  0.75871310  1
  O  O361  1  0.75817634  0.61169685  0.24432466  1
  O  O362  1  0.76675218  0.61814939  0.74760838  1
  O  O363  1  0.37002356  0.12668869  0.36824736  1
  O  O364  1  0.36098959  0.13213084  0.87497415  1
  O  O365  1  0.37317739  0.62099790  0.36469358  1
  O  O366  1  0.37298579  0.62001147  0.88108391  1
  O  O367  1  0.87753322  0.10845135  0.36705999  1
  O  O368  1  0.86461774  0.11942260  0.86891315  1
  O  O369  1  0.87941737  0.61390051  0.36257817  1
  O  O370  1  0.87860282  0.61873851  0.86518285  1
  O  O371  1  0.13592594  0.36986591  0.13331849  1
  O  O372  1  0.13137350  0.38218472  0.63299265  1
  O  O373  1  0.13294408  0.88169554  0.13672786  1
  O  O374  1  0.12139462  0.88547774  0.63847068  1
  O  O375  1  0.61957074  0.36750765  0.13719290  1
  O  O376  1  0.62212677  0.38447981  0.63646328  1
  O  O377  1  0.63459749  0.87325631  0.12322330  1
  O  O378  1  0.63801690  0.86577671  0.63167532  1
  O  O379  1  0.12091424  0.25715111  0.25562108  1
  O  O380  1  0.11763409  0.26341963  0.75434025  1
  O  O381  1  0.11646835  0.75925856  0.25475893  1
  O  O382  1  0.11907489  0.75972691  0.75400526  1
  O  O383  1  0.62695828  0.25661135  0.25775054  1
  O  O384  1  0.62042477  0.25708642  0.75743145  1
  O  O385  1  0.62573332  0.74882002  0.26486231  1
  O  O386  1  0.63144405  0.75033083  0.75660081  1
  O  O387  1  0.37622044  0.24289834  0.24091723  1
  O  O388  1  0.38877518  0.25882751  0.75247541  1
  O  O389  1  0.37755246  0.74113711  0.24194973  1
  O  O390  1  0.37373278  0.75451958  0.73608669  1
  O  O391  1  0.88418072  0.24921839  0.24295386  1
  O  O392  1  0.88098819  0.24082042  0.75809155  1
  O  O393  1  0.87892682  0.74235650  0.25262602  1
  O  O394  1  0.87987510  0.74340436  0.74348683  1
  O  O395  1  0.37777824  0.48656977  0.48901145  1
  O  O396  1  0.38407202  0.49827583  0.99092012  1
  O  O397  1  0.38095737  0.98893673  0.50109762  1
  O  O398  1  0.39101256  0.98702525  0.99335670  1
  O  O399  1  0.86916607  0.49040442  0.49139076  1
  O  O400  1  0.88724475  0.50099718  0.99504765  1
  O  O401  1  0.87557691  1.00482501  0.48642198  1
  O  O402  1  0.88061851  1.00418541  0.99721963  1
  O  O403  1  0.11804980  0.00580717  0.00548950  1
  O  O404  1  0.11567386  0.00157747  0.51015606  1
  O  O405  1  0.11279550  0.50759321  -0.00355957  1
  O  O406  1  0.11413792  0.48156761  0.48555427  1
  O  O407  1  0.56701121  -0.02859926  -0.04757075  1
  O  O408  1  0.62645982  0.01602789  0.49723976  1
  O  O409  1  0.61198782  0.50052627  -0.00934676  1
  O  O410  1  0.63014425  0.49811181  0.50960543  1
  O  O411  1  0.37062819  0.36747796  0.12039690  1
  O  O412  1  0.36781220  0.38149015  0.61645653  1
  O  O413  1  0.36640021  0.86639030  0.13474871  1
  O  O414  1  0.37527262  0.86365153  0.61266843  1
  O  O415  1  0.87583674  0.35771756  0.12508706  1
  O  O416  1  0.88020944  0.37948803  0.60937200  1
  O  O417  1  0.85953801  0.87318079  0.12328299  1
  O  O418  1  0.86864914  0.86260065  0.63153873  1
  O  O419  1  0.13365944  0.13213411  0.37508545  1
  O  O420  1  0.13342057  0.12590417  0.88849550  1
  O  O421  1  0.14229799  0.62498274  0.36715517  1
  O  O422  1  0.12949045  0.63328303  0.88159353  1
  O  O423  1  0.61491886  0.13865819  0.39360996  1
  O  O424  1  0.63350399  0.13524677  0.86904731  1
  O  O425  1  0.62093711  0.63907725  0.37737612  1
  O  O426  1  0.63504452  0.63313729  0.87513801  1
