# generated using pymatgen
data_V85Zn86O256
_symmetry_space_group_name_H-M   'P 1'
_cell_length_a   16.94594443
_cell_length_b   16.95716472
_cell_length_c   16.95574015
_cell_angle_alpha   90.13843091
_cell_angle_beta   90.08820810
_cell_angle_gamma   90.04024054
_symmetry_Int_Tables_number   1
_chemical_formula_structural   V85Zn86O256
_chemical_formula_sum   'V85 Zn86 O256'
_cell_volume   4872.29840071
_cell_formula_units_Z   1
loop_
 _symmetry_equiv_pos_site_id
 _symmetry_equiv_pos_as_xyz
  1  'x, y, z'
loop_
 _atom_site_type_symbol
 _atom_site_label
 _atom_site_symmetry_multiplicity
 _atom_site_fract_x
 _atom_site_fract_y
 _atom_site_fract_z
 _atom_site_occupancy
  V  V0  1  0.12652700  0.37720368  0.24920129  1
  V  V1  1  -0.00000513  0.87499080  0.87487116  1
  V  V2  1  0.61804675  0.12655066  0.50586603  1
  V  V3  1  0.24818594  0.49537659  0.74947092  1
  V  V4  1  0.87356856  0.37589536  0.49992989  1
  V  V5  1  0.61883155  0.00390824  0.62931733  1
  V  V6  1  0.61645754  0.50253525  0.61499228  1
  V  V7  1  0.37055230  0.12318809  0.24441667  1
  V  V8  1  0.00378672  -0.00003132  0.00003773  1
  V  V9  1  0.88702121  0.62214725  0.24030777  1
  V  V10  1  0.37504510  0.00370813  0.37073256  1
  V  V11  1  0.75359317  0.63653491  0.37298657  1
  V  V12  1  0.74117169  0.12613931  0.87617022  1
  V  V13  1  0.62704325  0.74657315  0.88725198  1
  V  V14  1  0.37658393  0.49545471  0.38572887  1
  V  V15  1  0.86865121  0.25216754  0.12822949  1
  V  V16  1  0.87495684  0.24582319  0.62224499  1
  V  V17  1  -0.00349848  -0.00167463  0.49929059  1
  V  V18  1  0.37919755  0.62315622  0.74837058  1
  V  V19  1  0.87208876  0.87658412  0.00585339  1
  V  V20  1  0.90200294  0.75571059  0.13092636  1
  V  V21  1  0.63392220  0.76204390  0.38299204  1
  V  V22  1  -0.00089574  0.74754573  0.74912620  1
  V  V23  1  0.24878177  0.87179932  0.61800215  1
  V  V24  1  0.74835469  0.12357094  0.37507210  1
  V  V25  1  0.74710323  0.50002760  0.75012642  1
  V  V26  1  0.37634929  0.86718845  0.49929975  1
  V  V27  1  0.24508317  0.89207997  0.12795390  1
  V  V28  1  0.25329135  0.62415336  0.87611645  1
  V  V29  1  0.12872904  0.63876201  0.49834724  1
  V  V30  1  0.62676574  0.87603181  0.25704347  1
  V  V31  1  0.37535117  0.23365002  0.62053948  1
  V  V32  1  0.87527694  0.12504701  0.24882977  1
  V  V33  1  0.12800984  0.13098342  0.49891356  1
  V  V34  1  0.00096514  0.25199563  0.25134502  1
  V  V35  1  0.24991692  0.63359374  0.37592069  1
  V  V36  1  0.50927893  0.50969397  0.01521852  1
  V  V37  1  0.12051634  0.35723468  0.75407863  1
  V  V38  1  0.87638448  -0.00323103  0.37469892  1
  V  V39  1  0.37177788  0.87472845  -0.00232737  1
  V  V40  1  0.25696586  0.50663866  0.25139038  1
  V  V41  1  0.75176647  0.74883782  0.01385780  1
  V  V42  1  -0.00633840  0.12419066  0.62491022  1
  V  V43  1  0.12700309  0.87415834  0.74863857  1
  V  V44  1  0.37548248  0.25060185  0.12283322  1
  V  V45  1  0.12086950  0.62272326  0.00375988  1
  V  V46  1  0.25212287  0.36797313  0.61540296  1
  V  V47  1  0.62956244  0.39021538  0.24604890  1
  V  V48  1  0.00019667  0.62332902  0.62687789  1
  V  V49  1  0.62714633  -0.01397981  0.11951641  1
  V  V50  1  0.12878714  0.74808823  0.87163347  1
  V  V51  1  0.38189674  0.37720466  -0.00334479  1
  V  V52  1  0.50959532  0.12654857  0.12194082  1
  V  V53  1  0.25101446  0.37979884  0.12458914  1
  V  V54  1  0.49926242  0.87292576  0.87759962  1
  V  V55  1  0.00057128  0.49843834  0.49927224  1
  V  V56  1  0.24313384  0.25559924  -0.00571784  1
  V  V57  1  0.87447434  0.37607665  -0.00310518  1
  V  V58  1  0.62630976  0.87178491  0.75191190  1
  V  V59  1  0.25927339  0.00281615  0.74795361  1
  V  V60  1  0.49223553  0.23510730  0.74894331  1
  V  V61  1  0.92831807  0.18332759  0.79553002  1
  V  V62  1  0.00738906  0.85957103  0.37126349  1
  V  V63  1  0.49867644  -0.00230616  0.49925815  1
  V  V64  1  0.62039431  0.24981093  0.37103016  1
  V  V65  1  -0.00099713  0.37558720  0.37363267  1
  V  V66  1  0.44421762  0.82747398  0.31688568  1
  V  V67  1  0.50410471  0.00639645  -0.00570668  1
  V  V68  1  0.75211956  -0.00430578  0.24235834  1
  V  V69  1  0.74759102  0.24828754  0.50117069  1
  V  V70  1  0.25081681  0.12931255  0.37419326  1
  V  V71  1  0.86634336  0.50183991  0.36942501  1
  V  V72  1  0.73852132  0.24844973  0.00361105  1
  V  V73  1  0.86427686  0.74762180  0.62219246  1
  V  V74  1  0.38681555  0.49672366  0.87433885  1
  V  V75  1  0.12759748  0.12650253  -0.00702097  1
  V  V76  1  0.61611602  0.25395715  0.87617403  1
  V  V77  1  0.12467315  0.49593130  0.62436169  1
  V  V78  1  0.12366060  0.00052675  0.62459628  1
  V  V79  1  0.25522847  0.13065021  0.86816697  1
  V  V80  1  0.01248974  0.12411481  0.12871584  1
  V  V81  1  0.75028116  0.62403254  0.88164257  1
  V  V82  1  0.75583421  0.00213028  0.75048517  1
  V  V83  1  0.37427712  0.74901069  0.62299946  1
  V  V84  1  0.61104585  0.37808549  0.75125007  1
  Zn  Zn85  1  0.87464563  0.62176053  0.75133525  1
  Zn  Zn86  1  0.00243366  0.49709062  -0.00222022  1
  Zn  Zn87  1  0.37814172  0.75169237  0.14141914  1
  Zn  Zn88  1  0.11942307  0.51040011  0.13187942  1
  Zn  Zn89  1  0.50090943  0.25414206  0.24741886  1
  Zn  Zn90  1  0.74708611  0.37618741  0.62527056  1
  Zn  Zn91  1  0.74425591  0.86941263  0.62194825  1
  Zn  Zn92  1  0.49027309  0.63322334  0.16655648  1
  Zn  Zn93  1  0.50145485  0.74520659  0.75131095  1
  Zn  Zn94  1  0.50460792  0.38158109  0.37878732  1
  Zn  Zn95  1  0.38356453  0.36902964  0.50222985  1
  Zn  Zn96  1  0.13017249  0.25276705  0.37829380  1
  Zn  Zn97  1  0.86776383  0.86444777  0.49510168  1
  Zn  Zn98  1  0.87849974  0.49806493  0.87240454  1
  Zn  Zn99  1  0.00027042  0.36929334  0.87028297  1
  Zn  Zn100  1  0.11731800  0.87814234  0.23933666  1
  Zn  Zn101  1  0.25444840  0.74925998  0.00668016  1
  Zn  Zn102  1  0.49014499  0.62085258  0.59665129  1
  Zn  Zn103  1  0.87433134  -0.00005706  0.87300727  1
  Zn  Zn104  1  0.37933501  0.00534596  0.86809893  1
  Zn  Zn105  1  0.62832681  0.63090738  0.49573880  1
  Zn  Zn106  1  0.74595674  0.39594861  0.12598685  1
  Zn  Zn107  1  0.19092656  0.19050047  0.18728910  1
  Zn  Zn108  1  0.19032931  0.18507526  0.68252301  1
  Zn  Zn109  1  0.18584635  0.69854125  0.18251616  1
  Zn  Zn110  1  0.19034469  0.68557534  0.68446215  1
  Zn  Zn111  1  0.68539795  0.18420800  0.18890081  1
  Zn  Zn112  1  0.68726668  0.18745431  0.69079769  1
  Zn  Zn113  1  0.69105977  0.57990955  0.18255702  1
  Zn  Zn114  1  0.68274305  0.68158536  0.69335626  1
  Zn  Zn115  1  0.31311225  0.31165218  0.31144178  1
  Zn  Zn116  1  0.31328673  0.31313339  0.81028250  1
  Zn  Zn117  1  0.25819143  0.79894409  0.29333936  1
  Zn  Zn118  1  0.31504537  0.81215362  0.81109969  1
  Zn  Zn119  1  0.80706967  0.31473810  0.31269376  1
  Zn  Zn120  1  0.79899179  0.31947580  0.81544787  1
  Zn  Zn121  1  0.81748450  0.81397620  0.30507616  1
  Zn  Zn122  1  0.81294530  0.81053151  0.81336292  1
  Zn  Zn123  1  0.18800535  0.43888239  0.43659768  1
  Zn  Zn124  1  0.18774562  0.43740504  0.93225799  1
  Zn  Zn125  1  0.18907349  0.94300406  0.43591958  1
  Zn  Zn126  1  0.18866053  0.94185652  0.93740850  1
  Zn  Zn127  1  0.68839121  0.43521474  0.43549377  1
  Zn  Zn128  1  0.68630432  0.43557694  0.93890832  1
  Zn  Zn129  1  0.69145044  0.93837014  0.44179172  1
  Zn  Zn130  1  0.68956130  0.93475854  0.93880497  1
  Zn  Zn131  1  0.31758102  0.06460672  0.05390242  1
  Zn  Zn132  1  0.31013945  0.06034917  0.55838387  1
  Zn  Zn133  1  0.31873389  0.56789521  0.06566338  1
  Zn  Zn134  1  0.30910180  0.56074344  0.56091040  1
  Zn  Zn135  1  0.81324371  0.06373096  0.06098516  1
  Zn  Zn136  1  0.80724561  0.05748865  0.56301107  1
  Zn  Zn137  1  0.82143830  0.56572265  0.06033850  1
  Zn  Zn138  1  0.80769870  0.56486589  0.56033498  1
  Zn  Zn139  1  0.43989341  0.43843849  0.19183804  1
  Zn  Zn140  1  0.43666380  0.43475066  0.68290210  1
  Zn  Zn141  1  0.43254847  0.94462182  0.17674663  1
  Zn  Zn142  1  0.44091818  0.93620012  0.68713170  1
  Zn  Zn143  1  0.93828672  0.44174775  0.18098631  1
  Zn  Zn144  1  0.93619963  0.43365602  0.68806378  1
  Zn  Zn145  1  0.96495756  0.94602224  0.19705521  1
  Zn  Zn146  1  0.93548161  0.93351639  0.68685900  1
  Zn  Zn147  1  0.06832970  0.05580635  0.31106768  1
  Zn  Zn148  1  0.07126960  0.05910284  0.81653178  1
  Zn  Zn149  1  0.06391826  0.56393817  0.31509691  1
  Zn  Zn150  1  0.06210545  0.55661667  0.81555650  1
  Zn  Zn151  1  0.55888634  0.06257100  0.31051587  1
  Zn  Zn152  1  0.56726703  0.06438532  0.81324924  1
  Zn  Zn153  1  0.56501042  0.57115541  0.31045811  1
  Zn  Zn154  1  0.56334318  0.56479030  0.81715643  1
  Zn  Zn155  1  0.43973146  0.18733981  0.43964100  1
  Zn  Zn156  1  0.43587474  0.18924664  0.93607562  1
  Zn  Zn157  1  0.45916120  0.66138227  0.39372048  1
  Zn  Zn158  1  0.47526681  0.71579603  0.99977564  1
  Zn  Zn159  1  0.93908231  0.18630585  0.43679786  1
  Zn  Zn160  1  0.93351204  0.19071713  0.95625746  1
  Zn  Zn161  1  0.93760059  0.68245272  0.44098289  1
  Zn  Zn162  1  0.93614970  0.68760419  0.93634595  1
  Zn  Zn163  1  0.06099522  0.31661598  0.06538664  1
  Zn  Zn164  1  0.05900636  0.31067891  0.56657154  1
  Zn  Zn165  1  0.07059389  0.81263758  0.05558618  1
  Zn  Zn166  1  0.05549007  0.81354098  0.56196071  1
  Zn  Zn167  1  0.56163786  0.31898292  0.06450067  1
  Zn  Zn168  1  0.55706922  0.31448735  0.56494947  1
  Zn  Zn169  1  0.60980766  0.75162805  0.12560904  1
  Zn  Zn170  1  0.55768919  0.81120352  0.56309286  1
  O  O171  1  0.11597073  0.13250081  0.11615271  1
  O  O172  1  0.11661888  0.12042023  0.61741475  1
  O  O173  1  0.13397209  0.62805665  0.10738684  1
  O  O174  1  0.12317076  0.61671324  0.61549086  1
  O  O175  1  0.61263523  0.11490321  0.12871286  1
  O  O176  1  0.62916079  0.11714384  0.61744842  1
  O  O177  1  0.60570986  0.63996987  0.15164593  1
  O  O178  1  0.62160313  0.61319680  0.62320384  1
  O  O179  1  0.36948936  0.38444139  0.37928595  1
  O  O180  1  0.36588822  0.38555512  0.88457468  1
  O  O181  1  0.38002539  0.88423530  0.38088819  1
  O  O182  1  0.38368048  0.88172767  0.87417646  1
  O  O183  1  0.87785829  0.38214455  0.37833700  1
  O  O184  1  0.87377109  0.37259154  0.88322105  1
  O  O185  1  0.88429603  0.88193970  0.37710352  1
  O  O186  1  0.88477725  0.87207330  0.88529006  1
  O  O187  1  0.26560869  0.01129145  0.37976478  1
  O  O188  1  0.24979237  0.00888223  0.86331603  1
  O  O189  1  0.25402043  0.50383028  0.36872142  1
  O  O190  1  0.25553393  0.50501472  0.86387897  1
  O  O191  1  0.76152206  0.00564781  0.36802593  1
  O  O192  1  0.75030433  0.00868177  0.87043322  1
  O  O193  1  0.76361234  0.50355778  0.37676975  1
  O  O194  1  0.74825427  0.50693463  0.86975466  1
  O  O195  1  0.24746931  0.49683238  0.13410046  1
  O  O196  1  0.24676162  0.48928941  0.63262504  1
  O  O197  1  0.25260950  0.99082139  0.10969615  1
  O  O198  1  0.24314212  0.99440110  0.63029255  1
  O  O199  1  0.75446911  0.50798921  0.12652148  1
  O  O200  1  0.73846940  0.50131942  0.63381650  1
  O  O201  1  0.74070555  1.00775821  0.13122579  1
  O  O202  1  0.73734142  1.00127503  0.63661211  1
  O  O203  1  0.00699918  0.37133480  0.25391765  1
  O  O204  1  0.01615039  0.37581122  0.74828941  1
  O  O205  1  -0.00805145  0.85822780  0.26935157  1
  O  O206  1  0.00719244  0.86929490  0.75473113  1
  O  O207  1  0.51326599  0.37361587  0.25608122  1
  O  O208  1  0.50842433  0.36799088  0.74795024  1
  O  O209  1  0.50247127  0.88569351  0.25418889  1
  O  O210  1  0.50668395  0.87253957  0.76180576  1
  O  O211  1  0.49023697  0.12708048  0.23837010  1
  O  O212  1  0.50192394  0.13667567  0.75043473  1
  O  O213  1  0.48327024  0.63845560  0.28243792  1
  O  O214  1  0.48487170  0.62423483  0.75351560  1
  O  O215  1  0.99498543  0.13296977  0.24317070  1
  O  O216  1  0.99536130  0.12029620  0.74682386  1
  O  O217  1  0.98595988  0.62779246  0.25946309  1
  O  O218  1  1.00090497  0.62876922  0.74384892  1
  O  O219  1  0.36674663  0.25901190  0.00295350  1
  O  O220  1  0.37810956  0.24638565  0.51636984  1
  O  O221  1  0.37228537  0.76983299  -0.01482697  1
  O  O222  1  0.37901763  0.76578957  0.50686787  1
  O  O223  1  0.86057085  0.25758207  0.00942853  1
  O  O224  1  0.86880376  0.25303408  0.50506466  1
  O  O225  1  0.87477387  0.75433253  0.01524763  1
  O  O226  1  0.87954421  0.74651156  0.51861602  1
  O  O227  1  0.11519588  0.23507285  0.49781119  1
  O  O228  1  0.13694867  0.24605827  1.00433482  1
  O  O229  1  0.12430602  0.73663993  0.50942981  1
  O  O230  1  0.13123509  0.73899114  0.98832329  1
  O  O231  1  0.62838295  0.24229489  0.49662427  1
  O  O232  1  0.63117125  0.25732873  0.99350515  1
  O  O233  1  0.62626268  0.76082536  0.48607234  1
  O  O234  1  0.63776827  0.75848620  0.99145992  1
  O  O235  1  0.49437124  0.24155020  0.12118975  1
  O  O236  1  0.48760935  0.25000722  0.63794424  1
  O  O237  1  0.49441060  0.75113049  0.10748064  1
  O  O238  1  0.48651760  0.74689631  0.62897651  1
  O  O239  1  0.99118866  0.24312792  0.13105963  1
  O  O240  1  0.98378307  0.24276110  0.62364650  1
  O  O241  1  0.99995583  0.75077192  0.12483930  1
  O  O242  1  0.99366983  0.74270738  0.63240269  1
  O  O243  1  0.00001785  0.25722521  0.36735077  1
  O  O244  1  -0.01637323  0.23895874  0.85943635  1
  O  O245  1  0.00256290  0.76307588  0.39315408  1
  O  O246  1  0.00710363  0.75383314  0.86722693  1
  O  O247  1  0.51324462  0.24517423  0.37210021  1
  O  O248  1  0.50385451  0.24796312  0.86369810  1
  O  O249  1  0.50641090  0.77224284  0.37473487  1
  O  O250  1  0.51151520  0.75894554  0.88414085  1
  O  O251  1  0.23838949  0.12074811  0.49079788  1
  O  O252  1  0.24397948  0.13449738  0.99351418  1
  O  O253  1  0.23429980  0.61765125  0.49407582  1
  O  O254  1  0.24535722  0.62696598  0.98848585  1
  O  O255  1  0.73826709  0.12696664  0.49417814  1
  O  O256  1  0.75696067  0.13458932  0.98612873  1
  O  O257  1  0.74748074  0.62182122  0.48076670  1
  O  O258  1  0.75881483  0.63453170  0.98904787  1
  O  O259  1  0.25437370  0.37115490  0.00409121  1
  O  O260  1  0.24563485  0.37238766  0.51364765  1
  O  O261  1  0.25882767  0.87610780  -0.00156549  1
  O  O262  1  0.25812943  0.88443221  0.51149457  1
  O  O263  1  0.75472815  0.36538074  0.00480714  1
  O  O264  1  0.75589942  0.36606110  0.50175291  1
  O  O265  1  0.76699849  0.86691781  -0.00516469  1
  O  O266  1  0.75899330  0.88828425  0.51192968  1
  O  O267  1  0.13340127  0.49324273  0.25123489  1
  O  O268  1  0.13585612  0.49686036  0.74304291  1
  O  O269  1  0.07465772  0.98426109  0.22869619  1
  O  O270  1  0.13194695  0.99262929  0.74242795  1
  O  O271  1  0.62831927  0.49228561  0.25776907  1
  O  O272  1  0.62910618  0.49502275  0.74604468  1
  O  O273  1  0.63304197  0.99695607  0.24470181  1
  O  O274  1  0.63121643  0.99296784  0.74620841  1
  O  O275  1  0.38302443  0.01113503  0.25883876  1
  O  O276  1  0.36274454  -0.00249755  0.74655106  1
  O  O277  1  0.36007145  0.49194316  0.25998101  1
  O  O278  1  0.36753521  0.50209582  0.75317292  1
  O  O279  1  0.87167130  0.00391720  0.25473314  1
  O  O280  1  0.86056903  -0.00670370  0.75223639  1
  O  O281  1  0.88267314  0.51139250  0.25604942  1
  O  O282  1  0.85908073  0.49635536  0.74944111  1
  O  O283  1  0.12067478  0.37331981  0.36491918  1
  O  O284  1  0.12562761  0.37245534  0.85849952  1
  O  O285  1  0.10826736  0.88689237  0.37747527  1
  O  O286  1  0.12068139  0.86931093  0.86939337  1
  O  O287  1  0.62743681  0.36667117  0.36431123  1
  O  O288  1  0.62912917  0.36193755  0.86570824  1
  O  O289  1  0.62862709  0.87749432  0.36896727  1
  O  O290  1  0.62089990  0.86975601  0.86740497  1
  O  O291  1  0.38207174  0.12899250  0.12852794  1
  O  O292  1  0.36858787  0.13489712  0.62563999  1
  O  O293  1  0.38190227  0.63787937  0.12257307  1
  O  O294  1  0.37374744  0.63054790  0.62850001  1
  O  O295  1  0.88189464  0.13656408  0.12806882  1
  O  O296  1  0.87980340  0.13134582  0.62077917  1
  O  O297  1  0.88117767  0.63734356  0.13363397  1
  O  O298  1  0.87944663  0.63185179  0.62813777  1
  O  O299  1  0.25728450  0.25705601  0.11563187  1
  O  O300  1  0.26566952  0.25533789  0.63329023  1
  O  O301  1  0.26014734  0.76772944  0.12186519  1
  O  O302  1  0.26211016  0.75910264  0.62863176  1
  O  O303  1  0.75417997  0.24399662  0.11767119  1
  O  O304  1  0.75824777  0.24896621  0.61978541  1
  O  O305  1  0.74200435  0.75019599  0.11228294  1
  O  O306  1  0.76169768  0.74619543  0.63490704  1
  O  O307  1  0.24906446  0.23464427  0.37103817  1
  O  O308  1  0.25336305  0.24453696  0.88230627  1
  O  O309  1  0.26049723  0.73127178  0.38653386  1
  O  O310  1  0.24423095  0.73974507  0.86851993  1
  O  O311  1  0.74022713  0.24314772  0.38088757  1
  O  O312  1  0.73941458  0.24404042  0.88208966  1
  O  O313  1  0.74699933  0.74934032  0.37124380  1
  O  O314  1  0.74627180  0.74279509  0.88165870  1
  O  O315  1  0.00947103  0.12261540  0.00474644  1
  O  O316  1  0.00462542  0.11405184  0.50298900  1
  O  O317  1  0.01850544  0.62551867  -0.00943929  1
  O  O318  1  0.01171846  0.61774976  0.50577406  1
  O  O319  1  0.49434273  0.11448479  0.00528756  1
  O  O320  1  0.51142106  0.11629089  0.49968827  1
  O  O321  1  0.50222704  0.60576284  -0.01168848  1
  O  O322  1  0.51370536  0.63250307  0.48783773  1
  O  O323  1  0.49775673  0.36956445  0.49086936  1
  O  O324  1  0.48555691  0.38361484  1.00551813  1
  O  O325  1  0.49109953  0.88975239  0.50715525  1
  O  O326  1  0.49257855  0.88926092  0.98519522  1
  O  O327  1  0.99372067  0.37839916  0.49435544  1
  O  O328  1  0.98728170  0.36071893  0.99078493  1
  O  O329  1  0.99402241  0.88742569  0.49620157  1
  O  O330  1  0.99603374  0.88352910  0.99572367  1
  O  O331  1  0.47816831  0.49971932  0.36958606  1
  O  O332  1  0.48841097  0.49707578  0.87383917  1
  O  O333  1  0.48769579  1.00801537  0.38625107  1
  O  O334  1  0.50232964  0.99672547  0.87871055  1
  O  O335  1  0.99221548  0.49353773  0.38114532  1
  O  O336  1  0.99650628  0.49097398  0.87948979  1
  O  O337  1  0.98780652  0.99894512  0.38275937  1
  O  O338  1  0.99688172  0.99676988  0.88377992  1
  O  O339  1  -0.01605360  0.01636350  0.10556812  1
  O  O340  1  0.00162402  0.00332053  0.61848539  1
  O  O341  1  0.01028333  0.48755636  0.11082766  1
  O  O342  1  0.00313397  0.50465818  0.62031897  1
  O  O343  1  0.50858528  0.00584467  0.11378456  1
  O  O344  1  0.51181892  -0.00044336  0.62152743  1
  O  O345  1  0.49371064  0.50748677  0.11801018  1
  O  O346  1  0.51207244  0.50450532  0.62918115  1
  O  O347  1  0.24236180  0.38090284  0.24589974  1
  O  O348  1  0.24035528  0.37922616  0.74283808  1
  O  O349  1  0.25166233  0.89624347  0.23113674  1
  O  O350  1  0.24568244  0.88149510  0.73910192  1
  O  O351  1  0.73383552  0.37094047  0.24655022  1
  O  O352  1  0.73458761  0.38330252  0.74639156  1
  O  O353  1  0.74519991  0.89033517  0.25288781  1
  O  O354  1  0.74123458  0.88152545  0.75015510  1
  O  O355  1  0.26239850  0.12609123  0.25290211  1
  O  O356  1  0.24121127  0.11552004  0.75754669  1
  O  O357  1  0.24022500  0.61856953  0.26699001  1
  O  O358  1  0.25820894  0.61435641  0.75075191  1
  O  O359  1  0.75592006  0.11554674  0.25490716  1
  O  O360  1  0.74485027  0.11662249  0.76391323  1
  O  O361  1  0.77146312  0.62192243  0.26527113  1
  O  O362  1  0.74992157  0.61551501  0.76163043  1
  O  O363  1  0.37055159  0.12237799  0.36740370  1
  O  O364  1  0.35998764  0.12287035  0.87858537  1
  O  O365  1  0.35459014  0.60768067  0.38690387  1
  O  O366  1  0.36180311  0.61403743  0.86426851  1
  O  O367  1  0.87040959  0.11840673  0.36805158  1
  O  O368  1  0.87110997  0.12994408  0.86707468  1
  O  O369  1  0.87401988  0.61924688  0.37033352  1
  O  O370  1  0.86651753  0.62184140  0.87150504  1
  O  O371  1  0.13313116  0.37252680  0.13763950  1
  O  O372  1  0.13072260  0.37641411  0.63328468  1
  O  O373  1  0.14121931  0.87638718  0.11594545  1
  O  O374  1  0.13144122  0.87871589  0.62639405  1
  O  O375  1  0.62620654  0.37291599  0.14232010  1
  O  O376  1  0.62439047  0.38608513  0.63295086  1
  O  O377  1  0.62283157  0.88448618  0.13761311  1
  O  O378  1  0.62213320  0.87923858  0.63898531  1
  O  O379  1  0.11936662  0.25783403  0.25218379  1
  O  O380  1  0.12535091  0.25913115  0.74422073  1
  O  O381  1  0.15196745  0.77075338  0.25979580  1
  O  O382  1  0.11982501  0.75400629  0.75145113  1
  O  O383  1  0.62295667  0.25045871  0.25911573  1
  O  O384  1  0.61330286  0.25627856  0.75420352  1
  O  O385  1  0.62610583  0.77454642  0.25829272  1
  O  O386  1  0.62229938  0.75692879  0.76043893  1
  O  O387  1  0.37829118  0.24378804  0.24064957  1
  O  O388  1  0.38701827  0.25212800  0.74468277  1
  O  O389  1  0.37492001  0.77518627  0.26291794  1
  O  O390  1  0.37620143  0.73978419  0.74257956  1
  O  O391  1  0.87744205  0.24673269  0.24471503  1
  O  O392  1  0.86701499  0.24910913  0.74296254  1
  O  O393  1  0.87459204  0.74296542  0.23351200  1
  O  O394  1  0.88366334  0.74694178  0.74272929  1
  O  O395  1  0.36691521  0.49159736  0.48966306  1
  O  O396  1  0.37990940  0.49428937  0.99138804  1
  O  O397  1  0.38214461  0.99441688  0.49515008  1
  O  O398  1  0.38570778  0.99309189  0.99233805  1
  O  O399  1  0.88110608  0.49593540  0.49355495  1
  O  O400  1  0.87596029  0.48444922  0.99744531  1
  O  O401  1  0.88206350  1.00427319  0.49066149  1
  O  O402  1  0.87882542  0.99169105  0.99496883  1
  O  O403  1  0.11534728  0.01243247  -0.00439072  1
  O  O404  1  0.11587371  0.00854034  0.50602790  1
  O  O405  1  0.13019319  0.51511049  -0.00364909  1
  O  O406  1  0.11585125  0.49864812  0.50745990  1
  O  O407  1  0.61822561  -0.00668848  0.00770092  1
  O  O408  1  0.61753653  0.00614885  0.50854967  1
  O  O409  1  0.60601586  0.48694374  0.00045852  1
  O  O410  1  0.63067705  0.49737971  0.51413828  1
  O  O411  1  0.36892305  0.37174291  0.11863776  1
  O  O412  1  0.36584050  0.36633135  0.62381533  1
  O  O413  1  0.36745791  0.87777919  0.11175179  1
  O  O414  1  0.36863919  0.86953806  0.62043044  1
  O  O415  1  0.87005935  0.36262087  0.12110868  1
  O  O416  1  0.87188207  0.36553961  0.61756267  1
  O  O417  1  0.88844552  0.86316440  0.11983477  1
  O  O418  1  0.87475665  0.85651649  0.62685276  1
  O  O419  1  0.13284851  0.12120825  0.37978195  1
  O  O420  1  0.13434292  0.12682648  0.88614853  1
  O  O421  1  0.13347154  0.62006640  0.39061947  1
  O  O422  1  0.13681350  0.62746202  0.87685387  1
  O  O423  1  0.62939945  0.12928205  0.38110607  1
  O  O424  1  0.63038028  0.13936650  0.87510015  1
  O  O425  1  0.63926028  0.64397759  0.36856622  1
  O  O426  1  0.63465127  0.63674871  0.87177604  1
