# generated using pymatgen
data_V85Zn86O256
_symmetry_space_group_name_H-M   'P 1'
_cell_length_a   16.95080533
_cell_length_b   16.95416164
_cell_length_c   16.94836742
_cell_angle_alpha   89.99817944
_cell_angle_beta   90.06394312
_cell_angle_gamma   89.90269351
_symmetry_Int_Tables_number   1
_chemical_formula_structural   V85Zn86O256
_chemical_formula_sum   'V85 Zn86 O256'
_cell_volume   4870.72521312
_cell_formula_units_Z   1
loop_
 _symmetry_equiv_pos_site_id
 _symmetry_equiv_pos_as_xyz
  1  'x, y, z'
loop_
 _atom_site_type_symbol
 _atom_site_label
 _atom_site_symmetry_multiplicity
 _atom_site_fract_x
 _atom_site_fract_y
 _atom_site_fract_z
 _atom_site_occupancy
  V  V0  1  0.62144550  0.37110453  0.24714181  1
  V  V1  1  0.62563895  0.75151183  0.87953884  1
  V  V2  1  0.37663891  0.12964896  0.25490060  1
  V  V3  1  0.12518533  0.12439467  -0.00062731  1
  V  V4  1  0.24315236  0.62965346  0.87680629  1
  V  V5  1  0.75114256  0.25099746  0.00366514  1
  V  V6  1  0.37811188  0.75378208  0.62342152  1
  V  V7  1  0.25087711  0.25000479  -0.00169721  1
  V  V8  1  0.87980663  0.12733140  0.74893312  1
  V  V9  1  0.87848848  0.50205716  0.37428935  1
  V  V10  1  0.62964911  0.63162300  0.00866162  1
  V  V11  1  0.37355429  0.49982723  0.37260295  1
  V  V12  1  0.12781128  0.76963112  0.85976900  1
  V  V13  1  0.37516872  0.62580972  0.23921290  1
  V  V14  1  0.50390554  0.75065171  0.75351256  1
  V  V15  1  0.74878952  0.37135450  0.62323394  1
  V  V16  1  0.37423597  0.00369497  0.38110724  1
  V  V17  1  0.62435278  0.75124802  0.37722577  1
  V  V18  1  0.12563221  0.87237036  0.24746146  1
  V  V19  1  0.75036426  0.12273611  0.87684738  1
  V  V20  1  0.49224631  0.00219817  0.00115644  1
  V  V21  1  0.00114837  -0.00967532  0.50781498  1
  V  V22  1  0.23696912  0.87928459  0.62675418  1
  V  V23  1  0.49759621  0.24904632  0.75060831  1
  V  V24  1  0.50397900  0.12263083  0.13256631  1
  V  V25  1  0.00014163  0.37609594  0.88064291  1
  V  V26  1  0.11599195  0.50335137  0.11234775  1
  V  V27  1  0.24785321  0.62840336  0.37456794  1
  V  V28  1  0.75273749  0.63064614  0.37443639  1
  V  V29  1  0.50031056  0.88148381  0.37106502  1
  V  V30  1  0.00501357  0.50055596  0.51286221  1
  V  V31  1  0.37293209  0.87998336  0.50083153  1
  V  V32  1  0.86968779  0.85884408  0.49069264  1
  V  V33  1  0.13304535  -0.00679115  0.12365121  1
  V  V34  1  -0.00166644  0.12658196  0.12635849  1
  V  V35  1  0.37594710  0.37637638  0.00043005  1
  V  V36  1  0.24128864  0.24764912  0.49665697  1
  V  V37  1  0.23479651  -0.00296594  0.74830980  1
  V  V38  1  0.62494207  0.37536839  0.74980560  1
  V  V39  1  0.62426990  0.25023271  0.87812664  1
  V  V40  1  0.87496972  0.00166519  0.87406499  1
  V  V41  1  0.88206052  0.62848604  0.23872835  1
  V  V42  1  0.11484364  0.12249488  0.51431276  1
  V  V43  1  0.62661677  0.24212048  0.36924692  1
  V  V44  1  0.12546106  0.36865933  0.25166510  1
  V  V45  1  0.49756212  0.36628185  0.36974513  1
  V  V46  1  0.23609484  0.12504823  0.37371155  1
  V  V47  1  0.49751833  0.49697058  0.49830112  1
  V  V48  1  0.62051561  0.12418249  0.50449919  1
  V  V49  1  0.62803168  0.61779151  0.49407974  1
  V  V50  1  0.49897162  0.74733465  0.24511166  1
  V  V51  1  0.86879583  0.50422969  0.87209271  1
  V  V52  1  0.49865374  0.50958491  0.00793601  1
  V  V53  1  0.62598222  0.11709885  0.00517965  1
  V  V54  1  0.87467549  0.86739687  0.01292742  1
  V  V55  1  0.12059801  0.62372696  0.51478982  1
  V  V56  1  0.37398940  0.50622332  0.87361728  1
  V  V57  1  0.49984606  0.62222430  0.62548400  1
  V  V58  1  0.11120835  0.75375358  0.37469971  1
  V  V59  1  0.88771145  0.00068354  0.36701212  1
  V  V60  1  0.87751798  0.24699436  0.62387278  1
  V  V61  1  0.00187597  0.25424492  0.74584800  1
  V  V62  1  0.00129247  -0.00452435  -0.00440034  1
  V  V63  1  0.24527061  0.50065032  0.24574495  1
  V  V64  1  0.25438145  0.12025634  0.87429961  1
  V  V65  1  0.49904731  0.37752307  0.87685382  1
  V  V66  1  0.12547145  0.38382320  0.74839834  1
  V  V67  1  0.74491902  0.00735353  0.24735061  1
  V  V68  1  0.74448722  0.86430877  0.12636496  1
  V  V69  1  0.87530890  0.37261440  0.49910189  1
  V  V70  1  0.49308879  0.88080551  0.87840231  1
  V  V71  1  0.37467878  0.11713396  0.75175236  1
  V  V72  1  0.75046984  0.24101415  0.49387233  1
  V  V73  1  0.23911589  0.75672152  0.00590716  1
  V  V74  1  0.37817089  0.24982783  0.12915156  1
  V  V75  1  0.37444190  0.24665930  0.62524389  1
  V  V76  1  0.37283332  0.37216830  0.49933676  1
  V  V77  1  0.37056411  0.76463452  0.12541510  1
  V  V78  1  0.74884450  0.49894009  0.24879169  1
  V  V79  1  0.87790226  0.37945552  0.00331197  1
  V  V80  1  0.00484000  0.36880920  0.37530671  1
  V  V81  1  0.24796361  0.75204498  0.50032272  1
  V  V82  1  -0.04989973  0.82632305  0.81425667  1
  V  V83  1  0.24563607  0.38115381  0.62495705  1
  V  V84  1  0.55645463  -0.05303694  0.55325559  1
  Zn  Zn85  1  0.76156496  0.87009405  0.62228040  1
  Zn  Zn86  1  0.62047422  0.89075575  0.75045384  1
  Zn  Zn87  1  0.37484155  0.62842021  0.75145840  1
  Zn  Zn88  1  0.62461884  0.49853775  0.62523210  1
  Zn  Zn89  1  0.75066484  0.37550528  0.12655272  1
  Zn  Zn90  1  0.61874615  0.50480990  0.12899465  1
  Zn  Zn91  1  0.24884126  0.37525834  0.12407047  1
  Zn  Zn92  1  0.73542819  0.00863969  0.73035833  1
  Zn  Zn93  1  0.62433265  0.87916544  0.24552031  1
  Zn  Zn94  1  0.87378770  0.12994941  0.25526560  1
  Zn  Zn95  1  0.74828378  0.63005014  0.86929491  1
  Zn  Zn96  1  -0.00717731  0.75692161  0.24035676  1
  Zn  Zn97  1  0.95636915  0.67400536  0.70278087  1
  Zn  Zn98  1  0.87860909  0.25319770  0.12882210  1
  Zn  Zn99  1  0.12631537  0.25043703  0.87237487  1
  Zn  Zn100  1  0.36991567  0.88172219  0.00131831  1
  Zn  Zn101  1  0.25231984  -0.00495126  0.24654465  1
  Zn  Zn102  1  0.24536224  0.50844569  0.74537911  1
  Zn  Zn103  1  0.00051422  0.24815658  0.25306312  1
  Zn  Zn104  1  0.00654070  0.62999140  0.09240717  1
  Zn  Zn105  1  0.75560051  0.50338788  0.74501283  1
  Zn  Zn106  1  0.50618571  0.11715298  0.62801952  1
  Zn  Zn107  1  0.18779867  0.18501686  0.18551635  1
  Zn  Zn108  1  0.18649898  0.18974164  0.68692011  1
  Zn  Zn109  1  0.18135061  0.68781048  0.18447786  1
  Zn  Zn110  1  0.18778412  0.69027865  0.68960456  1
  Zn  Zn111  1  0.68892011  0.18789641  0.18643252  1
  Zn  Zn112  1  0.68864223  0.18635226  0.68778994  1
  Zn  Zn113  1  0.68845349  0.68868097  0.18923028  1
  Zn  Zn114  1  0.76648893  0.68011095  0.67464523  1
  Zn  Zn115  1  0.30816348  0.31021417  0.31314837  1
  Zn  Zn116  1  0.31201293  0.31273766  0.81262381  1
  Zn  Zn117  1  0.30857953  0.81475793  0.31201506  1
  Zn  Zn118  1  0.31445423  0.81535107  0.81196099  1
  Zn  Zn119  1  0.81286186  0.31151604  0.31144091  1
  Zn  Zn120  1  0.81223281  0.31482714  0.81404836  1
  Zn  Zn121  1  0.81565019  0.81423492  0.31328211  1
  Zn  Zn122  1  0.78911403  0.81878750  0.80931821  1
  Zn  Zn123  1  0.18489583  0.43914890  0.43634190  1
  Zn  Zn124  1  0.18995238  0.43591704  0.93323978  1
  Zn  Zn125  1  0.18352374  0.93806237  0.43633125  1
  Zn  Zn126  1  0.19198395  0.93830578  0.93606961  1
  Zn  Zn127  1  0.68750555  0.43379126  0.43345208  1
  Zn  Zn128  1  0.68625302  0.43947024  0.94161759  1
  Zn  Zn129  1  0.69761885  0.93825347  0.42571867  1
  Zn  Zn130  1  0.68754273  0.93666654  0.94021741  1
  Zn  Zn131  1  0.31408121  0.06555764  0.06458515  1
  Zn  Zn132  1  0.30824439  0.06320524  0.56437757  1
  Zn  Zn133  1  0.30647286  0.56875527  0.06003230  1
  Zn  Zn134  1  0.31262016  0.56428768  0.56083823  1
  Zn  Zn135  1  0.81318100  0.05705253  0.06631915  1
  Zn  Zn136  1  0.81725322  0.06180900  0.55448699  1
  Zn  Zn137  1  0.80873733  0.56037700  0.06194152  1
  Zn  Zn138  1  0.81439038  0.55561070  0.56279057  1
  Zn  Zn139  1  0.43598609  0.43637796  0.18790919  1
  Zn  Zn140  1  0.43446393  0.43675008  0.68860137  1
  Zn  Zn141  1  0.43874536  0.94360132  0.19066840  1
  Zn  Zn142  1  0.43019675  0.93396234  0.69408652  1
  Zn  Zn143  1  0.94032933  0.43974265  0.18638076  1
  Zn  Zn144  1  0.98275015  0.49552537  0.72518801  1
  Zn  Zn145  1  0.94424141  0.93749294  0.18640245  1
  Zn  Zn146  1  0.90829233  0.94743803  0.66815425  1
  Zn  Zn147  1  0.06248919  0.05909471  0.30909552  1
  Zn  Zn148  1  0.06034782  0.06482147  0.81300596  1
  Zn  Zn149  1  0.06261068  0.55961617  0.31653176  1
  Zn  Zn150  1  0.04006684  0.58779457  0.87662919  1
  Zn  Zn151  1  0.56357294  0.06351766  0.31335953  1
  Zn  Zn152  1  0.56219981  0.06180041  0.81586782  1
  Zn  Zn153  1  0.55906766  0.55994151  0.31093878  1
  Zn  Zn154  1  0.56771650  0.56485062  0.81383174  1
  Zn  Zn155  1  0.43897380  0.18636369  0.43984720  1
  Zn  Zn156  1  0.43696230  0.18589659  0.93823475  1
  Zn  Zn157  1  0.43693136  0.68960140  0.43504815  1
  Zn  Zn158  1  0.43600599  0.68943503  0.94276390  1
  Zn  Zn159  1  0.93815183  0.18239815  0.43404731  1
  Zn  Zn160  1  0.93853334  0.19104630  0.93876488  1
  Zn  Zn161  1  0.93005712  0.68894117  0.54103078  1
  Zn  Zn162  1  0.93167174  0.69124797  0.94088440  1
  Zn  Zn163  1  0.06508553  0.31393251  0.06573716  1
  Zn  Zn164  1  0.06314779  0.31229322  0.56294170  1
  Zn  Zn165  1  0.05990232  0.81130821  0.06414229  1
  Zn  Zn166  1  0.05332900  0.81447790  0.57008720  1
  Zn  Zn167  1  0.56038463  0.31035917  0.06401703  1
  Zn  Zn168  1  0.56121285  0.30771148  0.56121295  1
  Zn  Zn169  1  0.56019790  0.81410722  0.06519670  1
  Zn  Zn170  1  0.61356724  0.76451449  0.59710450  1
  O  O171  1  0.11721470  0.11860567  0.11831500  1
  O  O172  1  0.12667795  0.12357169  0.61251171  1
  O  O173  1  0.12745261  0.60643194  0.12663266  1
  O  O174  1  0.13939039  0.62083430  0.61249394  1
  O  O175  1  0.61395955  0.13338668  0.11784405  1
  O  O176  1  0.62416083  0.12975398  0.61245100  1
  O  O177  1  0.62571307  0.62578817  0.11374718  1
  O  O178  1  0.61012871  0.61992514  0.60882570  1
  O  O179  1  0.38046712  0.37683309  0.37792965  1
  O  O180  1  0.37806477  0.38351769  0.88162735  1
  O  O181  1  0.38094964  0.88317214  0.37984070  1
  O  O182  1  0.38908531  0.87198523  0.87937288  1
  O  O183  1  0.87856890  0.38476227  0.38028236  1
  O  O184  1  0.88035569  0.37577781  0.88450321  1
  O  O185  1  0.87627629  0.88871680  0.37816058  1
  O  O186  1  0.87754004  0.88148651  0.87370950  1
  O  O187  1  0.25656088  0.00967468  0.37464137  1
  O  O188  1  0.24936454  0.00819106  0.86198925  1
  O  O189  1  0.25323946  0.50630762  0.36471945  1
  O  O190  1  0.25686422  0.51159103  0.87557674  1
  O  O191  1  0.76492410  -0.00375963  0.35464355  1
  O  O192  1  0.75995690  0.00742898  0.87840957  1
  O  O193  1  0.75413635  0.50410782  0.36528311  1
  O  O194  1  0.76076043  0.49209343  0.87238015  1
  O  O195  1  0.24797621  0.49940493  0.13560348  1
  O  O196  1  0.26151759  0.48496294  0.62660868  1
  O  O197  1  0.23698932  1.00835449  0.12535477  1
  O  O198  1  0.25293196  0.99422508  0.63834112  1
  O  O199  1  0.74431549  0.49754423  0.13816781  1
  O  O200  1  0.74601374  0.48289062  0.62344599  1
  O  O201  1  0.75871524  0.98937510  0.14152635  1
  O  O202  1  0.79346962  0.98547272  0.63288913  1
  O  O203  1  0.00860257  0.37569860  0.25782977  1
  O  O204  1  0.00901096  0.37276099  0.75798994  1
  O  O205  1  0.01653909  0.87259227  0.24752550  1
  O  O206  1  -0.01209785  0.88448428  0.74500684  1
  O  O207  1  0.50637033  0.37841679  0.25908757  1
  O  O208  1  0.50385215  0.36829779  0.75607122  1
  O  O209  1  0.50247278  0.86973251  0.25585513  1
  O  O210  1  0.50033672  0.87026175  0.75967049  1
  O  O211  1  0.49154218  0.12293873  0.24390888  1
  O  O212  1  0.48998431  0.13178644  0.74987584  1
  O  O213  1  0.48650621  0.63456196  0.25960546  1
  O  O214  1  0.49965682  0.63035147  0.74126966  1
  O  O215  1  1.00133651  0.12794022  0.24030027  1
  O  O216  1  0.98806809  0.13826277  0.75681833  1
  O  O217  1  0.98291306  0.61746840  0.25520713  1
  O  O218  1  1.00223988  0.59884897  0.76853614  1
  O  O219  1  0.36694888  0.25234337  0.00659053  1
  O  O220  1  0.36738345  0.25301183  0.50751308  1
  O  O221  1  0.36928263  0.75525042  0.01222884  1
  O  O222  1  0.36976068  0.75782041  0.50404459  1
  O  O223  1  0.86592415  0.25875369  0.00135692  1
  O  O224  1  0.86881095  0.24986226  0.50393795  1
  O  O225  1  0.86975325  0.77044308  -0.00933079  1
  O  O226  1  0.87778539  0.76121270  0.47007759  1
  O  O227  1  0.12937883  0.23616244  0.50292264  1
  O  O228  1  0.13913454  0.24614815  1.00164295  1
  O  O229  1  0.12830940  0.74169856  0.48883773  1
  O  O230  1  0.13733125  0.75922180  0.98995560  1
  O  O231  1  0.63179453  0.24261537  0.49268864  1
  O  O232  1  0.63082045  0.24331183  0.99661623  1
  O  O233  1  0.61314854  0.73279865  0.48175090  1
  O  O234  1  0.61430754  0.73766462  0.99670142  1
  O  O235  1  0.48521352  0.23948750  0.11873601  1
  O  O236  1  0.48969476  0.24890409  0.63230140  1
  O  O237  1  0.48954577  0.75484045  0.13880507  1
  O  O238  1  0.50292105  0.74104259  0.63349436  1
  O  O239  1  1.00125762  0.24031606  0.12664311  1
  O  O240  1  0.99084414  0.25789748  0.63658119  1
  O  O241  1  1.01291631  0.73634672  0.13062083  1
  O  O242  1  1.00510308  0.72882425  0.61695463  1
  O  O243  1  -0.00544722  0.26486518  0.37614046  1
  O  O244  1  -0.00069178  0.25968995  0.86385184  1
  O  O245  1  0.01507694  0.74317210  0.36647157  1
  O  O246  1  0.01224915  0.76217313  0.87201336  1
  O  O247  1  0.50715258  0.26052590  0.37963247  1
  O  O248  1  0.50345155  0.25628444  0.87117432  1
  O  O249  1  0.50094927  0.76211772  0.36582783  1
  O  O250  1  0.50312513  0.75649960  0.87152603  1
  O  O251  1  0.23844749  0.12945305  0.49556904  1
  O  O252  1  0.24816489  0.12987452  0.99180552  1
  O  O253  1  0.24401969  0.62874484  0.49170379  1
  O  O254  1  0.25658487  0.64496446  0.99006838  1
  O  O255  1  0.74239144  0.13460357  0.50239567  1
  O  O256  1  0.74336944  0.12909566  0.99978922  1
  O  O257  1  0.73656875  0.61251851  0.48799788  1
  O  O258  1  0.73211891  0.61899960  0.99529353  1
  O  O259  1  0.25805663  0.36599678  0.00026508  1
  O  O260  1  0.25108897  0.36739637  0.50443947  1
  O  O261  1  0.25489903  0.86228663  -0.00396453  1
  O  O262  1  0.25429674  0.87280616  0.50553598  1
  O  O263  1  0.75356717  0.36583421  0.00330307  1
  O  O264  1  0.75208608  0.36376822  0.50419567  1
  O  O265  1  0.76198283  0.88689132  0.01652353  1
  O  O266  1  0.76674747  0.87701005  0.49370241  1
  O  O267  1  0.13138080  0.49222376  0.24558499  1
  O  O268  1  0.12784520  0.48434450  0.75046204  1
  O  O269  1  0.12710674  0.99254983  0.24028390  1
  O  O270  1  0.13633371  1.00629955  0.74955273  1
  O  O271  1  0.63013813  0.49199124  0.25019104  1
  O  O272  1  0.61958060  0.48343875  0.74785324  1
  O  O273  1  0.64044346  0.99853376  0.25601462  1
  O  O274  1  0.62254458  1.00627575  0.74278861  1
  O  O275  1  0.37195805  0.01131557  0.26094945  1
  O  O276  1  0.36787159  0.01454681  0.74734345  1
  O  O277  1  0.36783634  0.50762607  0.25317927  1
  O  O278  1  0.37408565  0.50059230  0.76456778  1
  O  O279  1  0.87616575  0.00175595  0.25629945  1
  O  O280  1  0.88327333  0.01272899  0.76558516  1
  O  O281  1  0.86727050  0.50287766  0.25592286  1
  O  O282  1  0.87201048  0.48576736  0.76920677  1
  O  O283  1  0.11640551  0.37967215  0.36605525  1
  O  O284  1  0.11811905  0.37158315  0.86951307  1
  O  O285  1  0.12768020  0.85908047  0.37182413  1
  O  O286  1  0.12895692  0.86892844  0.87016938  1
  O  O287  1  0.61673657  0.36612216  0.36634894  1
  O  O288  1  0.61966514  0.36978695  0.86964272  1
  O  O289  1  0.61795927  0.86706046  0.37325256  1
  O  O290  1  0.61285295  0.86838881  0.88154839  1
  O  O291  1  0.38033891  0.13071668  0.13586659  1
  O  O292  1  0.37476246  0.13470014  0.63076097  1
  O  O293  1  0.36870089  0.63434749  0.13681537  1
  O  O294  1  0.38660165  0.63221101  0.62237351  1
  O  O295  1  0.89056143  0.12416836  0.12134408  1
  O  O296  1  0.87085091  0.13936931  0.63323109  1
  O  O297  1  0.87744504  0.61618385  0.13646677  1
  O  O298  1  0.86461777  0.63639144  0.62396781  1
  O  O299  1  0.26138200  0.24819334  0.11704509  1
  O  O300  1  0.25590811  0.25528757  0.61482437  1
  O  O301  1  0.25303447  0.74760786  0.11291735  1
  O  O302  1  0.25662715  0.75838100  0.61922244  1
  O  O303  1  0.75228804  0.25164723  0.11348053  1
  O  O304  1  0.75405357  0.25623433  0.61699077  1
  O  O305  1  0.75158794  0.76482511  0.12983246  1
  O  O306  1  0.72252737  0.76281055  0.61963035  1
  O  O307  1  0.25459916  0.24147359  0.38978791  1
  O  O308  1  0.24989835  0.24314060  0.88289883  1
  O  O309  1  0.24863344  0.74188265  0.38268073  1
  O  O310  1  0.24357370  0.75116718  0.87946723  1
  O  O311  1  0.73958992  0.25522210  0.38371812  1
  O  O312  1  0.74556229  0.24433934  0.88610634  1
  O  O313  1  0.73933510  0.73767403  0.36634889  1
  O  O314  1  0.73032062  0.75116730  0.87753370  1
  O  O315  1  0.00760797  0.12028588  0.00401407  1
  O  O316  1  0.01141141  0.11881689  0.49688561  1
  O  O317  1  0.00365060  0.61939963  -0.01983277  1
  O  O318  1  0.00689107  0.60792010  0.49583919  1
  O  O319  1  0.50589235  0.12008872  0.00645602  1
  O  O320  1  0.51344205  0.12785739  0.50400280  1
  O  O321  1  0.50868758  0.61715108  -0.00197050  1
  O  O322  1  0.50281110  0.61568197  0.50044140  1
  O  O323  1  0.49265953  0.37739219  0.49323287  1
  O  O324  1  0.49450574  0.38136972  0.99461892  1
  O  O325  1  0.49679734  0.88528584  0.49281081  1
  O  O326  1  0.49748745  0.88629916  0.99853602  1
  O  O327  1  0.99751531  0.38174198  0.49391854  1
  O  O328  1  0.99008668  0.36376626  0.99306043  1
  O  O329  1  0.99733301  0.88639984  0.49524686  1
  O  O330  1  0.98650979  0.88380717  1.00526467  1
  O  O331  1  0.49197042  0.48858980  0.37816873  1
  O  O332  1  0.49262823  0.49652969  0.88361966  1
  O  O333  1  0.49218171  0.98920407  0.36863905  1
  O  O334  1  0.50221921  0.99406882  0.88833550  1
  O  O335  1  0.99239959  0.49010686  0.38181976  1
  O  O336  1  0.98444947  0.48181575  0.87987514  1
  O  O337  1  0.99213027  1.00042489  0.37851596  1
  O  O338  1  0.99441435  1.00639315  0.88853939  1
  O  O339  1  0.00964956  0.00674421  0.11351126  1
  O  O340  1  -0.00778348  0.00158628  0.60567786  1
  O  O341  1  0.01307445  0.50332788  0.12288168  1
  O  O342  1  -0.00519597  0.49001932  0.61069402  1
  O  O343  1  0.49793849  0.01406740  0.11977479  1
  O  O344  1  0.49362641  -0.00178120  0.61631445  1
  O  O345  1  0.49799113  0.49642009  0.11216069  1
  O  O346  1  0.49744281  0.50511523  0.61832868  1
  O  O347  1  0.24418005  0.38392440  0.25020512  1
  O  O348  1  0.24332408  0.37305134  0.74161928  1
  O  O349  1  0.23490318  0.87941170  0.25595232  1
  O  O350  1  0.25631698  0.89063923  0.74343645  1
  O  O351  1  0.74007260  0.38253760  0.25100435  1
  O  O352  1  0.74034291  0.37171036  0.74063171  1
  O  O353  1  0.75039054  0.88035227  0.23924796  1
  O  O354  1  0.73696539  0.88693902  0.74106979  1
  O  O355  1  0.25619071  0.12465525  0.25942559  1
  O  O356  1  0.25338375  0.11871377  0.75467228  1
  O  O357  1  0.25433332  0.61941632  0.25606896  1
  O  O358  1  0.25609624  0.62541613  0.75827037  1
  O  O359  1  0.75473563  0.11148094  0.24141149  1
  O  O360  1  0.76228387  0.12667324  0.75697062  1
  O  O361  1  0.75748154  0.61758038  0.25508582  1
  O  O362  1  0.73483199  0.61443528  0.75647632  1
  O  O363  1  0.36947242  0.12110294  0.37192955  1
  O  O364  1  0.36292629  0.13122091  0.86680974  1
  O  O365  1  0.36320238  0.62131168  0.36856920  1
  O  O366  1  0.36812283  0.62058215  0.87470045  1
  O  O367  1  0.87661504  0.10771327  0.37302821  1
  O  O368  1  0.87009254  0.12100735  0.87174528  1
  O  O369  1  0.86417036  0.60942483  0.36795504  1
  O  O370  1  0.86651234  0.60760914  0.88289143  1
  O  O371  1  0.12841076  0.38612109  0.13314336  1
  O  O372  1  0.13620145  0.36820585  0.63249109  1
  O  O373  1  0.12518961  0.88383804  0.13094765  1
  O  O374  1  0.13817179  0.87359829  0.61867946  1
  O  O375  1  0.62245282  0.37394831  0.13809924  1
  O  O376  1  0.62982842  0.37100747  0.63203709  1
  O  O377  1  0.63910204  0.87318146  0.12583710  1
  O  O378  1  0.60882822  0.88402226  0.61181410  1
  O  O379  1  0.12754514  0.26493775  0.24440142  1
  O  O380  1  0.11611250  0.25579431  0.75054235  1
  O  O381  1  0.13027047  0.75412015  0.26231242  1
  O  O382  1  0.12979592  0.75773837  0.76069506  1
  O  O383  1  0.63051895  0.25689265  0.25889664  1
  O  O384  1  0.61976384  0.25756954  0.75609020  1
  O  O385  1  0.61431696  0.74818827  0.25995123  1
  O  O386  1  0.60889943  0.75776893  0.76191845  1
  O  O387  1  0.36994565  0.23917847  0.24415451  1
  O  O388  1  0.37572168  0.24182527  0.74284577  1
  O  O389  1  0.37722738  0.74490606  0.24555296  1
  O  O390  1  0.38669227  0.75153046  0.74229934  1
  O  O391  1  0.87843567  0.24689492  0.24693092  1
  O  O392  1  0.88003913  0.24808338  0.74288306  1
  O  O393  1  0.87568300  0.73146146  0.25551243  1
  O  O394  1  0.88612361  0.76040485  0.76685856  1
  O  O395  1  0.37655952  0.49157228  0.49149772  1
  O  O396  1  0.37918890  0.49952809  0.99245120  1
  O  O397  1  0.36989101  0.99908879  0.48822335  1
  O  O398  1  0.38669466  1.00183474  1.00430728  1
  O  O399  1  0.88423155  0.49300347  0.49262502  1
  O  O400  1  0.86484437  0.48471195  0.99197674  1
  O  O401  1  0.88812224  0.99683057  0.48555758  1
  O  O402  1  0.88170000  0.99294122  0.99095741  1
  O  O403  1  0.11982252  0.00242186  0.00396663  1
  O  O404  1  0.11151548  0.00950867  0.49416181  1
  O  O405  1  0.13354751  0.49290915  0.01462854  1
  O  O406  1  0.11289034  0.50686893  0.49607392  1
  O  O407  1  0.61788736  0.01348777  -0.00113460  1
  O  O408  1  0.62526536  0.00364014  0.49638468  1
  O  O409  1  0.61534182  0.51027310  0.00270793  1
  O  O410  1  0.61579148  0.50237463  0.49691144  1
  O  O411  1  0.37295666  0.36604486  0.11997758  1
  O  O412  1  0.36862590  0.36320649  0.62148627  1
  O  O413  1  0.37335609  0.86734985  0.13009426  1
  O  O414  1  0.36923425  0.87064208  0.61748977  1
  O  O415  1  0.87371982  0.37498904  0.11768130  1
  O  O416  1  0.86297393  0.36079287  0.61479506  1
  O  O417  1  0.87110125  0.87512438  0.11721317  1
  O  O418  1  0.88324721  0.85837631  0.59582898  1
  O  O419  1  0.13411174  0.12209991  0.37977710  1
  O  O420  1  0.13590123  0.12871079  0.88114076  1
  O  O421  1  0.13519989  0.63128982  0.37760999  1
  O  O422  1  0.14111481  0.64345325  0.87356642  1
  O  O423  1  0.61953369  0.13678811  0.38271034  1
  O  O424  1  0.62946270  0.13286163  0.88516846  1
  O  O425  1  0.63042106  0.62669127  0.37669867  1
  O  O426  1  0.62081447  0.63476949  0.88753778  1
