# generated using pymatgen
data_V85Zn86O256
_symmetry_space_group_name_H-M   'P 1'
_cell_length_a   16.95258708
_cell_length_b   16.96855987
_cell_length_c   16.95915852
_cell_angle_alpha   89.98049544
_cell_angle_beta   90.00038681
_cell_angle_gamma   89.95627943
_symmetry_Int_Tables_number   1
_chemical_formula_structural   V85Zn86O256
_chemical_formula_sum   'V85 Zn86 O256'
_cell_volume   4878.48660651
_cell_formula_units_Z   1
loop_
 _symmetry_equiv_pos_site_id
 _symmetry_equiv_pos_as_xyz
  1  'x, y, z'
loop_
 _atom_site_type_symbol
 _atom_site_label
 _atom_site_symmetry_multiplicity
 _atom_site_fract_x
 _atom_site_fract_y
 _atom_site_fract_z
 _atom_site_occupancy
  V  V0  1  0.25090620  0.62545741  0.37437190  1
  V  V1  1  0.61942584  0.37375232  0.75334155  1
  V  V2  1  0.00010627  0.62174937  0.62706539  1
  V  V3  1  0.87270574  0.87173437  0.50075088  1
  V  V4  1  0.25872294  0.24896757  0.50456065  1
  V  V5  1  0.48618794  0.48483860  -0.00011470  1
  V  V6  1  0.13441950  0.49733954  0.62907535  1
  V  V7  1  0.00932697  0.50578784  -0.00433298  1
  V  V8  1  0.24632894  0.62503772  0.85470671  1
  V  V9  1  0.24899343  0.87627661  0.62847894  1
  V  V10  1  0.25109364  0.73683165  0.00030560  1
  V  V11  1  0.74852179  0.11771070  0.86840312  1
  V  V12  1  0.85893785  0.87988094  0.00197080  1
  V  V13  1  0.25653303  -0.01020702  0.25166925  1
  V  V14  1  0.75291021  0.72955170  -0.00629840  1
  V  V15  1  0.48987251  0.25090437  0.74889083  1
  V  V16  1  0.25218143  0.49751897  0.24830647  1
  V  V17  1  0.86833333  0.01458634  0.38290750  1
  V  V18  1  0.86877381  0.11714794  0.74408487  1
  V  V19  1  0.00136435  0.12620806  0.62434339  1
  V  V20  1  0.49910679  0.25024905  0.24464245  1
  V  V21  1  0.86846447  0.50005350  0.87642902  1
  V  V22  1  0.49930655  0.74382510  0.74968176  1
  V  V23  1  -0.00211409  0.37306962  0.87287672  1
  V  V24  1  0.49191638  0.12774713  0.62343113  1
  V  V25  1  0.12921919  0.37229654  0.75066539  1
  V  V26  1  0.62188540  0.49880235  0.62333458  1
  V  V27  1  0.61022694  0.62052961  -0.00888342  1
  V  V28  1  0.00212108  -0.00283539  0.50238352  1
  V  V29  1  0.63868000  -0.00377312  0.12220344  1
  V  V30  1  0.75023921  0.62508411  0.37276871  1
  V  V31  1  0.13649554  0.25473865  0.37020984  1
  V  V32  1  0.49549992  0.37915866  0.38071945  1
  V  V33  1  0.74898781  0.74710385  0.50072740  1
  V  V34  1  0.62539211  0.37646275  0.24681324  1
  V  V35  1  0.87567514  0.25047052  0.62263708  1
  V  V36  1  0.87810567  0.49865495  0.37466480  1
  V  V37  1  0.24699555  0.12013469  0.89224535  1
  V  V38  1  0.37431553  0.74605048  0.62962119  1
  V  V39  1  0.87408035  0.74864974  0.62721769  1
  V  V40  1  0.87304876  0.62729824  0.24566704  1
  V  V41  1  0.75277711  0.24641274  0.49475637  1
  V  V42  1  0.24783609  0.75009827  0.50129819  1
  V  V43  1  0.37456305  0.87801770  0.49558510  1
  V  V44  1  0.49557649  0.12592634  0.12179344  1
  V  V45  1  0.00676577  0.37315455  0.36660909  1
  V  V46  1  0.12362005  0.87962743  0.75603211  1
  V  V47  1  0.62344705  0.12587948  0.49795079  1
  V  V48  1  0.89545634  0.24962172  0.12696051  1
  V  V49  1  -0.00310209  0.87314861  0.37868282  1
  V  V50  1  0.00305658  0.49694134  0.50120824  1
  V  V51  1  0.00878685  0.62807749  0.12010184  1
  V  V52  1  0.25914015  0.36881682  0.63049904  1
  V  V53  1  0.37655460  0.11762619  0.25294183  1
  V  V54  1  0.74833423  0.87717760  0.62777907  1
  V  V55  1  0.27750756  0.87311716  0.11586201  1
  V  V56  1  0.62652713  0.87660445  0.74990083  1
  V  V57  1  0.12747922  0.24619956  0.88759033  1
  V  V58  1  0.49645297  0.00060633  0.49268700  1
  V  V59  1  0.62098906  0.61649854  0.49877273  1
  V  V60  1  0.00075876  0.74972579  0.24718747  1
  V  V61  1  0.49497090  -0.00575756  0.00090659  1
  V  V62  1  0.74910517  0.37480746  0.62375646  1
  V  V63  1  0.86914610  0.62480091  0.75496427  1
  V  V64  1  0.62985996  0.24581074  0.37210878  1
  V  V65  1  0.07573252  0.92947069  0.19868404  1
  V  V66  1  0.49467676  0.87094319  0.87674372  1
  V  V67  1  0.00487413  0.74905633  0.75558139  1
  V  V68  1  0.87776997  0.00044219  0.87330486  1
  V  V69  1  0.62820862  0.12580153  -0.00038357  1
  V  V70  1  0.37246829  0.49938134  0.86024351  1
  V  V71  1  0.75112125  0.50073654  0.24746756  1
  V  V72  1  0.12380393  0.75435995  0.37123882  1
  V  V73  1  0.36854060  0.12079791  0.74997770  1
  V  V74  1  0.62293911  0.24948472  0.87356369  1
  V  V75  1  0.25471818  0.11947091  0.37535664  1
  V  V76  1  0.75062938  0.36969741  0.12397459  1
  V  V77  1  0.74625084  0.00844303  0.25929903  1
  V  V78  1  0.62698403  0.87100429  0.24556785  1
  V  V79  1  0.49347124  0.61703080  0.62287991  1
  V  V80  1  0.38246946  0.63961080  0.24759280  1
  V  V81  1  0.61621614  0.75087283  0.37353996  1
  V  V82  1  0.62681157  0.00114835  0.62731618  1
  V  V83  1  0.00225090  0.87244849  0.88565953  1
  V  V84  1  0.74654406  0.50171197  0.75239631  1
  Zn  Zn85  1  0.12557175  0.62416049  0.50107035  1
  Zn  Zn86  1  0.36989143  -0.00780412  0.87828609  1
  Zn  Zn87  1  0.87352862  0.37630236  -0.00004515  1
  Zn  Zn88  1  0.87732609  0.13062431  0.24341026  1
  Zn  Zn89  1  0.06337959  0.07472912  0.07290643  1
  Zn  Zn90  1  0.24940666  -0.00237661  0.75556720  1
  Zn  Zn91  1  0.62094557  0.49775095  0.11928313  1
  Zn  Zn92  1  0.12738660  0.37574877  0.23968752  1
  Zn  Zn93  1  0.87736626  0.37266235  0.49781140  1
  Zn  Zn94  1  0.12687287  0.12537755  0.49895234  1
  Zn  Zn95  1  0.75161050  0.25091283  -0.00084929  1
  Zn  Zn96  1  0.38349299  0.50634407  0.38084989  1
  Zn  Zn97  1  0.12711645  0.00178312  0.62508188  1
  Zn  Zn98  1  0.49573939  0.87560591  0.36906544  1
  Zn  Zn99  1  0.49346774  0.63760444  0.12497879  1
  Zn  Zn100  1  0.26901683  0.25205023  0.01108026  1
  Zn  Zn101  1  0.63106054  0.74285089  0.86864563  1
  Zn  Zn102  1  0.86601401  0.75378880  0.12527633  1
  Zn  Zn103  1  -0.00107028  0.24573730  0.75298733  1
  Zn  Zn104  1  0.38059794  0.37820293  0.50737236  1
  Zn  Zn105  1  0.13035342  0.50657882  0.12053080  1
  Zn  Zn106  1  0.25705512  0.38861679  0.09590779  1
  Zn  Zn107  1  0.18775912  0.18813957  0.17592386  1
  Zn  Zn108  1  0.18431159  0.18942101  0.69103748  1
  Zn  Zn109  1  0.19245308  0.69604977  0.18732034  1
  Zn  Zn110  1  0.18364365  0.68920121  0.68834958  1
  Zn  Zn111  1  0.68892363  0.18572692  0.18624392  1
  Zn  Zn112  1  0.68551602  0.18753963  0.68501030  1
  Zn  Zn113  1  0.65811544  0.70547878  0.16244055  1
  Zn  Zn114  1  0.68547935  0.68592805  0.68689626  1
  Zn  Zn115  1  0.31660382  0.30769637  0.21827098  1
  Zn  Zn116  1  0.30941782  0.31448825  0.82692206  1
  Zn  Zn117  1  0.31235408  0.81274784  0.31376241  1
  Zn  Zn118  1  0.31071061  0.80434049  0.81652833  1
  Zn  Zn119  1  0.81715625  0.31211094  0.31012801  1
  Zn  Zn120  1  0.80939627  0.30967493  0.80972218  1
  Zn  Zn121  1  0.80493116  0.81501419  0.31160127  1
  Zn  Zn122  1  0.81084742  0.81267878  0.81415539  1
  Zn  Zn123  1  0.19488659  0.43777319  0.44113161  1
  Zn  Zn124  1  0.19269847  0.44112159  0.93013972  1
  Zn  Zn125  1  0.18593960  0.93822663  0.43548168  1
  Zn  Zn126  1  0.18413406  0.93425217  0.94907344  1
  Zn  Zn127  1  0.68792408  0.43381881  0.43419957  1
  Zn  Zn128  1  0.68264143  0.43615808  0.93796640  1
  Zn  Zn129  1  0.68487436  0.93573287  0.43911853  1
  Zn  Zn130  1  0.68473343  0.93871667  0.93091399  1
  Zn  Zn131  1  0.31205416  0.05775055  0.06745371  1
  Zn  Zn132  1  0.31239499  0.06060931  0.56267579  1
  Zn  Zn133  1  0.31750340  0.57086985  0.06394844  1
  Zn  Zn134  1  0.31451955  0.55827975  0.55904231  1
  Zn  Zn135  1  0.82042876  0.06879033  0.05951157  1
  Zn  Zn136  1  0.80946631  0.06333298  0.55857541  1
  Zn  Zn137  1  0.81513975  0.55931866  0.06384451  1
  Zn  Zn138  1  0.81281839  0.56032979  0.56335461  1
  Zn  Zn139  1  0.43809724  0.45217144  0.19043063  1
  Zn  Zn140  1  0.43737633  0.43835642  0.69280573  1
  Zn  Zn141  1  0.44645292  0.93983845  0.18952473  1
  Zn  Zn142  1  0.43874278  0.93710514  0.68573966  1
  Zn  Zn143  1  0.93936203  0.43872545  0.18380621  1
  Zn  Zn144  1  0.93858515  0.43605409  0.68886342  1
  Zn  Zn145  1  0.91012058  0.93649909  0.19011303  1
  Zn  Zn146  1  0.93830191  0.93745658  0.69040029  1
  Zn  Zn147  1  0.07278374  0.09924033  0.27219894  1
  Zn  Zn148  1  0.06073968  0.06070653  0.91166984  1
  Zn  Zn149  1  0.06560828  0.56541495  0.31151776  1
  Zn  Zn150  1  0.06390011  0.56027601  0.81224644  1
  Zn  Zn151  1  0.56476174  0.06269467  0.31186803  1
  Zn  Zn152  1  0.55783786  0.06000376  0.81129364  1
  Zn  Zn153  1  0.56405819  0.56178271  0.31117274  1
  Zn  Zn154  1  0.55465976  0.55999633  0.81566179  1
  Zn  Zn155  1  0.43560841  0.19333866  0.43197117  1
  Zn  Zn156  1  0.44033150  0.18013949  0.93010515  1
  Zn  Zn157  1  0.43557301  0.68728522  0.44123010  1
  Zn  Zn158  1  0.42522410  0.69037865  0.93446082  1
  Zn  Zn159  1  0.95733354  0.17178731  0.41093080  1
  Zn  Zn160  1  0.93648017  0.19166601  0.94440784  1
  Zn  Zn161  1  0.93858815  0.68443011  0.43755564  1
  Zn  Zn162  1  0.93513659  0.68837294  0.93656548  1
  Zn  Zn163  1  0.07130381  0.32477409  0.05916500  1
  Zn  Zn164  1  0.06811068  0.31054945  0.55717376  1
  Zn  Zn165  1  0.06430539  0.80594316  0.05512898  1
  Zn  Zn166  1  0.06373047  0.80972320  0.56572073  1
  Zn  Zn167  1  0.43341062  0.31270602  0.06564267  1
  Zn  Zn168  1  0.56282468  0.30964117  0.56367910  1
  Zn  Zn169  1  0.56337029  0.81096799  0.05943147  1
  Zn  Zn170  1  0.56055163  0.81033684  0.56065482  1
  O  O171  1  0.10345239  0.12156977  0.16535769  1
  O  O172  1  0.11455429  0.12265502  0.62438807  1
  O  O173  1  0.11171275  0.62742264  0.13079189  1
  O  O174  1  0.11817787  0.61475273  0.62643038  1
  O  O175  1  0.61892443  0.12047299  0.11587320  1
  O  O176  1  0.61404466  0.11768395  0.62177592  1
  O  O177  1  0.64183777  0.60999430  0.09458445  1
  O  O178  1  0.61856214  0.61822945  0.61638464  1
  O  O179  1  0.39614036  0.37297151  0.37091456  1
  O  O180  1  0.37302238  0.39744700  0.86638507  1
  O  O181  1  0.37744004  0.86825962  0.39125354  1
  O  O182  1  0.39069066  0.87469864  0.86478755  1
  O  O183  1  0.88766266  0.37968158  0.37639379  1
  O  O184  1  0.88085980  0.38027578  0.87196533  1
  O  O185  1  0.87769253  0.87585714  0.38511675  1
  O  O186  1  0.87674776  0.88266845  0.88082693  1
  O  O187  1  0.24682602  0.00740919  0.36694246  1
  O  O188  1  0.25078932  0.00632547  0.87468400  1
  O  O189  1  0.24577914  0.51643523  0.36962345  1
  O  O190  1  0.26134586  0.51225256  0.87191434  1
  O  O191  1  0.75552230  -0.00436639  0.37137063  1
  O  O192  1  0.75806370  0.01038568  0.87310297  1
  O  O193  1  0.75721359  0.50446046  0.36872431  1
  O  O194  1  0.76171355  0.49139251  0.86855162  1
  O  O195  1  0.25290981  0.50468796  0.13799737  1
  O  O196  1  0.23822598  0.49200247  0.62260449  1
  O  O197  1  0.25622184  0.98519806  0.13714204  1
  O  O198  1  0.24988487  0.98596335  0.62840920  1
  O  O199  1  0.75485288  0.48679025  0.13246562  1
  O  O200  1  0.74302547  0.49334524  0.63092890  1
  O  O201  1  0.74258243  1.00904052  0.13081527  1
  O  O202  1  0.73442339  0.99492936  0.61859494  1
  O  O203  1  0.00774633  0.38605178  0.26332930  1
  O  O204  1  0.00346925  0.37200051  0.76065701  1
  O  O205  1  0.00019734  0.87282306  0.25439248  1
  O  O206  1  0.00384275  0.86647616  0.75658876  1
  O  O207  1  0.50928513  0.36821042  0.25444931  1
  O  O208  1  0.51125005  0.36469673  0.74354528  1
  O  O209  1  0.52026301  0.88346211  0.25573607  1
  O  O210  1  0.50903235  0.86382701  0.75016473  1
  O  O211  1  0.49821554  0.12879591  0.24344177  1
  O  O212  1  0.48955846  0.12864589  0.74263336  1
  O  O213  1  0.48542326  0.61984255  0.25347770  1
  O  O214  1  0.50822217  0.63718497  0.73897413  1
  O  O215  1  0.97066842  0.12300122  0.30686120  1
  O  O216  1  0.98479633  0.12716407  0.73129095  1
  O  O217  1  0.99122743  0.62979388  0.24385476  1
  O  O218  1  0.99359219  0.63125154  0.74625210  1
  O  O219  1  0.38261270  0.23896973  0.00169815  1
  O  O220  1  0.36327548  0.25508648  0.49720100  1
  O  O221  1  0.35429099  0.75274945  -0.00197034  1
  O  O222  1  0.36914632  0.75685712  0.51136667  1
  O  O223  1  0.87046366  0.25691348  0.01259317  1
  O  O224  1  0.86718970  0.25058642  0.51081622  1
  O  O225  1  0.86279805  0.75865482  -0.00327090  1
  O  O226  1  0.87020145  0.75210294  0.50684585  1
  O  O227  1  0.13881399  0.24585293  0.49287414  1
  O  O228  1  0.12309908  0.24884886  0.98858511  1
  O  O229  1  0.13105832  0.74626365  0.49533258  1
  O  O230  1  0.15275555  0.77141162  0.99608654  1
  O  O231  1  0.63176668  0.24634218  0.49150755  1
  O  O232  1  0.62742629  0.23266460  0.98790124  1
  O  O233  1  0.63080269  0.73996660  0.49498072  1
  O  O234  1  0.63636800  0.73365409  0.99106104  1
  O  O235  1  0.50454478  0.24058557  0.13775807  1
  O  O236  1  0.50577460  0.23822838  0.63488677  1
  O  O237  1  0.54815067  0.73541330  0.13702490  1
  O  O238  1  0.49283374  0.74171752  0.62909241  1
  O  O239  1  0.99323435  0.26136753  0.12098269  1
  O  O240  1  0.99159318  0.24317357  0.61994681  1
  O  O241  1  0.99435511  0.74445403  0.12805913  1
  O  O242  1  0.99214922  0.74275086  0.63270747  1
  O  O243  1  0.02174008  0.26454815  0.38867601  1
  O  O244  1  0.00375015  0.25842504  0.87385286  1
  O  O245  1  0.00400050  0.75387705  0.36955560  1
  O  O246  1  -0.00785971  0.75797993  0.86448256  1
  O  O247  1  0.51053132  0.25640875  0.36420757  1
  O  O248  1  0.51612085  0.23677810  0.86191611  1
  O  O249  1  0.51355227  0.75121268  0.38142236  1
  O  O250  1  0.50143531  0.75269477  0.86537107  1
  O  O251  1  0.25030924  0.12846673  0.49361998  1
  O  O252  1  0.25325822  0.12584400  0.99450132  1
  O  O253  1  0.24880856  0.63326083  0.49227992  1
  O  O254  1  0.24266020  0.63464005  1.00624999  1
  O  O255  1  0.73717377  0.14035694  0.51146202  1
  O  O256  1  0.74508773  0.12602545  0.98875746  1
  O  O257  1  0.74371932  0.62835936  0.49531491  1
  O  O258  1  0.75808910  0.62861856  0.98919532  1
  O  O259  1  0.24900134  0.36429968  -0.01368340  1
  O  O260  1  0.25060777  0.36542764  0.51236119  1
  O  O261  1  0.26277521  0.88366730  0.01533631  1
  O  O262  1  0.25525237  0.87083399  0.50778931  1
  O  O263  1  0.74895306  0.37384043  0.00988790  1
  O  O264  1  0.75085069  0.36476865  0.50595552  1
  O  O265  1  0.75804455  0.87137376  -0.00741531  1
  O  O266  1  0.75253899  0.86654032  0.50817826  1
  O  O267  1  0.14134475  0.50573090  0.24914212  1
  O  O268  1  0.11590113  0.48370525  0.74019053  1
  O  O269  1  0.13401510  0.98888571  0.25896859  1
  O  O270  1  0.12615264  0.98226361  0.74367799  1
  O  O271  1  0.63367345  0.49345301  0.24817287  1
  O  O272  1  0.62536335  0.49127233  0.74795591  1
  O  O273  1  0.63145820  0.99802289  0.24222577  1
  O  O274  1  0.61604203  0.98977030  0.73880025  1
  O  O275  1  0.37352421  0.00830840  0.25265625  1
  O  O276  1  0.37450806  0.00771759  0.75164250  1
  O  O277  1  0.36456307  0.51339155  0.26086703  1
  O  O278  1  0.38634488  0.51177155  0.76168514  1
  O  O279  1  0.86313687  0.00330879  0.26580274  1
  O  O280  1  0.87266959  0.00914785  0.75413513  1
  O  O281  1  0.87235449  0.50742658  0.25546939  1
  O  O282  1  0.86952586  0.50641077  0.75479240  1
  O  O283  1  0.12430821  0.36883714  0.37760534  1
  O  O284  1  0.11751191  0.36861489  0.86658723  1
  O  O285  1  0.11526171  0.86172247  0.38300744  1
  O  O286  1  0.11237338  0.87833648  0.86894203  1
  O  O287  1  0.62133991  0.36550529  0.36510747  1
  O  O288  1  0.62960036  0.36185734  0.86506441  1
  O  O289  1  0.62410600  0.86492688  0.37172871  1
  O  O290  1  0.61555000  0.87293927  0.86370291  1
  O  O291  1  0.39048607  0.11605227  0.13413026  1
  O  O292  1  0.38555094  0.12056409  0.63116856  1
  O  O293  1  0.37661840  0.63075195  0.14268566  1
  O  O294  1  0.38318355  0.63275706  0.61860382  1
  O  O295  1  0.87720262  0.14299285  0.12530047  1
  O  O296  1  0.87582273  0.13079086  0.62710014  1
  O  O297  1  0.88042265  0.62572122  0.13647743  1
  O  O298  1  0.88020344  0.62681949  0.63544870  1
  O  O299  1  0.25494458  0.26100788  0.13088632  1
  O  O300  1  0.24549816  0.25761841  0.61814250  1
  O  O301  1  0.25087318  0.76672071  0.11865193  1
  O  O302  1  0.25602447  0.75755781  0.62223513  1
  O  O303  1  0.74870629  0.26217271  0.12436800  1
  O  O304  1  0.75487515  0.25671938  0.61903686  1
  O  O305  1  0.74981480  0.74569007  0.10047029  1
  O  O306  1  0.75496869  0.75370088  0.61941598  1
  O  O307  1  0.24336203  0.24405367  0.38593844  1
  O  O308  1  0.24169080  0.23633296  0.87482716  1
  O  O309  1  0.24130765  0.74475794  0.37897629  1
  O  O310  1  0.25338129  0.73264879  0.88281267  1
  O  O311  1  0.74425254  0.25684354  0.38395930  1
  O  O312  1  0.74044502  0.23748171  0.87241185  1
  O  O313  1  0.74573201  0.74223277  0.38457631  1
  O  O314  1  0.74772113  0.75341994  0.88790863  1
  O  O315  1  -0.00745802  0.11018092  -0.00936150  1
  O  O316  1  0.00091606  0.11473483  0.50753925  1
  O  O317  1  -0.00821997  0.61966190  0.00861042  1
  O  O318  1  -0.00008347  0.61301875  0.50704499  1
  O  O319  1  0.51030369  0.11487765  0.00558506  1
  O  O320  1  0.50177381  0.12190765  0.50570140  1
  O  O321  1  0.50611213  0.63018782  0.00067150  1
  O  O322  1  0.50978008  0.62920045  0.51003346  1
  O  O323  1  0.50181462  0.36510413  0.48510881  1
  O  O324  1  0.49981424  0.38743796  1.00452486  1
  O  O325  1  0.49230523  0.88359612  0.50119990  1
  O  O326  1  0.51064964  0.88085788  0.98880248  1
  O  O327  1  1.00113905  0.38677580  0.49527785  1
  O  O328  1  0.99863950  0.38521509  0.98562926  1
  O  O329  1  0.99269126  0.87812441  0.50168302  1
  O  O330  1  0.98481136  0.86430454  0.98804845  1
  O  O331  1  0.50591603  0.48267941  0.37190572  1
  O  O332  1  0.48468601  0.50779454  0.88985566  1
  O  O333  1  0.50664630  0.99955054  0.38957123  1
  O  O334  1  0.50064078  0.99019449  0.88404197  1
  O  O335  1  0.99960437  0.49621266  0.38352206  1
  O  O336  1  0.98930159  0.49497003  0.87696361  1
  O  O337  1  0.98620269  0.98789421  0.39415795  1
  O  O338  1  0.98347664  0.98627103  0.86473105  1
  O  O339  1  0.00796053  -0.01338918  0.14736337  1
  O  O340  1  -0.00270176  0.00552908  0.61563619  1
  O  O341  1  0.00030719  0.50940978  0.11301317  1
  O  O342  1  0.00611660  0.50168372  0.61837191  1
  O  O343  1  0.51392927  0.00684765  0.11799780  1
  O  O344  1  0.50834523  0.00631156  0.61563029  1
  O  O345  1  0.50133351  0.51108180  0.11163510  1
  O  O346  1  0.50508113  0.51026481  0.62893646  1
  O  O347  1  0.25134255  0.39549824  0.26297765  1
  O  O348  1  0.23936544  0.36645963  0.74426780  1
  O  O349  1  0.25890228  0.88364016  0.24323580  1
  O  O350  1  0.24206995  0.87013046  0.74564698  1
  O  O351  1  0.74503801  0.38134615  0.24722437  1
  O  O352  1  0.73845955  0.37861585  0.74282458  1
  O  O353  1  0.73937312  0.89095934  0.25257599  1
  O  O354  1  0.73540495  0.86882735  0.74357348  1
  O  O355  1  0.26119529  0.11308027  0.25501614  1
  O  O356  1  0.26175516  0.12340711  0.74773960  1
  O  O357  1  0.25823933  0.62412173  0.25730330  1
  O  O358  1  0.25526168  0.63335408  0.75526262  1
  O  O359  1  0.75275085  0.11388664  0.25061649  1
  O  O360  1  0.75801817  0.12848060  0.75345206  1
  O  O361  1  0.75822085  0.61843284  0.25481338  1
  O  O362  1  0.75796289  0.61621573  0.74436925  1
  O  O363  1  0.36316713  0.12603713  0.37036554  1
  O  O364  1  0.36428704  0.11714900  0.86575099  1
  O  O365  1  0.36643027  0.62796868  0.37078572  1
  O  O366  1  0.35942769  0.61398125  0.88175115  1
  O  O367  1  0.85627544  0.11043414  0.40806943  1
  O  O368  1  0.86807690  0.11893389  0.86405857  1
  O  O369  1  0.87215760  0.61992634  0.36476254  1
  O  O370  1  0.87905939  0.61582108  0.86153202  1
  O  O371  1  0.13520532  0.38872820  0.12534785  1
  O  O372  1  0.13097873  0.37901568  0.63166323  1
  O  O373  1  0.12583405  0.87311919  0.13333665  1
  O  O374  1  0.13489009  0.87323548  0.63139108  1
  O  O375  1  0.63394791  0.37967634  0.14023061  1
  O  O376  1  0.62857781  0.38084264  0.63004206  1
  O  O377  1  0.62684679  0.88695682  0.13166783  1
  O  O378  1  0.62708758  0.88114323  0.62897813  1
  O  O379  1  0.13662839  0.25912288  0.26748652  1
  O  O380  1  0.11802702  0.25961914  0.75591985  1
  O  O381  1  0.11539391  0.74723921  0.25991410  1
  O  O382  1  0.11024511  0.75936509  0.74332812  1
  O  O383  1  0.62217260  0.25541151  0.25571412  1
  O  O384  1  0.61857378  0.25557019  0.75364582  1
  O  O385  1  0.64400134  0.76117772  0.26478789  1
  O  O386  1  0.61725615  0.75625093  0.74868090  1
  O  O387  1  0.38923956  0.23138296  0.25773235  1
  O  O388  1  0.38692875  0.24325519  0.76037126  1
  O  O389  1  0.37779139  0.73838339  0.25841757  1
  O  O390  1  0.38382872  0.75479540  0.73653540  1
  O  O391  1  0.87414299  0.25177204  0.23214777  1
  O  O392  1  0.87441033  0.24233192  0.73650102  1
  O  O393  1  0.87793406  0.74413145  0.24809188  1
  O  O394  1  0.87940447  0.74229044  0.74636561  1
  O  O395  1  0.36976116  0.49034776  0.49138282  1
  O  O396  1  0.38415648  0.50195262  0.99992423  1
  O  O397  1  0.38423320  0.98981365  0.50709245  1
  O  O398  1  0.39247883  1.00351706  1.00049674  1
  O  O399  1  0.88331802  0.49797826  0.49330400  1
  O  O400  1  0.88239736  0.49743150  0.98950485  1
  O  O401  1  0.87712502  0.98799881  0.50106039  1
  O  O402  1  0.86755741  0.98725887  0.99041522  1
  O  O403  1  0.11511113  0.00621247  -0.00375960  1
  O  O404  1  0.11477064  0.00131063  0.50300580  1
  O  O405  1  0.11172169  0.50134656  -0.00599489  1
  O  O406  1  0.11884515  0.50168767  0.50905113  1
  O  O407  1  0.62367971  0.00763879  0.00492207  1
  O  O408  1  0.61780916  0.00636147  0.50643083  1
  O  O409  1  0.60846046  0.50593442  -0.00776954  1
  O  O410  1  0.63133807  0.51071064  0.50227409  1
  O  O411  1  0.37207507  0.37524003  0.13980355  1
  O  O412  1  0.36256796  0.37816567  0.63020168  1
  O  O413  1  0.37611316  0.87345215  0.12743235  1
  O  O414  1  0.36855685  0.86740474  0.61857063  1
  O  O415  1  0.86931423  0.36688619  0.12434356  1
  O  O416  1  0.86933323  0.36709395  0.62412676  1
  O  O417  1  0.87289565  0.87253507  0.10615532  1
  O  O418  1  0.86808283  0.86896911  0.62233956  1
  O  O419  1  0.13844863  0.13797707  0.37159347  1
  O  O420  1  0.13709888  0.13452446  0.86514136  1
  O  O421  1  0.13061848  0.63742163  0.37810187  1
  O  O422  1  0.14472766  0.61620088  0.86619176  1
  O  O423  1  0.62165198  0.13868968  0.37989451  1
  O  O424  1  0.63205258  0.12383462  0.87737717  1
  O  O425  1  0.62957421  0.63008134  0.38097844  1
  O  O426  1  0.62462379  0.62165465  0.88592647  1
