# generated using pymatgen
data_V85Zn86O256
_symmetry_space_group_name_H-M   'P 1'
_cell_length_a   16.97872746
_cell_length_b   16.98045639
_cell_length_c   16.97148276
_cell_angle_alpha   89.95682282
_cell_angle_beta   89.92872385
_cell_angle_gamma   89.88924974
_symmetry_Int_Tables_number   1
_chemical_formula_structural   V85Zn86O256
_chemical_formula_sum   'V85 Zn86 O256'
_cell_volume   4892.97518430
_cell_formula_units_Z   1
loop_
 _symmetry_equiv_pos_site_id
 _symmetry_equiv_pos_as_xyz
  1  'x, y, z'
loop_
 _atom_site_type_symbol
 _atom_site_label
 _atom_site_symmetry_multiplicity
 _atom_site_fract_x
 _atom_site_fract_y
 _atom_site_fract_z
 _atom_site_occupancy
  V  V0  1  0.37720262  0.12842908  0.74570370  1
  V  V1  1  0.37538291  -0.00442903  0.37695842  1
  V  V2  1  0.25297073  0.25140893  0.00782479  1
  V  V3  1  0.62485392  0.12233798  0.49771294  1
  V  V4  1  0.12145023  0.11668649  0.01436051  1
  V  V5  1  0.37552327  0.87841396  0.50038099  1
  V  V6  1  0.75085626  0.25400979  0.50238240  1
  V  V7  1  0.87938469  0.37387614  0.50069840  1
  V  V8  1  0.62473151  -0.00835959  0.62560359  1
  V  V9  1  0.87728180  0.62069523  0.74263718  1
  V  V10  1  0.86449181  0.86454741  -0.01496740  1
  V  V11  1  0.62640907  0.49324576  0.62348182  1
  V  V12  1  0.24870169  0.74704138  0.49635731  1
  V  V13  1  0.12727503  0.74356974  0.37426461  1
  V  V14  1  0.11301447  0.50804577  0.63132742  1
  V  V15  1  0.87334385  0.36735255  0.00268321  1
  V  V16  1  -0.01655446  -0.01416803  -0.00035798  1
  V  V17  1  0.75132926  0.49386432  0.25840761  1
  V  V18  1  0.25295476  0.12955917  0.87666810  1
  V  V19  1  0.75034293  0.74978129  0.48630944  1
  V  V20  1  0.37740214  0.87814317  0.00370233  1
  V  V21  1  0.12303773  0.87786929  0.24300624  1
  V  V22  1  0.87543912  0.50061360  0.87543317  1
  V  V23  1  0.37366489  0.75084498  0.62693484  1
  V  V24  1  0.50783563  0.50109305  0.00251651  1
  V  V25  1  0.12641270  0.62758957  0.00374559  1
  V  V26  1  0.12752685  0.25151373  0.87910914  1
  V  V27  1  0.24736804  0.00029284  0.24393258  1
  V  V28  1  0.25270696  0.62724909  0.87947426  1
  V  V29  1  0.75422708  0.86877371  0.62616839  1
  V  V30  1  0.25765617  0.75165687  0.00450443  1
  V  V31  1  0.37668784  0.50454508  0.87584105  1
  V  V32  1  0.54274118  -0.05660903  0.43966487  1
  V  V33  1  0.50225291  0.62101972  0.62312106  1
  V  V34  1  -0.00160953  0.00442984  0.50568055  1
  V  V35  1  0.00048928  0.37288682  0.87713904  1
  V  V36  1  0.12253099  0.12462312  0.50950956  1
  V  V37  1  0.12903276  0.50329327  0.13289684  1
  V  V38  1  0.00187849  0.87453102  0.37173949  1
  V  V39  1  0.50526246  0.75724603  0.26591525  1
  V  V40  1  0.29707502  0.45716713  0.30795457  1
  V  V41  1  0.00396742  0.23901957  0.74833285  1
  V  V42  1  0.50164352  0.25664754  0.25227832  1
  V  V43  1  0.50947478  0.25713894  0.74848687  1
  V  V44  1  0.24707885  0.87575109  0.62681854  1
  V  V45  1  0.49689158  0.11360019  0.61975000  1
  V  V46  1  0.37554178  0.12621055  0.24300627  1
  V  V47  1  0.86135036  0.75369399  0.12356288  1
  V  V48  1  0.49696164  0.63796602  0.12540442  1
  V  V49  1  -0.00621831  0.50905025  0.49470839  1
  V  V50  1  0.24761452  0.37753843  0.62550730  1
  V  V51  1  -0.00557497  0.62550545  0.12630048  1
  V  V52  1  0.61426969  -0.00185045  0.11826903  1
  V  V53  1  0.37646488  0.00131751  0.87846194  1
  V  V54  1  0.88134954  0.23660632  0.62646642  1
  V  V55  1  0.11760262  0.37545895  0.25396057  1
  V  V56  1  0.37649471  0.62732004  0.75439243  1
  V  V57  1  0.88069641  0.00520411  0.35700972  1
  V  V58  1  0.11677776  0.75287291  0.87990131  1
  V  V59  1  0.37778406  0.37276986  -0.00063903  1
  V  V60  1  0.24863799  0.12328887  0.37830690  1
  V  V61  1  0.11866381  0.87641149  0.75576729  1
  V  V62  1  0.50822263  0.75075247  0.75135719  1
  V  V63  1  0.61985288  0.12503998  -0.01264470  1
  V  V64  1  0.62187901  0.62823345  0.49229385  1
  V  V65  1  0.75807662  -0.00059747  0.75741138  1
  V  V66  1  0.75664234  0.12849094  0.37152719  1
  V  V67  1  0.74566304  0.49293190  0.75110390  1
  V  V68  1  0.36644089  0.63504933  0.25907262  1
  V  V69  1  0.87858310  0.87478095  0.49761509  1
  V  V70  1  0.25450055  0.38220978  0.12390239  1
  V  V71  1  0.50000674  0.87711045  0.87544327  1
  V  V72  1  0.49729600  0.13188836  0.11823406  1
  V  V73  1  0.25036904  0.25332767  0.50432134  1
  V  V74  1  0.24917334  0.49993647  0.75295655  1
  V  V75  1  0.24864018  -0.00002261  0.75014042  1
  V  V76  1  0.00005963  0.49858017  0.00289902  1
  V  V77  1  -0.00300137  0.74998633  0.24885502  1
  V  V78  1  0.00149787  0.74427247  0.74262515  1
  V  V79  1  0.25042489  0.87575654  0.12439078  1
  V  V80  1  0.62334518  0.50066411  0.13012938  1
  V  V81  1  0.74823587  0.00354204  0.24194688  1
  V  V82  1  0.39759495  0.27232847  0.60726519  1
  V  V83  1  0.74242044  0.62515083  0.88517079  1
  V  V84  1  0.74342677  0.37100620  0.12631326  1
  Zn  Zn85  1  -0.01381249  0.23278199  0.25283607  1
  Zn  Zn86  1  0.62176645  0.87589733  0.26019702  1
  Zn  Zn87  1  0.75247092  0.62087858  0.37373952  1
  Zn  Zn88  1  0.50401763  0.38046400  0.86558378  1
  Zn  Zn89  1  0.74945906  0.36813831  0.63373855  1
  Zn  Zn90  1  0.88801814  0.11426013  0.75541567  1
  Zn  Zn91  1  0.87221281  0.61795089  0.25466518  1
  Zn  Zn92  1  0.76554101  0.12488554  0.87671120  1
  Zn  Zn93  1  0.43186160  0.51114108  0.41633051  1
  Zn  Zn94  1  0.74201454  0.87145534  0.12161838  1
  Zn  Zn95  1  0.62968783  0.87108141  0.75720245  1
  Zn  Zn96  1  0.12341640  0.37447183  0.75227034  1
  Zn  Zn97  1  0.12027717  0.62895079  0.50378738  1
  Zn  Zn98  1  0.62581441  0.25835465  0.36297733  1
  Zn  Zn99  1  0.11786310  0.00358312  0.63129834  1
  Zn  Zn100  1  0.87567765  0.23357498  0.13476654  1
  Zn  Zn101  1  -0.00559207  0.37402634  0.37587089  1
  Zn  Zn102  1  0.74838348  0.24657530  -0.00269455  1
  Zn  Zn103  1  0.63547575  0.26467692  0.86446883  1
  Zn  Zn104  1  0.88135670  0.74279720  0.61953195  1
  Zn  Zn105  1  0.12216083  0.25266163  0.37544466  1
  Zn  Zn106  1  0.63872054  0.75306157  0.90510277  1
  Zn  Zn107  1  0.18756931  0.19323034  0.18892875  1
  Zn  Zn108  1  0.19015718  0.19031214  0.68791068  1
  Zn  Zn109  1  0.18791813  0.69130958  0.18668899  1
  Zn  Zn110  1  0.18766206  0.68778319  0.68937947  1
  Zn  Zn111  1  0.68616310  0.18680768  0.18281338  1
  Zn  Zn112  1  0.68888213  0.18006009  0.68272475  1
  Zn  Zn113  1  0.68024831  0.68218460  0.19005146  1
  Zn  Zn114  1  0.69056862  0.68179291  0.68887366  1
  Zn  Zn115  1  0.31502239  0.29723318  0.31329450  1
  Zn  Zn116  1  0.31892380  0.31592379  0.80771854  1
  Zn  Zn117  1  0.31355097  0.81322950  0.31290345  1
  Zn  Zn118  1  0.31078607  0.81173405  0.81545511  1
  Zn  Zn119  1  0.81139330  0.31685411  0.31422271  1
  Zn  Zn120  1  0.81674709  0.30682611  0.81444122  1
  Zn  Zn121  1  0.81374440  0.81789071  0.30538706  1
  Zn  Zn122  1  0.81012164  0.80323191  0.80761518  1
  Zn  Zn123  1  0.18074242  0.43819806  0.44621233  1
  Zn  Zn124  1  0.18661262  0.43968842  0.94137379  1
  Zn  Zn125  1  0.18587916  0.93597691  0.43706760  1
  Zn  Zn126  1  0.18696012  0.93855114  0.93485322  1
  Zn  Zn127  1  0.62670338  0.45436277  0.41010893  1
  Zn  Zn128  1  0.68631573  0.43615917  0.93689905  1
  Zn  Zn129  1  0.70650936  0.93988215  0.43656613  1
  Zn  Zn130  1  0.68516498  0.93756763  0.94031552  1
  Zn  Zn131  1  0.31040138  0.06220806  0.06214342  1
  Zn  Zn132  1  0.31133577  0.06039912  0.56220999  1
  Zn  Zn133  1  0.32091691  0.56554728  0.06736322  1
  Zn  Zn134  1  0.30618537  0.56732756  0.56423165  1
  Zn  Zn135  1  0.80514710  0.05695305  0.05497083  1
  Zn  Zn136  1  0.81462673  0.06035552  0.56235306  1
  Zn  Zn137  1  0.81227911  0.55793389  0.06515649  1
  Zn  Zn138  1  0.80890385  0.56122414  0.56153261  1
  Zn  Zn139  1  0.43756577  0.44028090  0.18676162  1
  Zn  Zn140  1  0.43319190  0.44254028  0.58611121  1
  Zn  Zn141  1  0.43696878  0.93787446  0.18768474  1
  Zn  Zn142  1  0.43610015  0.93643150  0.69052935  1
  Zn  Zn143  1  0.93287682  0.42807400  0.18607095  1
  Zn  Zn144  1  0.93532548  0.42751914  0.68909788  1
  Zn  Zn145  1  0.95937464  1.07440201  0.16199271  1
  Zn  Zn146  1  0.93846301  0.93021343  0.68764560  1
  Zn  Zn147  1  0.06792006  0.06144011  0.31812968  1
  Zn  Zn148  1  0.06332173  0.06225772  0.82591258  1
  Zn  Zn149  1  0.06234347  0.56197069  0.31280558  1
  Zn  Zn150  1  0.06157906  0.56553179  0.81578852  1
  Zn  Zn151  1  0.56819147  0.07234481  0.30421559  1
  Zn  Zn152  1  0.56206546  0.05592931  0.80598215  1
  Zn  Zn153  1  0.56531392  0.57335469  0.30390839  1
  Zn  Zn154  1  0.56452599  0.55993505  0.81092607  1
  Zn  Zn155  1  0.43807815  0.18237246  0.43509072  1
  Zn  Zn156  1  0.44050136  0.19033405  0.93535638  1
  Zn  Zn157  1  0.43560687  0.69045581  0.43613709  1
  Zn  Zn158  1  0.46444443  0.70268782  0.95439362  1
  Zn  Zn159  1  0.93995636  0.18944784  0.43214447  1
  Zn  Zn160  1  0.93889050  0.17991858  0.94104505  1
  Zn  Zn161  1  0.93255611  0.68412482  0.43297658  1
  Zn  Zn162  1  0.93386011  0.68682451  0.93597028  1
  Zn  Zn163  1  0.06154549  0.30727437  0.06957704  1
  Zn  Zn164  1  0.06309454  0.31489248  0.56510801  1
  Zn  Zn165  1  0.05549436  0.81642502  0.06416403  1
  Zn  Zn166  1  0.06422410  0.81624000  0.56347024  1
  Zn  Zn167  1  0.56317716  0.31051027  0.06028159  1
  Zn  Zn168  1  0.57428876  0.32358246  0.53150893  1
  Zn  Zn169  1  0.55756977  0.81478828  0.06409939  1
  Zn  Zn170  1  0.56577073  0.80443464  0.56592260  1
  O  O171  1  0.13151152  0.13131425  0.11260902  1
  O  O172  1  0.13313912  0.12158097  0.61359249  1
  O  O173  1  0.11846602  0.62135958  0.12229808  1
  O  O174  1  0.12717399  0.61110197  0.62708186  1
  O  O175  1  0.61617836  0.11681198  0.11408726  1
  O  O176  1  0.62129463  0.10516390  0.61842154  1
  O  O177  1  0.60567488  0.61735213  0.12715956  1
  O  O178  1  0.61804417  0.62167962  0.61959554  1
  O  O179  1  0.35405391  0.39457970  0.36294177  1
  O  O180  1  0.38156307  0.38523235  0.88002567  1
  O  O181  1  0.37343695  0.88890033  0.37939052  1
  O  O182  1  0.37668528  0.88492645  0.87902301  1
  O  O183  1  0.87247330  0.37261521  0.39652269  1
  O  O184  1  0.88152204  0.38109309  0.88268806  1
  O  O185  1  0.88400013  0.88438259  0.37566450  1
  O  O186  1  0.87104612  0.85949518  0.88663216  1
  O  O187  1  0.25655584  0.00476787  0.36823745  1
  O  O188  1  0.25721884  0.00817567  0.86727867  1
  O  O189  1  0.23983030  0.50739109  0.37206899  1
  O  O190  1  0.25485250  0.50702889  0.87425236  1
  O  O191  1  0.76105502  0.00902130  0.36593596  1
  O  O192  1  0.74411451  -0.00357632  0.85855920  1
  O  O193  1  0.73109263  0.49260743  0.35874919  1
  O  O194  1  0.75572470  0.50676593  0.86896347  1
  O  O195  1  0.24047289  0.49505201  0.11687364  1
  O  O196  1  0.23828048  0.49542487  0.63209326  1
  O  O197  1  0.25245398  0.99627363  0.13891141  1
  O  O198  1  0.24824026  0.99135562  0.63288245  1
  O  O199  1  0.73969883  0.49445755  0.12874341  1
  O  O200  1  0.74316147  0.49777369  0.63386664  1
  O  O201  1  0.73543178  0.99866678  0.12890922  1
  O  O202  1  0.74437158  0.98676552  0.62757041  1
  O  O203  1  0.01326714  0.39088404  0.25679776  1
  O  O204  1  0.00291335  0.36364389  0.76212735  1
  O  O205  1  0.00909097  0.87131553  0.26229037  1
  O  O206  1  0.01262693  0.86708288  0.75019053  1
  O  O207  1  0.48712266  0.35404487  0.24133599  1
  O  O208  1  0.49987678  0.35465395  0.74160844  1
  O  O209  1  0.49828856  0.86068379  0.24600618  1
  O  O210  1  0.50342896  0.86731647  0.75469095  1
  O  O211  1  0.49139352  0.12974905  0.23915949  1
  O  O212  1  0.48820168  0.12205975  0.74439921  1
  O  O213  1  0.49457636  0.63969355  0.24365553  1
  O  O214  1  0.49517078  0.63272748  0.74571249  1
  O  O215  1  1.00389680  0.11874603  0.25135892  1
  O  O216  1  1.00873151  0.13473439  0.75475532  1
  O  O217  1  0.99818183  0.62759394  0.23853492  1
  O  O218  1  0.99173748  0.63279719  0.75450820  1
  O  O219  1  0.36855705  0.26470329  -0.00729690  1
  O  O220  1  0.36108333  0.23457356  0.50886923  1
  O  O221  1  0.36615550  0.76321741  -0.00678171  1
  O  O222  1  0.36731673  0.75723130  0.50470138  1
  O  O223  1  0.87742517  0.26266733  -0.00126461  1
  O  O224  1  0.87208797  0.25041745  0.50847439  1
  O  O225  1  0.87769205  0.75528491  0.01036608  1
  O  O226  1  0.86883212  0.75644927  0.50165555  1
  O  O227  1  0.13432933  0.24247613  0.50181856  1
  O  O228  1  0.13350771  0.24533282  0.99636945  1
  O  O229  1  0.13029750  0.75183805  0.49301919  1
  O  O230  1  0.12922421  0.74765715  0.99547918  1
  O  O231  1  0.64024672  0.22606841  0.52240199  1
  O  O232  1  0.62214885  0.23410766  0.99452679  1
  O  O233  1  0.63716425  0.73832752  0.50685064  1
  O  O234  1  0.57323389  0.73296333  0.99130822  1
  O  O235  1  0.50180103  0.23720565  0.13085198  1
  O  O236  1  0.49829543  0.22660374  0.63689090  1
  O  O237  1  0.49358540  0.73924965  0.13240773  1
  O  O238  1  0.49439576  0.74204823  0.63425724  1
  O  O239  1  0.98953381  0.26706007  0.14055057  1
  O  O240  1  0.99672319  0.25288474  0.63724443  1
  O  O241  1  0.99173998  0.74215020  0.13042590  1
  O  O242  1  1.00296116  0.75235309  0.63819199  1
  O  O243  1  0.00536997  0.25635952  0.36972556  1
  O  O244  1  0.01161783  0.25358360  0.87303037  1
  O  O245  1  0.00439084  0.75782846  0.36964915  1
  O  O246  1  0.01320563  0.74271416  0.86814639  1
  O  O247  1  0.49621995  0.24145616  0.35642834  1
  O  O248  1  0.49839667  0.24907307  0.85543267  1
  O  O249  1  0.50171580  0.75280356  0.36501764  1
  O  O250  1  0.48573042  0.76571874  0.85988213  1
  O  O251  1  0.24363757  0.12806862  0.49468235  1
  O  O252  1  0.25058657  0.13774234  0.99579542  1
  O  O253  1  0.24342188  0.64372745  0.50714647  1
  O  O254  1  0.24870718  0.63431895  1.00054266  1
  O  O255  1  0.74550581  0.12519410  0.49136735  1
  O  O256  1  0.73173341  0.12281312  0.99306482  1
  O  O257  1  0.74323225  0.63451143  0.49954165  1
  O  O258  1  0.75593547  0.61748267  0.98359977  1
  O  O259  1  0.25518523  0.37114380  0.00675409  1
  O  O260  1  0.24402980  0.36439141  0.51124781  1
  O  O261  1  0.25679920  0.87024797  0.00288734  1
  O  O262  1  0.25349846  0.86861474  0.50802831  1
  O  O263  1  0.75864441  0.37453185  0.00531239  1
  O  O264  1  0.76015303  0.35705679  0.50997813  1
  O  O265  1  0.75951231  0.87310718  0.00120551  1
  O  O266  1  0.75821979  0.86776715  0.50703928  1
  O  O267  1  0.12641102  0.49891474  0.23843287  1
  O  O268  1  0.12742285  0.50033971  0.74395503  1
  O  O269  1  0.13701605  0.98768482  0.26070212  1
  O  O270  1  0.12871280  0.99286523  0.75320001  1
  O  O271  1  0.63117733  0.50119664  0.23467525  1
  O  O272  1  0.63578636  0.50610893  0.73840912  1
  O  O273  1  0.62906022  0.99924899  0.23682403  1
  O  O274  1  0.63557504  0.99236504  0.73973306  1
  O  O275  1  0.36878931  0.00732400  0.25743952  1
  O  O276  1  0.36849309  0.00732814  0.75798668  1
  O  O277  1  0.36712638  0.50982690  0.25151120  1
  O  O278  1  0.36833386  0.50851945  0.76703174  1
  O  O279  1  0.86764248  0.00126724  0.25614116  1
  O  O280  1  0.86196751  -0.00419361  0.74228057  1
  O  O281  1  0.85536789  0.49673246  0.24564398  1
  O  O282  1  0.87314944  0.50426124  0.75601491  1
  O  O283  1  0.12714674  0.37544289  0.36631119  1
  O  O284  1  0.12125843  0.36474214  0.87943340  1
  O  O285  1  0.11893653  0.86653073  0.36873485  1
  O  O286  1  0.13301515  0.86352970  0.86754892  1
  O  O287  1  0.61616392  0.34666128  0.42924370  1
  O  O288  1  0.61524703  0.37546610  0.87872559  1
  O  O289  1  0.61504719  0.89441124  0.38092369  1
  O  O290  1  0.61503600  0.86901788  0.87767297  1
  O  O291  1  0.38384553  0.11608027  0.13177195  1
  O  O292  1  0.38282873  0.12229632  0.63024502  1
  O  O293  1  0.38703212  0.61913108  0.14578175  1
  O  O294  1  0.38257125  0.63219814  0.63276869  1
  O  O295  1  0.87800753  0.12286271  0.10435756  1
  O  O296  1  0.87656141  0.13262841  0.62921382  1
  O  O297  1  0.88092313  0.63241003  0.12583559  1
  O  O298  1  0.86955419  0.62505245  0.63878310  1
  O  O299  1  0.24871648  0.26235829  0.11364536  1
  O  O300  1  0.25625168  0.25916546  0.61974583  1
  O  O301  1  0.24635645  0.75765891  0.11144068  1
  O  O302  1  0.25300924  0.75890515  0.62152131  1
  O  O303  1  0.74902483  0.25785810  0.11820822  1
  O  O304  1  0.76173350  0.24604122  0.62213545  1
  O  O305  1  0.75852640  0.74585263  0.13013187  1
  O  O306  1  0.75133026  0.76034788  0.62276400  1
  O  O307  1  0.24878984  0.23939423  0.38584985  1
  O  O308  1  0.24641761  0.25080984  0.88346774  1
  O  O309  1  0.24036276  0.75921433  0.38510449  1
  O  O310  1  0.24149960  0.74550334  0.88580051  1
  O  O311  1  0.74766241  0.24208285  0.38459959  1
  O  O312  1  0.74794286  0.24281042  0.87688654  1
  O  O313  1  0.75153857  0.75757432  0.38485403  1
  O  O314  1  0.74649143  0.73222607  0.87112181  1
  O  O315  1  0.01808977  0.11764495  -0.00150871  1
  O  O316  1  0.01070672  0.11580144  0.49294124  1
  O  O317  1  0.00447031  0.62177593  0.01078154  1
  O  O318  1  -0.00176900  0.61269371  0.50296268  1
  O  O319  1  0.50647676  0.12678287  0.00513064  1
  O  O320  1  0.50992943  0.12640631  0.50831760  1
  O  O321  1  0.47475420  0.60960829  0.02094381  1
  O  O322  1  0.51210233  0.63677949  0.50906329  1
  O  O323  1  0.46384954  0.33913455  0.54864439  1
  O  O324  1  0.49023264  0.38389360  1.00365977  1
  O  O325  1  0.49460717  0.87398153  0.50383989  1
  O  O326  1  0.48424183  0.87819871  0.99100316  1
  O  O327  1  0.99548452  0.38479314  0.50106072  1
  O  O328  1  0.99524966  0.37986507  0.99582478  1
  O  O329  1  0.99834003  0.87982738  0.48881093  1
  O  O330  1  0.98139673  0.87698413  1.00132190  1
  O  O331  1  0.52626866  0.49151957  0.36776790  1
  O  O332  1  0.49209189  0.50482058  0.88439454  1
  O  O333  1  0.49230524  1.00998501  0.37368591  1
  O  O334  1  0.49046517  0.98589174  0.86546182  1
  O  O335  1  1.00461128  0.49841192  0.39285462  1
  O  O336  1  0.99701689  0.49392875  0.88264591  1
  O  O337  1  0.99498719  0.99259636  0.38309601  1
  O  O338  1  1.02249811  0.99307551  0.90471819  1
  O  O339  1  0.01084874  -0.00542290  0.09716117  1
  O  O340  1  -0.00033024  -0.00779588  0.60982771  1
  O  O341  1  0.00549937  0.50671390  0.12168175  1
  O  O342  1  0.01125038  0.49306108  0.62481000  1
  O  O343  1  0.51041143  0.00971948  0.13031023  1
  O  O344  1  0.50822378  0.00476628  0.63022486  1
  O  O345  1  0.50592083  0.50437951  0.12192588  1
  O  O346  1  0.50944968  0.51516538  0.63146965  1
  O  O347  1  0.24799139  0.38228561  0.24544628  1
  O  O348  1  0.24442566  0.38427464  0.74811985  1
  O  O349  1  0.24494043  0.88092664  0.24502596  1
  O  O350  1  0.24039382  0.87802360  0.74632456  1
  O  O351  1  0.74559662  0.38440859  0.24045592  1
  O  O352  1  0.75994650  0.38865718  0.75097456  1
  O  O353  1  0.74309754  0.89016513  0.24813369  1
  O  O354  1  0.74987266  0.87949097  0.74264396  1
  O  O355  1  0.25401570  0.11951834  0.25639745  1
  O  O356  1  0.26167370  0.12363978  0.75445491  1
  O  O357  1  0.26702608  0.63840832  0.25055518  1
  O  O358  1  0.25592181  0.62062716  0.75772966  1
  O  O359  1  0.74045324  0.11344590  0.25818379  1
  O  O360  1  0.75056280  0.10534929  0.74789281  1
  O  O361  1  0.74653865  0.60827168  0.24988479  1
  O  O362  1  0.75937943  0.61364786  0.75717336  1
  O  O363  1  0.36445389  0.11500653  0.36976589  1
  O  O364  1  0.37238072  0.12050925  0.86744982  1
  O  O365  1  0.38626338  0.61628487  0.36311527  1
  O  O366  1  0.36978655  0.62101344  0.87499893  1
  O  O367  1  0.86417054  0.11725938  0.38052162  1
  O  O368  1  0.87893133  0.12078151  0.86940990  1
  O  O369  1  0.86572706  0.62615667  0.36804155  1
  O  O370  1  0.86902053  0.61772611  0.86665981  1
  O  O371  1  0.13630560  0.38458984  0.13203560  1
  O  O372  1  0.13292255  0.38559158  0.62978682  1
  O  O373  1  0.12980295  0.86884524  0.13764883  1
  O  O374  1  0.13172132  0.87830587  0.63551356  1
  O  O375  1  0.63559725  0.38367921  0.11460644  1
  O  O376  1  0.62673553  0.39084757  0.61524053  1
  O  O377  1  0.62230292  0.88747166  0.12173749  1
  O  O378  1  0.63249808  0.88117997  0.62335332  1
  O  O379  1  0.13089489  0.26638889  0.25377501  1
  O  O380  1  0.12285426  0.25132406  0.76061368  1
  O  O381  1  0.11863454  0.75682438  0.25612766  1
  O  O382  1  0.12019474  0.75439139  0.75850184  1
  O  O383  1  0.60804193  0.24473087  0.24872273  1
  O  O384  1  0.61325820  0.23823357  0.74773283  1
  O  O385  1  0.61068839  0.75531239  0.24823202  1
  O  O386  1  0.61392810  0.74962288  0.74908628  1
  O  O387  1  0.38010612  0.23274714  0.24830931  1
  O  O388  1  0.38325020  0.24337360  0.73577520  1
  O  O389  1  0.38505238  0.74149785  0.25827895  1
  O  O390  1  0.37917421  0.74622687  0.74407436  1
  O  O391  1  0.87182175  0.25400317  0.24767230  1
  O  O392  1  0.88776983  0.24591376  0.74289940  1
  O  O393  1  0.88020243  0.75008589  0.23749895  1
  O  O394  1  0.88563113  0.74005128  0.74757949  1
  O  O395  1  0.37765981  0.50314511  0.50985732  1
  O  O396  1  0.37675840  0.49053015  0.99108461  1
  O  O397  1  0.37272805  0.99255179  0.49097176  1
  O  O398  1  0.36645394  0.99532438  0.98482717  1
  O  O399  1  0.88885599  0.49127633  0.51396119  1
  O  O400  1  0.88214838  0.49141585  0.99507248  1
  O  O401  1  0.88145922  0.99385587  0.49094036  1
  O  O402  1  0.87617485  0.98002934  0.99691157  1
  O  O403  1  0.14684903  0.01944463  0.00323790  1
  O  O404  1  0.11683380  0.00654373  0.50080684  1
  O  O405  1  0.11908874  0.50764985  0.01060067  1
  O  O406  1  0.11151007  0.50442487  0.51432177  1
  O  O407  1  0.62319267  0.00847121  0.01024751  1
  O  O408  1  0.62001651  0.00128884  0.50115963  1
  O  O409  1  0.61086649  0.50158981  0.00685728  1
  O  O410  1  0.63082432  0.52158225  0.51034835  1
  O  O411  1  0.36196941  0.38470474  0.11585058  1
  O  O412  1  0.35524747  0.37261305  0.64105795  1
  O  O413  1  0.36629013  0.88480362  0.11345716  1
  O  O414  1  0.36799789  0.87016646  0.62181140  1
  O  O415  1  0.85889408  0.38077987  0.11408479  1
  O  O416  1  0.87442491  0.36015983  0.61770776  1
  O  O417  1  0.86641540  0.85564535  0.11742414  1
  O  O418  1  0.86912540  0.86959962  0.61663811  1
  O  O419  1  0.13898040  0.12428600  0.38635440  1
  O  O420  1  0.13551859  0.13801155  0.88469942  1
  O  O421  1  0.11748889  0.64072473  0.37721722  1
  O  O422  1  0.13262658  0.63143248  0.88466662  1
  O  O423  1  0.63458770  0.12836856  0.38376385  1
  O  O424  1  0.61755629  0.11767664  0.88508404  1
  O  O425  1  0.63032571  0.62853714  0.38951742  1
  O  O426  1  0.64000913  0.62236907  0.87201992  1
