# generated using pymatgen
data_V85Zn86O256
_symmetry_space_group_name_H-M   'P 1'
_cell_length_a   16.98628638
_cell_length_b   16.98514805
_cell_length_c   16.97452328
_cell_angle_alpha   89.97046277
_cell_angle_beta   89.99625437
_cell_angle_gamma   90.00527273
_symmetry_Int_Tables_number   1
_chemical_formula_structural   V85Zn86O256
_chemical_formula_sum   'V85 Zn86 O256'
_cell_volume   4897.39692349
_cell_formula_units_Z   1
loop_
 _symmetry_equiv_pos_site_id
 _symmetry_equiv_pos_as_xyz
  1  'x, y, z'
loop_
 _atom_site_type_symbol
 _atom_site_label
 _atom_site_symmetry_multiplicity
 _atom_site_fract_x
 _atom_site_fract_y
 _atom_site_fract_z
 _atom_site_occupancy
  V  V0  1  0.25361423  0.37460959  0.61943564  1
  V  V1  1  0.00646152  0.49839641  0.00252178  1
  V  V2  1  0.12578811  0.12304654  0.49600202  1
  V  V3  1  0.37770049  0.11834380  0.24858391  1
  V  V4  1  0.87280988  0.37718491  -0.00339962  1
  V  V5  1  0.50053431  0.12365816  0.12286361  1
  V  V6  1  0.00144883  0.37605972  0.87176853  1
  V  V7  1  0.12011410  0.12009211  0.00125324  1
  V  V8  1  0.25511379  0.74818017  0.00005818  1
  V  V9  1  0.12029050  0.74447818  0.87169814  1
  V  V10  1  0.74562568  0.50144471  0.25683127  1
  V  V11  1  0.63804676  0.12160884  -0.00829992  1
  V  V12  1  0.39033714  0.37676688  -0.00091044  1
  V  V13  1  0.24915685  -0.00395075  0.75066479  1
  V  V14  1  0.74699582  0.00236390  0.25458529  1
  V  V15  1  0.61393912  0.62681723  0.50207718  1
  V  V16  1  0.12356681  0.74707759  0.37350101  1
  V  V17  1  0.74803475  0.37886796  0.12739914  1
  V  V18  1  0.37326503  0.25267565  0.62189410  1
  V  V19  1  0.25602562  0.50388201  0.74757909  1
  V  V20  1  0.58156244  0.42695889  0.19954434  1
  V  V21  1  0.12797990  0.25282365  0.87605551  1
  V  V22  1  0.50212011  -0.00091464  -0.00275138  1
  V  V23  1  0.25541543  0.86976590  0.62445969  1
  V  V24  1  0.74431658  0.74322138  0.48975101  1
  V  V25  1  0.38235742  0.73584756  0.62959718  1
  V  V26  1  0.11935700  0.86889772  0.74662807  1
  V  V27  1  0.24783118  0.12360557  0.87704527  1
  V  V28  1  0.62180332  0.25874271  0.37462617  1
  V  V29  1  0.25601058  0.12491035  0.37262460  1
  V  V30  1  0.25484597  0.62142073  0.36591799  1
  V  V31  1  0.87832659  0.75128451  0.62573280  1
  V  V32  1  0.88149843  0.25173423  0.13153850  1
  V  V33  1  0.12927143  0.62070102  0.01173486  1
  V  V34  1  0.49917678  0.00033711  0.49233140  1
  V  V35  1  0.62278482  0.37757505  0.75764843  1
  V  V36  1  0.87115040  0.87714799  0.49934812  1
  V  V37  1  0.75395487  0.37982958  0.62326810  1
  V  V38  1  0.37887268  0.87554567  0.49559273  1
  V  V39  1  0.49827060  0.12754195  0.62215918  1
  V  V40  1  0.62536021  0.00027916  0.12912213  1
  V  V41  1  0.12919763  -0.00192940  0.61854793  1
  V  V42  1  0.62280450  0.85637482  0.25297270  1
  V  V43  1  0.38236874  0.49791185  0.87648373  1
  V  V44  1  0.00182649  0.62557251  0.62433573  1
  V  V45  1  0.75838973  0.87383361  0.12573774  1
  V  V46  1  0.07552922  0.44111323  0.18475961  1
  V  V47  1  0.87957850  0.63171307  0.75165460  1
  V  V48  1  -0.01285670  0.63319079  0.12913939  1
  V  V49  1  0.49132371  0.49642998  0.51225048  1
  V  V50  1  0.25551348  -0.00348197  0.25405601  1
  V  V51  1  0.74723580  0.12905551  0.37372718  1
  V  V52  1  0.12617411  0.87337391  0.25071976  1
  V  V53  1  0.39261409  0.73948634  0.13499944  1
  V  V54  1  0.50563853  0.86259955  0.37451095  1
  V  V55  1  0.25420382  0.74581927  0.49885711  1
  V  V56  1  0.37039073  0.12708157  0.74758252  1
  V  V57  1  0.25355574  0.25482342  0.49706015  1
  V  V58  1  0.87867407  0.50183498  0.87403524  1
  V  V59  1  0.25573857  0.62469711  0.87158438  1
  V  V60  1  -0.00116401  0.87197998  0.37507044  1
  V  V61  1  -0.00028075  0.48705478  0.50075106  1
  V  V62  1  0.50603317  0.87957330  0.85938660  1
  V  V63  1  0.63682000  0.76398721  0.86709882  1
  V  V64  1  0.75499898  0.26272090  0.49705602  1
  V  V65  1  0.87369608  0.00001225  0.37740166  1
  V  V66  1  0.25072001  0.25869401  0.00687636  1
  V  V67  1  0.25597030  0.87213934  0.12544481  1
  V  V68  1  0.76021561  0.75356025  0.00635426  1
  V  V69  1  0.38001465  0.87407318  -0.00216700  1
  V  V70  1  0.50698339  0.73123917  0.74838916  1
  V  V71  1  0.12123914  -0.00230714  0.12402552  1
  V  V72  1  0.88545474  0.13232438  0.25691904  1
  V  V73  1  0.50312510  0.24904696  0.24915250  1
  V  V74  1  0.86752449  0.49966715  0.38579973  1
  V  V75  1  0.00613653  0.88138720  0.88465791  1
  V  V76  1  0.25474283  0.48894914  0.23935692  1
  V  V77  1  0.49834958  0.25414945  0.76003446  1
  V  V78  1  0.12745054  0.37815906  0.74717734  1
  V  V79  1  0.74485551  0.87609679  0.63502765  1
  V  V80  1  0.11458682  0.25401531  0.36348861  1
  V  V81  1  0.75037510  0.50347362  0.75072514  1
  V  V82  1  0.62698899  0.12762024  0.49902173  1
  V  V83  1  0.49090739  0.37766985  0.38262812  1
  V  V84  1  0.62823743  0.00000190  0.63455024  1
  Zn  Zn85  1  0.37478294  -0.00212563  0.87343755  1
  Zn  Zn86  1  0.37566908  0.50156932  0.37468692  1
  Zn  Zn87  1  -0.00219907  0.37146914  0.36703975  1
  Zn  Zn88  1  -0.00188071  0.12257654  0.12525502  1
  Zn  Zn89  1  0.53760679  0.52763570  0.04177689  1
  Zn  Zn90  1  0.89119997  0.87527753  0.01915084  1
  Zn  Zn91  1  -0.01222107  0.75218687  0.24618525  1
  Zn  Zn92  1  0.61556106  0.64346211  -0.00708980  1
  Zn  Zn93  1  0.75562984  0.24715644  -0.00574288  1
  Zn  Zn94  1  0.12398610  0.62200109  0.49874413  1
  Zn  Zn95  1  -0.11796480  0.00621575  -0.08621508  1
  Zn  Zn96  1  0.81660793  0.08582979  0.79881185  1
  Zn  Zn97  1  0.61651362  0.50912610  0.63588250  1
  Zn  Zn98  1  0.00285163  -0.00353007  0.49932183  1
  Zn  Zn99  1  -0.02787770  0.11229096  0.65201485  1
  Zn  Zn100  1  0.85685418  0.63280552  0.25996447  1
  Zn  Zn101  1  0.75587654  0.63087881  0.87952566  1
  Zn  Zn102  1  0.63662953  0.24477281  0.87069614  1
  Zn  Zn103  1  0.12692636  0.50181726  0.62097390  1
  Zn  Zn104  1  -0.00442520  0.25075117  0.74265969  1
  Zn  Zn105  1  0.37151864  0.25185319  0.12680532  1
  Zn  Zn106  1  0.87915340  0.25263864  0.62424225  1
  Zn  Zn107  1  0.18691077  0.18630167  0.18712504  1
  Zn  Zn108  1  0.15739978  0.17354923  0.69961876  1
  Zn  Zn109  1  0.19151751  0.68791434  0.18850698  1
  Zn  Zn110  1  0.18923297  0.68658905  0.68636346  1
  Zn  Zn111  1  0.69098959  0.19100973  0.18496237  1
  Zn  Zn112  1  0.68550043  0.19591442  0.68417811  1
  Zn  Zn113  1  0.55879440  0.66327970  0.18011032  1
  Zn  Zn114  1  0.68813784  0.68875480  0.68542187  1
  Zn  Zn115  1  0.31160844  0.31077489  0.31023367  1
  Zn  Zn116  1  0.31229369  0.31487911  0.81393207  1
  Zn  Zn117  1  0.31764551  0.80922857  0.31429432  1
  Zn  Zn118  1  0.31860718  0.80799742  0.81079593  1
  Zn  Zn119  1  0.81270983  0.31947697  0.31387269  1
  Zn  Zn120  1  0.81281298  0.30201452  0.80738089  1
  Zn  Zn121  1  0.80878174  0.81084115  0.31045573  1
  Zn  Zn122  1  0.82256841  0.81994722  0.81303173  1
  Zn  Zn123  1  0.18285435  0.43656779  0.43363789  1
  Zn  Zn124  1  0.19026799  0.44095249  0.93769139  1
  Zn  Zn125  1  0.19402361  0.93363268  0.43359383  1
  Zn  Zn126  1  0.18770542  0.93561027  0.93721507  1
  Zn  Zn127  1  0.67668585  0.44530416  0.43917768  1
  Zn  Zn128  1  0.69104245  0.43612301  0.93583629  1
  Zn  Zn129  1  0.68668010  0.93598002  0.44114309  1
  Zn  Zn130  1  0.70173635  0.94497373  0.92841004  1
  Zn  Zn131  1  0.31074559  0.06081711  0.06380572  1
  Zn  Zn132  1  0.31243834  0.06136800  0.55960117  1
  Zn  Zn133  1  0.31854839  0.56190434  0.06211120  1
  Zn  Zn134  1  0.31086189  0.56295043  0.55892131  1
  Zn  Zn135  1  0.81633389  0.05869339  0.07035230  1
  Zn  Zn136  1  0.81394940  0.07001897  0.63055990  1
  Zn  Zn137  1  0.73533662  0.60069182  0.11144522  1
  Zn  Zn138  1  0.81244716  0.56370441  0.56408087  1
  Zn  Zn139  1  0.41383533  0.43435441  0.18652574  1
  Zn  Zn140  1  0.43473187  0.43568013  0.69234182  1
  Zn  Zn141  1  0.44124148  0.93196796  0.18811297  1
  Zn  Zn142  1  0.43636469  0.94012159  0.67937917  1
  Zn  Zn143  1  0.91382308  0.44798767  0.18712462  1
  Zn  Zn144  1  0.93598667  0.43851018  0.68568479  1
  Zn  Zn145  1  0.93776461  0.94143203  0.19347224  1
  Zn  Zn146  1  0.93966939  0.93655783  0.68937969  1
  Zn  Zn147  1  0.06529756  0.05997312  0.31553789  1
  Zn  Zn148  1  0.02162633  0.08080732  0.82556080  1
  Zn  Zn149  1  0.05767166  0.56546428  0.31818730  1
  Zn  Zn150  1  0.06554913  0.56331811  0.80977249  1
  Zn  Zn151  1  0.56092213  0.06084007  0.31553289  1
  Zn  Zn152  1  0.55964926  0.06589723  0.81090362  1
  Zn  Zn153  1  0.55984545  0.57456355  0.32936547  1
  Zn  Zn154  1  0.57990053  0.55416106  0.85044231  1
  Zn  Zn155  1  0.43483122  0.18780565  0.43540614  1
  Zn  Zn156  1  0.43517277  0.18479672  0.93780402  1
  Zn  Zn157  1  0.43869676  0.68466443  0.43214244  1
  Zn  Zn158  1  0.43888515  0.69098140  0.93233759  1
  Zn  Zn159  1  0.92373988  0.17213981  0.46841371  1
  Zn  Zn160  1  0.93501660  0.19404203  0.93561581  1
  Zn  Zn161  1  0.93443179  0.68428160  0.43858282  1
  Zn  Zn162  1  0.93987160  0.68985833  0.94255407  1
  Zn  Zn163  1  0.05947405  0.30563416  0.05942813  1
  Zn  Zn164  1  0.06694769  0.30714368  0.56180269  1
  Zn  Zn165  1  0.07091760  0.80476823  0.06383185  1
  Zn  Zn166  1  0.06237768  0.80945577  0.55911802  1
  Zn  Zn167  1  0.56154635  0.30276229  0.05667685  1
  Zn  Zn168  1  0.56578051  0.31844454  0.56913901  1
  Zn  Zn169  1  0.56896433  0.81653278  0.05777728  1
  Zn  Zn170  1  0.56462208  0.81072857  0.56717399  1
  O  O171  1  0.12617533  0.11497098  0.11923880  1
  O  O172  1  0.14512665  0.10873326  0.60682777  1
  O  O173  1  0.12189206  0.63146020  0.11366275  1
  O  O174  1  0.11569273  0.62526923  0.62236301  1
  O  O175  1  0.62034842  0.11745769  0.11817314  1
  O  O176  1  0.61568614  0.12152754  0.61307515  1
  O  O177  1  0.62102035  0.61129218  0.10490197  1
  O  O178  1  0.63220273  0.62259852  0.61050500  1
  O  O179  1  0.38836887  0.37284346  0.37191673  1
  O  O180  1  0.36750267  0.38329533  0.88854966  1
  O  O181  1  0.38459618  0.86953838  0.38780103  1
  O  O182  1  0.38422703  0.87561051  0.88210884  1
  O  O183  1  0.88227451  0.39327212  0.36776921  1
  O  O184  1  0.88454218  0.37850323  0.87904831  1
  O  O185  1  0.87790781  0.87903722  0.38103541  1
  O  O186  1  0.90226287  0.87746322  0.87107282  1
  O  O187  1  0.24940037  0.00679237  0.36125590  1
  O  O188  1  0.25049269  0.00518451  0.86635915  1
  O  O189  1  0.24778373  0.51006590  0.36994038  1
  O  O190  1  0.25516183  0.50731176  0.86726012  1
  O  O191  1  0.75279057  0.00741132  0.37338241  1
  O  O192  1  0.77624496  0.00345012  0.87246252  1
  O  O193  1  0.75858371  0.49276832  0.37257965  1
  O  O194  1  0.76304555  0.50322739  0.86396944  1
  O  O195  1  0.25362792  0.50573181  0.14041595  1
  O  O196  1  0.24960846  0.49411447  0.63008255  1
  O  O197  1  0.24509512  0.99304407  0.13618673  1
  O  O198  1  0.24775235  0.98911765  0.62841259  1
  O  O199  1  0.75012432  0.48416654  0.13274400  1
  O  O200  1  0.74991120  0.49833149  0.63807149  1
  O  O201  1  0.74111656  0.99271491  0.13449306  1
  O  O202  1  0.74032514  0.98274228  0.61108218  1
  O  O203  1  0.00627535  0.39207001  0.24140525  1
  O  O204  1  0.01021449  0.37918161  0.75561241  1
  O  O205  1  0.00765041  0.87174237  0.25775057  1
  O  O206  1  0.01620522  0.87651396  0.75599655  1
  O  O207  1  0.50204658  0.36844272  0.25393158  1
  O  O208  1  0.50798060  0.36491224  0.74510173  1
  O  O209  1  0.51445029  0.87931027  0.25914560  1
  O  O210  1  0.49534688  0.88137872  0.75907398  1
  O  O211  1  0.49312227  0.12820428  0.24667437  1
  O  O212  1  0.49089762  0.13229174  0.74187770  1
  O  O213  1  0.49877538  0.63644460  0.26678770  1
  O  O214  1  0.51009972  0.63539108  0.75846047  1
  O  O215  1  0.98720367  0.11948829  0.25269121  1
  O  O216  1  1.04623190  0.13956731  0.73599432  1
  O  O217  1  1.00535047  0.62595408  0.23439788  1
  O  O218  1  0.99331140  0.61848029  0.73595419  1
  O  O219  1  0.36639835  0.25878609  -0.00328877  1
  O  O220  1  0.36115475  0.24406515  0.50381758  1
  O  O221  1  0.37398808  0.76141765  0.00364256  1
  O  O222  1  0.37328651  0.75455614  0.50759635  1
  O  O223  1  0.87732268  0.26202565  0.00732634  1
  O  O224  1  0.85536514  0.26491065  0.48592612  1
  O  O225  1  0.86530111  0.76200996  -0.00480927  1
  O  O226  1  0.86542201  0.75699357  0.50530073  1
  O  O227  1  0.13807336  0.23941296  0.49122888  1
  O  O228  1  0.13627338  0.24311112  0.99582914  1
  O  O229  1  0.13475978  0.75120912  0.48760697  1
  O  O230  1  0.13667318  0.74048826  0.99117206  1
  O  O231  1  0.62324099  0.24519992  0.49206605  1
  O  O232  1  0.62667188  0.23130639  0.99735587  1
  O  O233  1  0.63408886  0.74021581  0.50671811  1
  O  O234  1  0.64140557  0.76103801  0.98698702  1
  O  O235  1  0.49812499  0.24158831  0.13345517  1
  O  O236  1  0.49202211  0.24542344  0.62844566  1
  O  O237  1  0.49613385  0.75367899  0.12145294  1
  O  O238  1  0.49706427  0.75190875  0.63971249  1
  O  O239  1  0.98561154  0.24692873  0.12479143  1
  O  O240  1  0.99947932  0.24533719  0.62370953  1
  O  O241  1  0.99968068  0.73759522  0.12425750  1
  O  O242  1  0.98615451  0.74353580  0.61799336  1
  O  O243  1  0.01447776  0.24771734  0.38052087  1
  O  O244  1  0.00992093  0.26483086  0.87357333  1
  O  O245  1  0.00913046  0.75373081  0.37659030  1
  O  O246  1  0.01668580  0.75424263  0.87831909  1
  O  O247  1  0.50321517  0.25497269  0.36900413  1
  O  O248  1  0.50230923  0.24083471  0.86141876  1
  O  O249  1  0.50489801  0.76383535  0.38530552  1
  O  O250  1  0.50964705  0.76137952  0.86144288  1
  O  O251  1  0.24792102  0.12828142  0.48753372  1
  O  O252  1  0.24678273  0.13127367  0.99262062  1
  O  O253  1  0.24528073  0.62991706  0.48902754  1
  O  O254  1  0.24449272  0.62669364  0.99390728  1
  O  O255  1  0.73373887  0.14126600  0.49081656  1
  O  O256  1  0.73913572  0.12287181  1.01035484  1
  O  O257  1  0.74949960  0.64104331  0.50735370  1
  O  O258  1  0.75491241  0.64631600  1.00178796  1
  O  O259  1  0.24895269  0.35978280  -0.00525447  1
  O  O260  1  0.24409229  0.36663024  0.50641102  1
  O  O261  1  0.26045238  0.86965218  0.00323709  1
  O  O262  1  0.26121467  0.86667965  0.50183912  1
  O  O263  1  0.75926267  0.37556192  0.00598917  1
  O  O264  1  0.73347598  0.37237184  0.50969025  1
  O  O265  1  0.75386840  0.87360111  0.01247401  1
  O  O266  1  0.75514999  0.86430458  0.50609670  1
  O  O267  1  0.13189253  0.49885755  0.24993257  1
  O  O268  1  0.13539503  0.49111877  0.74811295  1
  O  O269  1  0.13593474  0.99346305  0.24553303  1
  O  O270  1  0.14063675  0.98713710  0.73725439  1
  O  O271  1  0.62796238  0.49294023  0.26620253  1
  O  O272  1  0.63436637  0.49698281  0.75647376  1
  O  O273  1  0.62916092  1.00365540  0.24030874  1
  O  O274  1  0.61640303  1.00531228  0.73288314  1
  O  O275  1  0.37090079  0.00926265  0.24371126  1
  O  O276  1  0.36303039  0.00657785  0.74631832  1
  O  O277  1  0.35939490  0.50116967  0.25743221  1
  O  O278  1  0.36049461  0.49451024  0.75698051  1
  O  O279  1  0.86629527  0.00934469  0.25869728  1
  O  O280  1  0.89611207  0.03546395  0.71277905  1
  O  O281  1  0.86216113  0.50949377  0.26404499  1
  O  O282  1  0.87125127  0.51116679  0.75409389  1
  O  O283  1  0.12063891  0.35827533  0.37530961  1
  O  O284  1  0.11974959  0.37534350  0.86856718  1
  O  O285  1  0.12086435  0.86734733  0.37041545  1
  O  O286  1  0.12340911  0.86527337  0.86754207  1
  O  O287  1  0.61109554  0.36340772  0.37944361  1
  O  O288  1  0.63069606  0.36816634  0.86048408  1
  O  O289  1  0.62128587  0.87844024  0.36086636  1
  O  O290  1  0.61982199  0.87345855  0.87585340  1
  O  O291  1  0.38233458  0.12579655  0.13132302  1
  O  O292  1  0.37739601  0.13115147  0.62926604  1
  O  O293  1  0.37657256  0.64202160  0.11893865  1
  O  O294  1  0.37053469  0.63753420  0.62337616  1
  O  O295  1  0.87534286  0.13477098  0.13873619  1
  O  O296  1  0.88656841  0.13964192  0.57797007  1
  O  O297  1  0.89013170  0.61865119  0.12670745  1
  O  O298  1  0.88066673  0.63309966  0.63161694  1
  O  O299  1  0.25273339  0.24121512  0.10983968  1
  O  O300  1  0.25314899  0.25746909  0.61507007  1
  O  O301  1  0.25732614  0.75558143  0.11775894  1
  O  O302  1  0.25940516  0.75376957  0.62073859  1
  O  O303  1  0.76020632  0.26147286  0.12176867  1
  O  O304  1  0.74758736  0.26368761  0.61100216  1
  O  O305  1  0.74560959  0.76047536  0.10861264  1
  O  O306  1  0.75927668  0.76130749  0.61983980  1
  O  O307  1  0.24587295  0.24302203  0.37925797  1
  O  O308  1  0.24642110  0.24169850  0.88289661  1
  O  O309  1  0.24505001  0.73961638  0.37586030  1
  O  O310  1  0.24668335  0.74233162  0.87957725  1
  O  O311  1  0.73735360  0.25139149  0.37637186  1
  O  O312  1  0.75089955  0.24531380  0.88036580  1
  O  O313  1  0.74795438  0.75400991  0.39212706  1
  O  O314  1  0.75022835  0.76195679  0.88195181  1
  O  O315  1  0.01816118  0.13366636  0.00342900  1
  O  O316  1  0.02279683  0.11583030  0.48749455  1
  O  O317  1  0.00648699  0.61882775  0.01170876  1
  O  O318  1  -0.00068620  0.61807543  0.51202234  1
  O  O319  1  0.50609625  0.11720616  0.00419503  1
  O  O320  1  0.50552905  0.11933552  0.49985236  1
  O  O321  1  0.50172459  0.62138088  -0.01178679  1
  O  O322  1  0.50651755  0.61598204  0.49850058  1
  O  O323  1  0.50227172  0.38755756  0.49750883  1
  O  O324  1  0.48987356  0.37066221  0.99735595  1
  O  O325  1  0.49875529  0.88116040  0.49608924  1
  O  O326  1  0.49609270  0.88113957  0.99002584  1
  O  O327  1  1.00489926  0.38545599  0.50060005  1
  O  O328  1  0.99742660  0.37891865  0.99118029  1
  O  O329  1  0.99080109  0.87253437  0.49201976  1
  O  O330  1  1.00911899  0.86621537  0.98823327  1
  O  O331  1  0.49841102  0.49080826  0.38918061  1
  O  O332  1  0.47877016  0.50210937  0.85828282  1
  O  O333  1  0.50467515  0.99109702  0.38784337  1
  O  O334  1  0.49674082  0.99590818  0.87973442  1
  O  O335  1  0.99271031  0.49724192  0.38518774  1
  O  O336  1  0.99877977  0.49197265  0.87816195  1
  O  O337  1  0.99366504  0.98945648  0.37587812  1
  O  O338  1  1.01764036  0.98178246  0.88091652  1
  O  O339  1  0.01850145  0.00036771  0.13570139  1
  O  O340  1  0.02226830  -0.00418520  0.61787934  1
  O  O341  1  0.00751987  0.50243977  0.12553440  1
  O  O342  1  0.00056658  0.50658516  0.61680522  1
  O  O343  1  0.50955615  0.00178792  0.11875769  1
  O  O344  1  0.50731099  0.00610955  0.61250122  1
  O  O345  1  0.50934225  0.47949082  0.13974918  1
  O  O346  1  0.49638286  0.49619989  0.61608632  1
  O  O347  1  0.25134506  0.38869431  0.25120547  1
  O  O348  1  0.24481970  0.38277940  0.74339857  1
  O  O349  1  0.24904578  0.88098468  0.24828754  1
  O  O350  1  0.24884158  0.87941835  0.74599339  1
  O  O351  1  0.74895934  0.38519510  0.24144544  1
  O  O352  1  0.74417705  0.38454504  0.74398436  1
  O  O353  1  0.73673829  0.88080153  0.24724733  1
  O  O354  1  0.76011684  0.87580509  0.73291653  1
  O  O355  1  0.25894662  0.11759624  0.25276138  1
  O  O356  1  0.24791714  0.11667286  0.75840300  1
  O  O357  1  0.24280569  0.61632437  0.26255300  1
  O  O358  1  0.24337573  0.61524733  0.75895906  1
  O  O359  1  0.75530887  0.12208648  0.25731985  1
  O  O360  1  0.75041754  0.11502804  0.71585430  1
  O  O361  1  0.74439116  0.60294713  0.23108493  1
  O  O362  1  0.76091735  0.61983630  0.75069886  1
  O  O363  1  0.36410513  0.12717131  0.36491672  1
  O  O364  1  0.36180427  0.12221064  0.86900497  1
  O  O365  1  0.35707563  0.62540818  0.37819347  1
  O  O366  1  0.36005362  0.61889399  0.88046065  1
  O  O367  1  0.86748061  0.12101310  0.37454189  1
  O  O368  1  0.91252145  0.10916324  0.86646397  1
  O  O369  1  0.87779985  0.60622623  0.37660228  1
  O  O370  1  0.87902405  0.62267655  0.86809401  1
  O  O371  1  0.12243806  0.37651817  0.12591602  1
  O  O372  1  0.13676110  0.37633621  0.63220614  1
  O  O373  1  0.13509433  0.87820942  0.13003026  1
  O  O374  1  0.13378000  0.87385003  0.62960917  1
  O  O375  1  0.63098665  0.36638275  0.12648272  1
  O  O376  1  0.63380038  0.38288564  0.63923518  1
  O  O377  1  0.63053224  0.88323009  0.13605291  1
  O  O378  1  0.63766307  0.88248541  0.62196777  1
  O  O379  1  0.12690558  0.24247680  0.26455872  1
  O  O380  1  0.13426232  0.26905916  0.75997944  1
  O  O381  1  0.12615256  0.75631980  0.26058718  1
  O  O382  1  0.13463665  0.75848080  0.75900573  1
  O  O383  1  0.61103947  0.24185893  0.25795437  1
  O  O384  1  0.61437885  0.25750941  0.74882106  1
  O  O385  1  0.62801333  0.76068870  0.24408614  1
  O  O386  1  0.61608558  0.75523746  0.75193577  1
  O  O387  1  0.38492999  0.23933891  0.24854098  1
  O  O388  1  0.37894548  0.24585476  0.74514165  1
  O  O389  1  0.37497413  0.75560498  0.23197734  1
  O  O390  1  0.39367425  0.75151674  0.74327064  1
  O  O391  1  0.86919510  0.24334077  0.24521038  1
  O  O392  1  0.88130092  0.24702046  0.74064419  1
  O  O393  1  0.87578758  0.74173934  0.25851963  1
  O  O394  1  0.87375210  0.73953887  0.74196361  1
  O  O395  1  0.38815084  0.50469159  0.49659771  1
  O  O396  1  0.37212087  0.48530048  0.99409857  1
  O  O397  1  0.38576477  0.98864640  0.50585517  1
  O  O398  1  0.37933645  0.98808495  1.00017678  1
  O  O399  1  0.87993067  0.50058910  0.49259816  1
  O  O400  1  0.88723954  0.48522702  0.99211019  1
  O  O401  1  0.87697497  0.98339281  0.49431928  1
  O  O402  1  0.88938397  0.98954796  1.02383411  1
  O  O403  1  0.13720522  0.00830092  0.01178037  1
  O  O404  1  0.13297268  0.00243521  0.50291802  1
  O  O405  1  0.11959086  0.50984279  -0.00422429  1
  O  O406  1  0.11442795  0.50252555  0.50094552  1
  O  O407  1  0.62479428  0.00700332  0.00846634  1
  O  O408  1  0.61909368  0.01073098  0.50375567  1
  O  O409  1  0.61702848  0.51525608  -0.04149694  1
  O  O410  1  0.60971056  0.50850466  0.50989391  1
  O  O411  1  0.37188433  0.36825586  0.10461521  1
  O  O412  1  0.36074905  0.36861974  0.62947756  1
  O  O413  1  0.37413245  0.86820191  0.11643154  1
  O  O414  1  0.37318410  0.86645521  0.61385305  1
  O  O415  1  0.86843916  0.37038963  0.11687264  1
  O  O416  1  0.85791541  0.37783860  0.62702133  1
  O  O417  1  0.86072574  0.87495383  0.13946427  1
  O  O418  1  0.87092999  0.86875364  0.61787422  1
  O  O419  1  0.13882936  0.12946532  0.37679397  1
  O  O420  1  0.13421392  0.12904512  0.88373531  1
  O  O421  1  0.13189150  0.63343733  0.37661868  1
  O  O422  1  0.13226605  0.62996982  0.88122261  1
  O  O423  1  0.62544624  0.13538884  0.38079488  1
  O  O424  1  0.62443832  0.11962366  0.88908097  1
  O  O425  1  0.63698963  0.61545459  0.40428689  1
  O  O426  1  0.63878742  0.65287729  0.87189408  1
