# generated using pymatgen
data_V85Zn86O256
_symmetry_space_group_name_H-M   'P 1'
_cell_length_a   16.94296617
_cell_length_b   16.94531258
_cell_length_c   16.95457432
_cell_angle_alpha   89.93459081
_cell_angle_beta   90.09501732
_cell_angle_gamma   89.99116752
_symmetry_Int_Tables_number   1
_chemical_formula_structural   V85Zn86O256
_chemical_formula_sum   'V85 Zn86 O256'
_cell_volume   4867.71377015
_cell_formula_units_Z   1
loop_
 _symmetry_equiv_pos_site_id
 _symmetry_equiv_pos_as_xyz
  1  'x, y, z'
loop_
 _atom_site_type_symbol
 _atom_site_label
 _atom_site_symmetry_multiplicity
 _atom_site_fract_x
 _atom_site_fract_y
 _atom_site_fract_z
 _atom_site_occupancy
  V  V0  1  0.23993564  0.49191909  0.24788668  1
  V  V1  1  0.75198530  0.37622711  0.62611742  1
  V  V2  1  0.74559754  0.63305510  0.87294359  1
  V  V3  1  0.24248105  0.24970652  0.49645495  1
  V  V4  1  0.62254647  0.00527958  0.12319093  1
  V  V5  1  0.12527618  0.12966520  0.00536958  1
  V  V6  1  0.88411372  0.25021002  0.62551927  1
  V  V7  1  0.76225634  0.12380959  0.37164722  1
  V  V8  1  0.00364955  0.37596759  0.88273444  1
  V  V9  1  0.38160463  0.62571334  0.75730972  1
  V  V10  1  0.62461893  0.24983109  0.37635500  1
  V  V11  1  0.24710412  0.74994531  0.50519366  1
  V  V12  1  0.37503706  0.50092220  0.37254722  1
  V  V13  1  0.87235668  -0.00528759  0.87426160  1
  V  V14  1  0.24888588  0.61803342  0.87353056  1
  V  V15  1  0.62674848  0.12142934  0.50302057  1
  V  V16  1  0.12007637  0.48886273  0.10882305  1
  V  V17  1  0.61337233  0.87953169  0.25123043  1
  V  V18  1  0.12267468  0.38185448  0.74751350  1
  V  V19  1  0.62303830  0.12959126  0.00005141  1
  V  V20  1  0.24412685  0.88896044  0.63075792  1
  V  V21  1  0.74918411  0.13123842  0.87823494  1
  V  V22  1  0.75593867  0.50653298  0.24755925  1
  V  V23  1  0.74799076  0.87413174  0.12564203  1
  V  V24  1  0.49907463  0.63190184  0.62644307  1
  V  V25  1  0.50070236  0.50114465  0.49988366  1
  V  V26  1  0.50531852  -0.00616472  0.49651999  1
  V  V27  1  0.61893449  0.38043804  0.75276157  1
  V  V28  1  0.87354206  0.86982397  -0.00305746  1
  V  V29  1  0.49140371  0.49918835  -0.01625995  1
  V  V30  1  0.49871745  0.24206087  0.23818003  1
  V  V31  1  0.01486868  0.37606054  0.37063321  1
  V  V32  1  0.62214501  0.50123902  0.12330049  1
  V  V33  1  0.74851750  0.36890355  0.11810574  1
  V  V34  1  0.62772819  0.62402130  0.49487686  1
  V  V35  1  0.50831601  0.86130388  0.86697617  1
  V  V36  1  0.24519959  0.87220037  0.12560738  1
  V  V37  1  0.24631552  0.38224267  0.62509151  1
  V  V38  1  0.50147733  0.37428082  0.37548169  1
  V  V39  1  0.75592161  0.75081173  0.49660941  1
  V  V40  1  0.62483117  0.50079576  0.62458009  1
  V  V41  1  0.76022684  0.00481045  0.25157549  1
  V  V42  1  0.24838269  0.12917330  0.37223769  1
  V  V43  1  0.75046079  0.50041086  0.75182826  1
  V  V44  1  0.88017544  0.50267085  0.37093369  1
  V  V45  1  0.37577601  0.37369561  0.49987588  1
  V  V46  1  0.26364948  0.36337947  0.12431000  1
  V  V47  1  0.62607180  0.37661166  0.24941793  1
  V  V48  1  0.00308306  0.24526831  0.25817041  1
  V  V49  1  0.37404586  0.87408886  -0.00568666  1
  V  V50  1  0.87310620  0.36438285  -0.00076766  1
  V  V51  1  0.87798679  0.74475028  0.14143342  1
  V  V52  1  0.50248286  0.11824409  0.62521204  1
  V  V53  1  0.73584745  -0.00023491  0.74593706  1
  V  V54  1  0.12007366  0.75760037  0.87365659  1
  V  V55  1  0.62315110  0.63243155  -0.00342799  1
  V  V56  1  -0.00269871  -0.00504967  0.00262324  1
  V  V57  1  0.62094730  0.75563068  0.37355183  1
  V  V58  1  0.75128531  0.25189245  0.50024363  1
  V  V59  1  0.37612716  0.87315373  0.49834823  1
  V  V60  1  0.36801152  0.62492744  0.25099492  1
  V  V61  1  0.49653867  0.75487007  0.25292362  1
  V  V62  1  -0.01096538  0.12545837  0.12963592  1
  V  V63  1  0.24589830  -0.00130398  0.25050996  1
  V  V64  1  0.49934449  0.25128393  0.75313639  1
  V  V65  1  0.00132756  0.75870460  0.74907884  1
  V  V66  1  0.37645628  0.25287596  0.62313909  1
  V  V67  1  0.25220707  0.12016782  0.86730491  1
  V  V68  1  0.12267918  0.61367032  0.50533464  1
  V  V69  1  0.87951098  0.62524229  0.74976261  1
  V  V70  1  0.00469167  0.61327259  0.62468127  1
  V  V71  1  0.12260380  0.11573727  0.49657182  1
  V  V72  1  0.88019056  0.50351412  0.88714656  1
  V  V73  1  0.37056452  0.75267979  0.12949991  1
  V  V74  1  0.49985256  0.00019657  -0.00654015  1
  V  V75  1  0.05862016  0.06387082  0.67454815  1
  V  V76  1  0.87122480  0.12346178  0.74513585  1
  V  V77  1  0.24481605  0.74511554  0.00050301  1
  V  V78  1  0.74430660  0.87945653  0.62114826  1
  V  V79  1  0.37770540  -0.00131393  0.37373761  1
  V  V80  1  0.62577315  0.25661938  0.87741040  1
  V  V81  1  0.88261865  0.38221052  0.49835786  1
  V  V82  1  0.11699643  0.75056390  0.37576444  1
  V  V83  1  0.49769551  0.62482044  0.12719616  1
  V  V84  1  -0.00756526  0.88449898  0.37116409  1
  Zn  Zn85  1  0.87896695  0.74969371  0.61936883  1
  Zn  Zn86  1  0.24675806  0.62462839  0.37622215  1
  Zn  Zn87  1  0.25392952  0.49806214  0.75220117  1
  Zn  Zn88  1  0.36729912  -0.00953667  0.86130708  1
  Zn  Zn89  1  0.12050298  -0.00233429  0.12653403  1
  Zn  Zn90  1  0.12011635  0.86851436  0.24833210  1
  Zn  Zn91  1  0.36884216  0.12053641  0.74452723  1
  Zn  Zn92  1  0.12531111  0.88337072  0.74820754  1
  Zn  Zn93  1  -0.00989126  0.00808912  0.49674038  1
  Zn  Zn94  1  0.26895385  0.24172343  0.00438158  1
  Zn  Zn95  1  -0.01079515  0.61437336  0.12844399  1
  Zn  Zn96  1  0.74525113  0.75242539  -0.00226938  1
  Zn  Zn97  1  0.36929347  0.13704004  0.22950815  1
  Zn  Zn98  1  0.76037701  0.62925436  0.36825590  1
  Zn  Zn99  1  0.11010325  0.61772956  -0.00415273  1
  Zn  Zn100  1  0.38254206  0.36727417  -0.01615193  1
  Zn  Zn101  1  0.12710251  0.25118290  0.87662052  1
  Zn  Zn102  1  0.00292667  0.24939473  0.75167666  1
  Zn  Zn103  1  0.87339914  0.88762876  0.49663344  1
  Zn  Zn104  1  0.62308379  0.85985360  0.74606866  1
  Zn  Zn105  1  0.86919872  0.24629573  0.13116160  1
  Zn  Zn106  1  0.37790956  0.75328592  0.62933041  1
  Zn  Zn107  1  0.17945454  0.18780835  0.18882030  1
  Zn  Zn108  1  0.18870903  0.19908038  0.68951247  1
  Zn  Zn109  1  0.15028171  0.66269424  0.20283892  1
  Zn  Zn110  1  0.18903041  0.68881787  0.68800937  1
  Zn  Zn111  1  0.68443202  0.18698883  0.18834358  1
  Zn  Zn112  1  0.68820185  0.19038800  0.68667309  1
  Zn  Zn113  1  0.68815136  0.68978574  0.18574628  1
  Zn  Zn114  1  0.69263820  0.68810864  0.68062719  1
  Zn  Zn115  1  0.31386142  0.31219340  0.31075002  1
  Zn  Zn116  1  0.30896451  0.30567951  0.81488311  1
  Zn  Zn117  1  0.30618451  0.81319203  0.31730912  1
  Zn  Zn118  1  0.31108261  0.80692813  0.81008221  1
  Zn  Zn119  1  0.81646912  0.31430151  0.30922556  1
  Zn  Zn120  1  0.81376798  0.31292127  0.81293084  1
  Zn  Zn121  1  0.80706294  0.81871850  0.31242659  1
  Zn  Zn122  1  0.80964240  0.81140231  0.80799783  1
  Zn  Zn123  1  0.19124906  0.43858497  0.43757135  1
  Zn  Zn124  1  0.19560033  0.42938918  0.93886155  1
  Zn  Zn125  1  0.18601449  0.93617066  0.43938849  1
  Zn  Zn126  1  0.18448974  0.93795312  0.93736401  1
  Zn  Zn127  1  0.69393367  0.43878297  0.43503210  1
  Zn  Zn128  1  0.68647820  0.44414977  0.93770109  1
  Zn  Zn129  1  0.68995755  0.93931470  0.43379541  1
  Zn  Zn130  1  0.68698881  0.93856213  0.93465683  1
  Zn  Zn131  1  0.31152821  0.06079426  0.06027051  1
  Zn  Zn132  1  0.31527632  0.06371857  0.56011173  1
  Zn  Zn133  1  0.30766914  0.56067768  0.06595640  1
  Zn  Zn134  1  0.31514153  0.56395005  0.56398502  1
  Zn  Zn135  1  0.80804172  0.06179452  0.06076307  1
  Zn  Zn136  1  0.81361648  0.06199697  0.56229154  1
  Zn  Zn137  1  0.81097757  0.56397574  0.06159189  1
  Zn  Zn138  1  0.81549517  0.56358281  0.56124225  1
  Zn  Zn139  1  0.43771448  0.43546085  0.18877674  1
  Zn  Zn140  1  0.43697626  0.44451959  0.80814009  1
  Zn  Zn141  1  0.42146131  0.96958927  0.16904932  1
  Zn  Zn142  1  0.43592357  0.93744296  0.68562745  1
  Zn  Zn143  1  0.93862585  0.42951460  0.19021884  1
  Zn  Zn144  1  0.93869732  0.43815458  0.69298768  1
  Zn  Zn145  1  0.93784727  0.93136640  0.18837213  1
  Zn  Zn146  1  0.92521216  0.93194643  0.68613489  1
  Zn  Zn147  1  0.06390764  0.06526753  0.31179838  1
  Zn  Zn148  1  0.06120053  0.06060459  0.83525215  1
  Zn  Zn149  1  0.05693966  0.56257715  0.30974869  1
  Zn  Zn150  1  0.06428236  0.56227489  0.81426566  1
  Zn  Zn151  1  0.56568893  0.06336485  0.31541450  1
  Zn  Zn152  1  0.55604374  0.06200823  0.81454330  1
  Zn  Zn153  1  0.56260844  0.56512666  0.31075836  1
  Zn  Zn154  1  0.56356404  0.68401282  0.81205370  1
  Zn  Zn155  1  0.43585493  0.18382583  0.43427900  1
  Zn  Zn156  1  0.43682012  0.18766713  0.93707170  1
  Zn  Zn157  1  0.43698787  0.68963780  0.43695351  1
  Zn  Zn158  1  0.43207530  0.68527265  0.94245533  1
  Zn  Zn159  1  0.94078866  0.19176765  0.43997498  1
  Zn  Zn160  1  0.93879230  0.18794358  0.93805479  1
  Zn  Zn161  1  0.94287037  0.68552191  0.43644617  1
  Zn  Zn162  1  0.94140127  0.68722720  0.94156963  1
  Zn  Zn163  1  0.06252691  0.31184706  0.06870573  1
  Zn  Zn164  1  0.06436929  0.31399595  0.55970276  1
  Zn  Zn165  1  0.05818498  0.80863705  0.06188000  1
  Zn  Zn166  1  0.06033184  0.81473286  0.56117705  1
  Zn  Zn167  1  0.55780313  0.31545522  0.05804871  1
  Zn  Zn168  1  0.56248721  0.31253739  0.56495645  1
  Zn  Zn169  1  0.55858834  0.81468898  0.06411141  1
  Zn  Zn170  1  0.56640301  0.81290929  0.56066720  1
  O  O171  1  0.11205417  0.11939901  0.12014784  1
  O  O172  1  0.12372235  0.12479246  0.62209366  1
  O  O173  1  0.14583474  0.59620354  0.10989218  1
  O  O174  1  0.12036820  0.62815742  0.61385078  1
  O  O175  1  0.62901449  0.11685095  0.11383705  1
  O  O176  1  0.61849289  0.13357670  0.61115893  1
  O  O177  1  0.61982780  0.61845208  0.11992839  1
  O  O178  1  0.62325785  0.62139612  0.61076650  1
  O  O179  1  0.38262827  0.38008947  0.38055619  1
  O  O180  1  0.37120971  0.37904225  0.86990602  1
  O  O181  1  0.36870737  0.88122621  0.39064528  1
  O  O182  1  0.38217616  0.87052320  0.87993200  1
  O  O183  1  0.88004008  0.38376473  0.38265272  1
  O  O184  1  0.87928544  0.38221889  0.88141601  1
  O  O185  1  0.88941962  0.86902230  0.37472071  1
  O  O186  1  0.86366716  0.88393999  0.88304601  1
  O  O187  1  0.25497917  0.00521572  0.36990399  1
  O  O188  1  0.24873849  0.01427848  0.87965727  1
  O  O189  1  0.25897796  0.49840554  0.36642363  1
  O  O190  1  0.24535055  0.51483496  0.87824198  1
  O  O191  1  0.74406057  0.01163431  0.36325594  1
  O  O192  1  0.75627298  0.01006075  0.86894309  1
  O  O193  1  0.76001555  0.50113606  0.36412081  1
  O  O194  1  0.75737966  0.51075513  0.86945441  1
  O  O195  1  0.24696548  0.48509714  0.13106106  1
  O  O196  1  0.25644239  0.48414413  0.62320820  1
  O  O197  1  0.24418332  0.98910359  0.13301340  1
  O  O198  1  0.25408058  0.98748319  0.62040526  1
  O  O199  1  0.73947999  0.49513700  0.12884014  1
  O  O200  1  0.74604653  0.49572176  0.62976855  1
  O  O201  1  0.73915522  0.99401440  0.12882562  1
  O  O202  1  0.75170719  0.99342711  0.63488257  1
  O  O203  1  0.00174840  0.36611162  0.26434112  1
  O  O204  1  0.00543275  0.37476366  0.76159883  1
  O  O205  1  0.00392646  0.87584172  0.26443735  1
  O  O206  1  -0.00061150  0.86223392  0.74361363  1
  O  O207  1  0.50705122  0.36696904  0.25713858  1
  O  O208  1  0.51239807  0.36963893  0.75028934  1
  O  O209  1  0.51049009  0.87265219  0.24124876  1
  O  O210  1  0.50213865  0.87504115  0.76373773  1
  O  O211  1  0.50369888  0.14053235  0.25570502  1
  O  O212  1  0.50693559  0.13423538  0.73801308  1
  O  O213  1  0.49179133  0.63342453  0.24505146  1
  O  O214  1  0.49037559  0.62510355  0.74234157  1
  O  O215  1  0.99915155  0.13360444  0.24498113  1
  O  O216  1  0.99761897  0.11959859  0.74321248  1
  O  O217  1  1.03826967  0.63474133  0.22864323  1
  O  O218  1  0.99527993  0.63039546  0.74453321  1
  O  O219  1  0.38315418  0.25369421  0.00529284  1
  O  O220  1  0.36967379  0.25336019  0.50396798  1
  O  O221  1  0.36749387  0.75892486  0.00697904  1
  O  O222  1  0.36823089  0.75743548  0.50117791  1
  O  O223  1  0.87226446  0.26146260  0.00119140  1
  O  O224  1  0.86969749  0.25881722  0.50776249  1
  O  O225  1  0.87123559  0.76336882  0.00150123  1
  O  O226  1  0.86267579  0.74774912  0.49390956  1
  O  O227  1  0.13887081  0.24042988  0.50635608  1
  O  O228  1  0.12211088  0.23532639  1.00249704  1
  O  O229  1  0.13099772  0.74491315  0.49381153  1
  O  O230  1  0.13110137  0.74950067  0.99302795  1
  O  O231  1  0.63065963  0.24656908  0.49388802  1
  O  O232  1  0.61673458  0.24415962  0.98760990  1
  O  O233  1  0.63360169  0.74456013  0.49080642  1
  O  O234  1  0.62396938  0.73653251  1.00857830  1
  O  O235  1  0.51044431  0.25178945  0.14033053  1
  O  O236  1  0.49524276  0.24437592  0.63203190  1
  O  O237  1  0.49033833  0.74571502  0.13184423  1
  O  O238  1  0.50088050  0.73609286  0.61526764  1
  O  O239  1  0.99515134  0.24198823  0.13339562  1
  O  O240  1  0.98713272  0.25554033  0.62749718  1
  O  O241  1  0.97840159  0.75922548  0.12743411  1
  O  O242  1  0.99879493  0.74158430  0.63279455  1
  O  O243  1  -0.00273263  0.26055283  0.36600503  1
  O  O244  1  0.00109136  0.25916550  0.87214016  1
  O  O245  1  0.01294423  0.75717773  0.37873253  1
  O  O246  1  0.00930686  0.74455577  0.86441569  1
  O  O247  1  0.51194996  0.25412899  0.37482129  1
  O  O248  1  0.51065709  0.24187298  0.85911256  1
  O  O249  1  0.51265315  0.74762756  0.36946206  1
  O  O250  1  0.49882286  0.75756384  0.87942637  1
  O  O251  1  0.24633001  0.13097904  0.49267551  1
  O  O252  1  0.24086324  0.12377936  0.99784339  1
  O  O253  1  0.24079021  0.63173023  0.50189758  1
  O  O254  1  0.25559760  0.63697012  0.99267191  1
  O  O255  1  0.74219449  0.13280322  0.49511809  1
  O  O256  1  0.73734830  0.12099718  0.98908166  1
  O  O257  1  0.74354162  0.63166016  0.49543243  1
  O  O258  1  0.74006766  0.62481524  0.99119175  1
  O  O259  1  0.25807866  0.36828710  0.01254035  1
  O  O260  1  0.25437090  0.36677914  0.50434985  1
  O  O261  1  0.25480260  0.86707724  0.00321399  1
  O  O262  1  0.25597782  0.86956368  0.50880698  1
  O  O263  1  0.75594900  0.38174654  0.00842433  1
  O  O264  1  0.75806057  0.36982272  0.50580455  1
  O  O265  1  0.75334733  0.87544406  0.00797591  1
  O  O266  1  0.74976660  0.86819418  0.50229166  1
  O  O267  1  0.13876878  0.49532250  0.24749819  1
  O  O268  1  0.13022217  0.48661787  0.75474646  1
  O  O269  1  0.13710438  0.99609710  0.25075168  1
  O  O270  1  0.10943060  1.00581091  0.74260360  1
  O  O271  1  0.62914127  0.49495248  0.24251744  1
  O  O272  1  0.63368659  0.49087803  0.74214883  1
  O  O273  1  0.62566533  0.99608709  0.24040245  1
  O  O274  1  0.63477500  0.99802395  0.75634112  1
  O  O275  1  0.36221982  -0.01287332  0.26718196  1
  O  O276  1  0.38560369  0.01006832  0.75185360  1
  O  O277  1  0.37097150  0.50628985  0.25508343  1
  O  O278  1  0.37195897  0.51953201  0.74760897  1
  O  O279  1  0.85864754  -0.00432613  0.24237083  1
  O  O280  1  0.86704972  0.00614482  0.75720107  1
  O  O281  1  0.86720082  0.49403247  0.25610406  1
  O  O282  1  0.87051764  0.51009343  0.75858591  1
  O  O283  1  0.11292409  0.37563725  0.38263842  1
  O  O284  1  0.11826218  0.37315345  0.87135777  1
  O  O285  1  0.11745451  0.86429954  0.37771323  1
  O  O286  1  0.13067199  0.86323887  0.86803206  1
  O  O287  1  0.62214376  0.36888858  0.37150777  1
  O  O288  1  0.63385152  0.36600449  0.86733404  1
  O  O289  1  0.62769816  0.86766759  0.36390781  1
  O  O290  1  0.61109516  0.87268475  0.87590225  1
  O  O291  1  0.38864885  0.07798100  0.13740086  1
  O  O292  1  0.38471585  0.13648576  0.62022484  1
  O  O293  1  0.37669788  0.63100611  0.13395424  1
  O  O294  1  0.38498464  0.62692759  0.63145934  1
  O  O295  1  0.88488957  0.12629412  0.11608687  1
  O  O296  1  0.86698363  0.13504305  0.63772191  1
  O  O297  1  0.86918696  0.64025797  0.12472821  1
  O  O298  1  0.88209704  0.62673957  0.63330310  1
  O  O299  1  0.24779540  0.25977729  0.12857207  1
  O  O300  1  0.25972931  0.25463434  0.61618038  1
  O  O301  1  0.25304582  0.75633764  0.11649893  1
  O  O302  1  0.25158796  0.75642721  0.61447411  1
  O  O303  1  0.74829090  0.26482230  0.13176714  1
  O  O304  1  0.75998844  0.25802848  0.62179181  1
  O  O305  1  0.75616860  0.75921840  0.12186831  1
  O  O306  1  0.75429376  0.75564593  0.61056776  1
  O  O307  1  0.25774988  0.24153860  0.38316246  1
  O  O308  1  0.24630080  0.23476641  0.88291143  1
  O  O309  1  0.24212912  0.74931780  0.39123023  1
  O  O310  1  0.24245272  0.74213979  0.88226218  1
  O  O311  1  0.73963140  0.24846502  0.37688738  1
  O  O312  1  0.74148366  0.23894505  0.86778180  1
  O  O313  1  0.73929153  0.74803505  0.37746045  1
  O  O314  1  0.75561370  0.73646276  0.87750027  1
  O  O315  1  0.00339290  0.11540423  0.00609848  1
  O  O316  1  0.01430659  0.12691248  0.49538810  1
  O  O317  1  -0.00101335  0.62781132  0.01502669  1
  O  O318  1  0.01399146  0.62820446  0.50938823  1
  O  O319  1  0.51322045  0.11228650  -0.01182569  1
  O  O320  1  0.50745315  0.11868730  0.50452610  1
  O  O321  1  0.50416122  0.61785053  0.00717574  1
  O  O322  1  0.50790275  0.62079314  0.50230082  1
  O  O323  1  0.49687430  0.38081788  0.49542937  1
  O  O324  1  0.50147187  0.39531601  1.00064335  1
  O  O325  1  0.49396540  0.88641802  0.50602044  1
  O  O326  1  0.49224521  0.87582981  0.98957202  1
  O  O327  1  0.99184863  0.36705974  0.48634647  1
  O  O328  1  0.99120557  0.37063228  0.99028076  1
  O  O329  1  0.99741010  0.87823209  0.48729277  1
  O  O330  1  0.98939298  0.88670673  1.00567673  1
  O  O331  1  0.49555352  0.49547256  0.37896453  1
  O  O332  1  0.50063876  0.50727855  0.88544454  1
  O  O333  1  0.49074797  1.00613413  0.38390808  1
  O  O334  1  0.50057883  0.98628437  0.88420241  1
  O  O335  1  0.99529930  0.48628213  0.36799521  1
  O  O336  1  0.98926150  0.49204102  0.87082133  1
  O  O337  1  1.00611288  0.98727802  0.37504862  1
  O  O338  1  0.98075996  1.00223672  0.88639937  1
  O  O339  1  -0.00182118  0.00501559  0.12021121  1
  O  O340  1  -0.00263381  0.00125911  0.62275752  1
  O  O341  1  0.01846683  0.49063977  0.13098985  1
  O  O342  1  -0.00304562  0.51357619  0.62986856  1
  O  O343  1  0.51750003  -0.01577181  0.10583299  1
  O  O344  1  0.49788018  0.01252396  0.61371145  1
  O  O345  1  0.51111376  0.50609343  0.12789946  1
  O  O346  1  0.51221669  0.51488235  0.61349281  1
  O  O347  1  0.25795189  0.38047090  0.23855878  1
  O  O348  1  0.24274573  0.37353318  0.74023307  1
  O  O349  1  0.24742849  0.88041861  0.24134768  1
  O  O350  1  0.25004913  0.87269935  0.73475458  1
  O  O351  1  0.74342038  0.38577218  0.24251021  1
  O  O352  1  0.74469312  0.38001206  0.74484748  1
  O  O353  1  0.73821809  0.88396479  0.24254573  1
  O  O354  1  0.74815389  0.88377883  0.74184738  1
  O  O355  1  0.25144245  0.11868448  0.25455841  1
  O  O356  1  0.24690360  0.12944309  0.76375143  1
  O  O357  1  0.25320321  0.61317565  0.25266804  1
  O  O358  1  0.25650939  0.62231260  0.75695093  1
  O  O359  1  0.74263669  0.11724007  0.25906934  1
  O  O360  1  0.75467126  0.11920808  0.75502069  1
  O  O361  1  0.74204157  0.61053580  0.25038090  1
  O  O362  1  0.75981131  0.62011530  0.75454992  1
  O  O363  1  0.36414520  0.11476421  0.37267554  1
  O  O364  1  0.36061009  0.12174031  0.87447991  1
  O  O365  1  0.37210384  0.62037362  0.36765053  1
  O  O366  1  0.36751161  0.63101763  0.86461287  1
  O  O367  1  0.86033084  0.13719030  0.37856942  1
  O  O368  1  0.86731186  0.12159004  0.86616526  1
  O  O369  1  0.87948326  0.60831162  0.37959870  1
  O  O370  1  0.87089147  0.61886535  0.86986211  1
  O  O371  1  0.13961898  0.38273307  0.11962831  1
  O  O372  1  0.13428037  0.37020666  0.63168027  1
  O  O373  1  0.13369579  0.87319112  0.12550680  1
  O  O374  1  0.13953816  0.87451218  0.62592439  1
  O  O375  1  0.63014512  0.38364215  0.12651637  1
  O  O376  1  0.63058254  0.37968764  0.63248886  1
  O  O377  1  0.63395282  0.87910786  0.12937875  1
  O  O378  1  0.63854773  0.87219509  0.62575176  1
  O  O379  1  0.10383690  0.25028819  0.24685003  1
  O  O380  1  0.12087538  0.26345028  0.75401478  1
  O  O381  1  0.14213314  0.75330140  0.27414398  1
  O  O382  1  0.11701161  0.75096555  0.75630636  1
  O  O383  1  0.61842930  0.25594160  0.25912817  1
  O  O384  1  0.62032386  0.25928300  0.75457814  1
  O  O385  1  0.62022694  0.75817107  0.25515855  1
  O  O386  1  0.63183529  0.74675130  0.75120928  1
  O  O387  1  0.39310057  0.24872783  0.25353231  1
  O  O388  1  0.38382006  0.24431804  0.74048398  1
  O  O389  1  0.37536616  0.74654368  0.24888749  1
  O  O390  1  0.36974649  0.73286144  0.74411884  1
  O  O391  1  0.89117667  0.25861131  0.24515155  1
  O  O392  1  0.87756743  0.24122410  0.74433649  1
  O  O393  1  0.86563045  0.75131466  0.23964731  1
  O  O394  1  0.88188488  0.73825599  0.75071076  1
  O  O395  1  0.38043236  0.49496932  0.49294409  1
  O  O396  1  0.39054872  0.50463527  1.00432452  1
  O  O397  1  0.38239301  0.99440140  0.49145517  1
  O  O398  1  0.38238624  0.98588360  0.99264607  1
  O  O399  1  0.87005527  0.48784672  0.49254993  1
  O  O400  1  0.86947306  0.49274582  0.98983200  1
  O  O401  1  0.87581382  1.00211423  0.49562121  1
  O  O402  1  0.87542363  0.99060505  0.99443820  1
  O  O403  1  0.11206954  0.00640540  -0.00014578  1
  O  O404  1  0.12474534  0.01275940  0.50131105  1
  O  O405  1  0.12390028  0.49278589  0.00590977  1
  O  O406  1  0.13046631  0.51540777  0.49780272  1
  O  O407  1  0.62057346  0.00671424  0.00317358  1
  O  O408  1  0.61712082  0.00935342  0.49321962  1
  O  O409  1  0.61548847  0.51046524  0.00673042  1
  O  O410  1  0.62390679  0.50758335  0.50071369  1
  O  O411  1  0.36520368  0.37721527  0.12291118  1
  O  O412  1  0.36889989  0.36078886  0.61594388  1
  O  O413  1  0.36300666  0.87411500  0.11598889  1
  O  O414  1  0.36800441  0.87307898  0.61455792  1
  O  O415  1  0.86595682  0.37728561  0.11454676  1
  O  O416  1  0.87269892  0.37144904  0.61920979  1
  O  O417  1  0.86234538  0.86931387  0.11954852  1
  O  O418  1  0.86037217  0.86816051  0.61879403  1
  O  O419  1  0.13954049  0.12215641  0.38160678  1
  O  O420  1  0.13429496  0.12744290  0.88634626  1
  O  O421  1  0.12401289  0.63413397  0.38877437  1
  O  O422  1  0.13187994  0.63434995  0.87810677  1
  O  O423  1  0.63025237  0.13430441  0.38604306  1
  O  O424  1  0.63183796  0.13325206  0.87856683  1
  O  O425  1  0.62639609  0.63106912  0.38400892  1
  O  O426  1  0.63329760  0.62280359  0.88411715  1
