# generated using pymatgen
data_V85Zn86O256
_symmetry_space_group_name_H-M   'P 1'
_cell_length_a   16.92526601
_cell_length_b   16.92408548
_cell_length_c   16.92791018
_cell_angle_alpha   90.10658262
_cell_angle_beta   90.05983807
_cell_angle_gamma   90.03855971
_symmetry_Int_Tables_number   1
_chemical_formula_structural   V85Zn86O256
_chemical_formula_sum   'V85 Zn86 O256'
_cell_volume   4848.89714575
_cell_formula_units_Z   1
loop_
 _symmetry_equiv_pos_site_id
 _symmetry_equiv_pos_as_xyz
  1  'x, y, z'
loop_
 _atom_site_type_symbol
 _atom_site_label
 _atom_site_symmetry_multiplicity
 _atom_site_fract_x
 _atom_site_fract_y
 _atom_site_fract_z
 _atom_site_occupancy
  V  V0  1  0.87723042  0.38996912  -0.00275513  1
  V  V1  1  0.87313065  0.62109606  0.76543947  1
  V  V2  1  0.88020471  -0.00401143  0.88908157  1
  V  V3  1  0.00444464  0.86890115  0.37946666  1
  V  V4  1  0.75080014  0.50064740  0.25007698  1
  V  V5  1  0.00460431  0.75758720  0.75252356  1
  V  V6  1  0.24307633  0.74785624  0.48339372  1
  V  V7  1  0.37416765  0.12294481  0.25298284  1
  V  V8  1  0.50590965  0.75904033  0.24987038  1
  V  V9  1  0.63542637  0.25226456  0.37994931  1
  V  V10  1  0.86948599  0.86881686  0.50039203  1
  V  V11  1  -0.00106006  0.00250689  0.50468749  1
  V  V12  1  0.36804339  0.50026405  0.86942395  1
  V  V13  1  0.37262557  0.12166657  0.74892776  1
  V  V14  1  0.00356676  0.12773602  0.12608804  1
  V  V15  1  -0.00024240  0.24406740  0.75005505  1
  V  V16  1  0.62455011  0.75446002  0.37841298  1
  V  V17  1  0.62513899  0.50124905  0.12290428  1
  V  V18  1  0.36941094  0.62211095  0.74669062  1
  V  V19  1  0.24215469  0.87129234  0.62454364  1
  V  V20  1  0.62615688  0.00315911  0.11333521  1
  V  V21  1  0.49842943  0.24842945  0.74841420  1
  V  V22  1  0.12173153  0.12973319  0.49982735  1
  V  V23  1  0.37688047  0.50940694  0.37895690  1
  V  V24  1  0.88159127  0.49483277  0.38369780  1
  V  V25  1  0.06636739  -0.04947653  0.06848583  1
  V  V26  1  0.24378838  0.12943847  0.37456487  1
  V  V27  1  0.75149415  0.62826226  0.37943983  1
  V  V28  1  0.24983802  0.12340122  0.87539933  1
  V  V29  1  0.12743275  0.38016013  0.75187647  1
  V  V30  1  0.11929455  0.12631316  0.00052794  1
  V  V31  1  0.63603351  0.12894184  0.50383017  1
  V  V32  1  0.75220159  0.50338057  0.75880984  1
  V  V33  1  0.86933690  0.12350430  0.25027981  1
  V  V34  1  0.00053645  0.61629652  0.12198464  1
  V  V35  1  0.87325125  0.24215796  0.62092575  1
  V  V36  1  0.37702924  0.87551299  0.49111093  1
  V  V37  1  0.86960206  0.74542827  0.62325892  1
  V  V38  1  0.50106344  0.87557250  0.89410985  1
  V  V39  1  0.87220423  0.75324869  0.11947691  1
  V  V40  1  0.12715498  0.61897720  -0.00362634  1
  V  V41  1  0.50068358  0.38179176  0.37844669  1
  V  V42  1  0.50116710  0.24972400  0.25075766  1
  V  V43  1  0.12365989  0.49984309  0.62138218  1
  V  V44  1  0.37848067  -0.00499272  0.88856568  1
  V  V45  1  0.75164958  0.36969414  0.61990695  1
  V  V46  1  -0.00296635  0.61824682  0.62322982  1
  V  V47  1  0.62567602  0.37642513  0.74783915  1
  V  V48  1  0.49875766  0.12231831  0.62028054  1
  V  V49  1  0.62745986  0.62910028  0.50135683  1
  V  V50  1  0.37585020  0.37580691  -0.00076133  1
  V  V51  1  0.37725640  0.63109799  0.24885281  1
  V  V52  1  0.26056746  0.74923744  -0.00140965  1
  V  V53  1  0.26578671  0.88102926  0.11960525  1
  V  V54  1  0.50137771  0.37404550  0.87294710  1
  V  V55  1  0.50180446  0.50250233  -0.00184182  1
  V  V56  1  0.12094159  0.00277867  0.62897628  1
  V  V57  1  0.50075973  0.76233357  0.74666004  1
  V  V58  1  0.62450130  -0.00514823  0.62928066  1
  V  V59  1  0.37549620  0.25070774  0.12636256  1
  V  V60  1  0.62406292  0.49918765  0.61851406  1
  V  V61  1  0.25030761  0.50881678  0.25270735  1
  V  V62  1  0.62362084  0.12963427  -0.00986198  1
  V  V63  1  0.49859736  0.62134552  0.62050620  1
  V  V64  1  0.24969405  0.24994383  0.00027604  1
  V  V65  1  0.87360580  0.25199213  0.12016218  1
  V  V66  1  0.74671077  0.87171186  0.62935912  1
  V  V67  1  0.24819080  0.37782085  0.12757683  1
  V  V68  1  0.62452086  0.37628232  0.24892086  1
  V  V69  1  0.12392833  0.88085447  0.25396051  1
  V  V70  1  0.63587410  0.62526841  -0.00971306  1
  V  V71  1  0.87284616  0.12340860  0.75622401  1
  V  V72  1  0.25146456  0.38043057  0.62920708  1
  V  V73  1  0.00414663  0.74704478  0.25284802  1
  V  V74  1  0.00480969  0.25714991  0.26066570  1
  V  V75  1  0.37123136  0.24930529  0.62077867  1
  V  V76  1  -0.00346460  0.38810168  0.87704150  1
  V  V77  1  0.24589019  -0.00757728  0.75140921  1
  V  V78  1  0.63182227  0.75150376  0.86862773  1
  V  V79  1  0.37745030  0.37823000  0.49925824  1
  V  V80  1  0.74805017  -0.00002759  0.75965910  1
  V  V81  1  0.12298707  0.62655374  0.48966228  1
  V  V82  1  0.63580957  0.88931830  0.25697118  1
  V  V83  1  0.37141737  0.74930880  0.62176115  1
  V  V84  1  0.86761827  -0.00145289  0.37408285  1
  Zn  Zn85  1  0.12277294  0.49862067  0.12408344  1
  Zn  Zn86  1  0.63104102  0.24449117  0.86830865  1
  Zn  Zn87  1  0.00388413  0.87977542  0.88486169  1
  Zn  Zn88  1  0.13047880  0.37386802  0.25967148  1
  Zn  Zn89  1  0.38644973  0.75554648  0.11928146  1
  Zn  Zn90  1  0.87603338  0.36976410  0.50169079  1
  Zn  Zn91  1  0.87754697  0.62401232  0.25100783  1
  Zn  Zn92  1  0.37649057  -0.00070220  0.37305148  1
  Zn  Zn93  1  0.49720390  0.11839946  0.12180120  1
  Zn  Zn94  1  0.12318527  0.25101005  0.87480631  1
  Zn  Zn95  1  0.24847422  0.62561114  0.86961339  1
  Zn  Zn96  1  0.75069390  0.12483008  0.37580641  1
  Zn  Zn97  1  0.13187992  0.75654109  0.87028891  1
  Zn  Zn98  1  0.02227258  0.37838900  0.39878629  1
  Zn  Zn99  1  0.50437938  -0.00761755  0.49362861  1
  Zn  Zn100  1  0.75829530  0.24609941  -0.01823130  1
  Zn  Zn101  1  0.50461744  0.63103579  0.12231727  1
  Zn  Zn102  1  0.75872759  0.75509304  -0.01188845  1
  Zn  Zn103  1  0.24247428  0.00330567  0.24698471  1
  Zn  Zn104  1  0.75745387  0.88639070  0.12232715  1
  Zn  Zn105  1  0.75014861  0.37399180  0.11957844  1
  Zn  Zn106  1  0.23948640  0.25757480  0.49314948  1
  Zn  Zn107  1  0.18543955  0.18793132  0.18711932  1
  Zn  Zn108  1  0.18580056  0.18863426  0.68573976  1
  Zn  Zn109  1  0.18880459  0.69185768  0.18559021  1
  Zn  Zn110  1  0.18620807  0.68655839  0.68296622  1
  Zn  Zn111  1  0.68870610  0.18525987  0.18442940  1
  Zn  Zn112  1  0.68984699  0.18555168  0.69354317  1
  Zn  Zn113  1  0.68686034  0.68556491  0.18919997  1
  Zn  Zn114  1  0.68863351  0.68722904  0.69127207  1
  Zn  Zn115  1  0.30986025  0.31271018  0.31485240  1
  Zn  Zn116  1  0.31133973  0.31022194  0.81153462  1
  Zn  Zn117  1  0.30878593  0.81128543  0.30708935  1
  Zn  Zn118  1  0.31665803  0.81290718  0.81239049  1
  Zn  Zn119  1  0.81511538  0.31393101  0.30793918  1
  Zn  Zn120  1  0.81424451  0.31608973  0.81033805  1
  Zn  Zn121  1  0.81319193  0.80869339  0.31009033  1
  Zn  Zn122  1  0.81937931  0.81755189  0.81093735  1
  Zn  Zn123  1  0.19239885  0.44418692  0.43736052  1
  Zn  Zn124  1  0.18657855  0.43804821  0.93743011  1
  Zn  Zn125  1  0.18943180  0.94228197  0.43571832  1
  Zn  Zn126  1  0.19083709  0.92915376  0.93178555  1
  Zn  Zn127  1  0.69052897  0.44014081  0.43970551  1
  Zn  Zn128  1  0.69046098  0.43186070  0.93740806  1
  Zn  Zn129  1  0.68798410  0.93755098  0.44367483  1
  Zn  Zn130  1  0.68694140  0.93168111  0.93881229  1
  Zn  Zn131  1  0.30943100  0.06314949  0.06595081  1
  Zn  Zn132  1  0.30683584  0.06059649  0.56004416  1
  Zn  Zn133  1  0.31537423  0.56551939  0.06436809  1
  Zn  Zn134  1  0.30676415  0.56232486  0.55929801  1
  Zn  Zn135  1  0.80477322  0.06715516  0.06483792  1
  Zn  Zn136  1  0.81397712  0.06037937  0.56837497  1
  Zn  Zn137  1  0.81166398  0.56744855  0.06354028  1
  Zn  Zn138  1  0.80804816  0.56095995  0.56467204  1
  Zn  Zn139  1  0.43731465  0.44085257  0.18795003  1
  Zn  Zn140  1  0.43859819  0.43990658  0.68624253  1
  Zn  Zn141  1  0.44640854  0.93944129  0.19381916  1
  Zn  Zn142  1  0.42987746  0.93825885  0.68229490  1
  Zn  Zn143  1  0.93466831  0.43660065  0.18997774  1
  Zn  Zn144  1  0.93762530  0.43569693  0.68771415  1
  Zn  Zn145  1  0.93169142  0.93405208  0.19489303  1
  Zn  Zn146  1  0.93313445  0.93919955  0.68760464  1
  Zn  Zn147  1  0.05690244  0.06058267  0.31508303  1
  Zn  Zn148  1  0.06037161  0.06085249  0.81460835  1
  Zn  Zn149  1  0.06274410  0.55771255  0.30920479  1
  Zn  Zn150  1  0.06471954  0.56570842  0.80844990  1
  Zn  Zn151  1  0.55834203  0.06360535  0.31973718  1
  Zn  Zn152  1  0.55936782  0.05534269  0.81042118  1
  Zn  Zn153  1  0.56095155  0.56644107  0.31197152  1
  Zn  Zn154  1  0.55953067  0.56525836  0.80766532  1
  Zn  Zn155  1  0.43883755  0.18863628  0.43641444  1
  Zn  Zn156  1  0.44057626  0.18430251  0.93793589  1
  Zn  Zn157  1  0.44118744  0.69176154  0.43687455  1
  Zn  Zn158  1  0.44206667  0.68667835  0.93408083  1
  Zn  Zn159  1  0.93801870  0.18587531  0.43867492  1
  Zn  Zn160  1  0.93739320  0.18820939  0.93318607  1
  Zn  Zn161  1  0.93855627  0.68493871  0.43903974  1
  Zn  Zn162  1  0.94203026  0.68630809  0.93872799  1
  Zn  Zn163  1  0.06049159  0.31323517  0.06228584  1
  Zn  Zn164  1  0.05591135  0.31201228  0.56757810  1
  Zn  Zn165  1  0.06725804  0.78723168  0.06356882  1
  Zn  Zn166  1  0.05991965  0.80930089  0.56559967  1
  Zn  Zn167  1  0.56453986  0.30987909  0.06155705  1
  Zn  Zn168  1  0.56046719  0.31195634  0.56133133  1
  Zn  Zn169  1  0.58025877  0.81380608  0.06443609  1
  Zn  Zn170  1  0.56217553  0.80967271  0.56237020  1
  O  O171  1  0.11194192  0.12571425  0.12028289  1
  O  O172  1  0.13114738  0.10964070  0.61799904  1
  O  O173  1  0.11768764  0.62673350  0.11801148  1
  O  O174  1  0.11632105  0.61608185  0.62286456  1
  O  O175  1  0.62176595  0.11684881  0.12029552  1
  O  O176  1  0.61765546  0.12041978  0.62090159  1
  O  O177  1  0.62503371  0.61742515  0.11518290  1
  O  O178  1  0.62030597  0.62044389  0.61964994  1
  O  O179  1  0.38134327  0.38234667  0.38139832  1
  O  O180  1  0.38386358  0.38038600  0.87586421  1
  O  O181  1  0.36627684  0.87397232  0.38821690  1
  O  O182  1  0.38931681  0.88169487  0.87296114  1
  O  O183  1  0.86702638  0.38905415  0.37881052  1
  O  O184  1  0.88884222  0.37610061  0.88003907  1
  O  O185  1  0.87860019  0.87790344  0.38254472  1
  O  O186  1  0.88287696  0.88907168  0.87625712  1
  O  O187  1  0.25543231  0.01244959  0.36940701  1
  O  O188  1  0.25752800  0.00184653  0.86799074  1
  O  O189  1  0.26365942  0.50099809  0.36146147  1
  O  O190  1  0.26482404  0.50013153  0.87695619  1
  O  O191  1  0.76418777  0.00144885  0.38340705  1
  O  O192  1  0.75588930  -0.01086513  0.86387413  1
  O  O193  1  0.75402543  0.50946579  0.36958017  1
  O  O194  1  0.74243559  0.49619296  0.85797403  1
  O  O195  1  0.25468140  0.49320714  0.13526104  1
  O  O196  1  0.24341875  0.48817009  0.62450873  1
  O  O197  1  0.25039477  0.98544348  0.12724676  1
  O  O198  1  0.24299620  0.99179430  0.63219591  1
  O  O199  1  0.74395859  0.50010440  0.13392713  1
  O  O200  1  0.74143073  0.49378811  0.63300019  1
  O  O201  1  0.73335302  1.00347793  0.12998033  1
  O  O202  1  0.74288134  0.99152267  0.63273613  1
  O  O203  1  0.00143108  0.36245132  0.24945968  1
  O  O204  1  0.00584982  0.36975108  0.75945839  1
  O  O205  1  0.00491647  0.86899613  0.26002198  1
  O  O206  1  -0.00636741  0.85797430  0.74401282  1
  O  O207  1  0.50423341  0.37063653  0.25806571  1
  O  O208  1  0.50382307  0.37077290  0.75518624  1
  O  O209  1  0.51523631  0.86589581  0.25289273  1
  O  O210  1  0.49410040  0.86382466  0.74377309  1
  O  O211  1  0.49264527  0.13589031  0.25058618  1
  O  O212  1  0.49439719  0.12607872  0.73818385  1
  O  O213  1  0.49678033  0.63844186  0.24774575  1
  O  O214  1  0.49010409  0.63290224  0.73765104  1
  O  O215  1  0.99309842  0.13409360  0.24498239  1
  O  O216  1  0.99239021  0.13376063  0.75495585  1
  O  O217  1  1.00210417  0.63250698  0.24430555  1
  O  O218  1  0.98836396  0.63013256  0.74314409  1
  O  O219  1  0.37089867  0.25593836  0.00507623  1
  O  O220  1  0.37347119  0.25987645  0.50505179  1
  O  O221  1  0.36611819  0.74149759  0.00247223  1
  O  O222  1  0.36572820  0.75638665  0.50227904  1
  O  O223  1  0.87668290  0.25496921  0.00651817  1
  O  O224  1  0.87642041  0.24296217  0.51694731  1
  O  O225  1  0.87557747  0.74558643  0.01433017  1
  O  O226  1  0.87973478  0.75758203  0.50956971  1
  O  O227  1  0.12104503  0.23320870  0.51179986  1
  O  O228  1  0.13156741  0.24281524  0.99958063  1
  O  O229  1  0.12972664  0.73724236  0.50526903  1
  O  O230  1  0.14188245  0.73714310  0.99710884  1
  O  O231  1  0.61972021  0.24252640  0.49133192  1
  O  O232  1  0.62676897  0.24098228  0.99503900  1
  O  O233  1  0.62443123  0.74260556  0.49202544  1
  O  O234  1  0.62103085  0.73861918  0.98616187  1
  O  O235  1  0.49486907  0.25440754  0.13890646  1
  O  O236  1  0.49192307  0.24277527  0.62915245  1
  O  O237  1  0.50542357  0.75204269  0.13393422  1
  O  O238  1  0.49293464  0.74292643  0.62958882  1
  O  O239  1  0.99154847  0.24413077  0.13181540  1
  O  O240  1  0.98819580  0.25349411  0.64216506  1
  O  O241  1  0.98993089  0.74050341  0.13331249  1
  O  O242  1  0.99000705  0.74121182  0.63433092  1
  O  O243  1  -0.00675058  0.25416588  0.36296337  1
  O  O244  1  0.00244823  0.25882127  0.86409878  1
  O  O245  1  -0.00505693  0.76053334  0.36934257  1
  O  O246  1  -0.00274698  0.75259152  0.86075360  1
  O  O247  1  0.50594961  0.26106768  0.36638453  1
  O  O248  1  0.49956716  0.25845210  0.86650428  1
  O  O249  1  0.51711795  0.74731722  0.36845775  1
  O  O250  1  0.50226340  0.76169678  0.86622637  1
  O  O251  1  0.23992130  0.12629405  0.49256976  1
  O  O252  1  0.23874632  0.12932996  0.99865648  1
  O  O253  1  0.23457965  0.63484881  0.50513556  1
  O  O254  1  0.24708159  0.63151692  0.99841717  1
  O  O255  1  0.73897880  0.12255629  0.50249688  1
  O  O256  1  0.73045127  0.13140540  1.00523558  1
  O  O257  1  0.73697476  0.62205486  0.49434681  1
  O  O258  1  0.73942214  0.63068383  0.99789276  1
  O  O259  1  0.25687446  0.37127885  0.00603273  1
  O  O260  1  0.26181588  0.37536088  0.50706786  1
  O  O261  1  0.25007942  0.86856614  0.01364211  1
  O  O262  1  0.25342866  0.86720393  0.50449406  1
  O  O263  1  0.76237963  0.37023360  0.00034989  1
  O  O264  1  0.75261476  0.37834153  0.51542936  1
  O  O265  1  0.72911414  0.86190877  0.01408955  1
  O  O266  1  0.76240116  0.87880906  0.51209932  1
  O  O267  1  0.13755603  0.49913613  0.24511806  1
  O  O268  1  0.12239699  0.48886700  0.73867980  1
  O  O269  1  0.12085314  0.98676151  0.25098665  1
  O  O270  1  0.13629656  1.00459140  0.74420997  1
  O  O271  1  0.62977069  0.49646760  0.24510856  1
  O  O272  1  0.62908620  0.49764507  0.73887586  1
  O  O273  1  0.62725107  0.99077789  0.25732533  1
  O  O274  1  0.63239640  1.00378808  0.73756646  1
  O  O275  1  0.37430406  0.01434894  0.24770044  1
  O  O276  1  0.36303164  0.00467128  0.75309884  1
  O  O277  1  0.37346867  0.51046637  0.25745194  1
  O  O278  1  0.38105582  0.50910654  0.75749275  1
  O  O279  1  0.88103253  0.00960594  0.26202436  1
  O  O280  1  0.86751509  0.00584485  0.75553187  1
  O  O281  1  0.86534313  0.50136839  0.25955583  1
  O  O282  1  0.86862086  0.51371804  0.74474198  1
  O  O283  1  0.13114719  0.37740946  0.37350915  1
  O  O284  1  0.11827094  0.37448400  0.86813926  1
  O  O285  1  0.11607270  0.87852255  0.36894701  1
  O  O286  1  0.11658408  0.87002849  0.87599275  1
  O  O287  1  0.61837034  0.37177837  0.37360145  1
  O  O288  1  0.61143920  0.37706425  0.86852247  1
  O  O289  1  0.63522354  0.86786736  0.36805980  1
  O  O290  1  0.60821224  0.86827188  0.87341285  1
  O  O291  1  0.37600975  0.13299298  0.13298220  1
  O  O292  1  0.37991222  0.12667769  0.62654491  1
  O  O293  1  0.38257881  0.62855074  0.13753490  1
  O  O294  1  0.38072233  0.62690711  0.62589747  1
  O  O295  1  0.88443568  0.12954667  0.13017133  1
  O  O296  1  0.87082979  0.13051908  0.64003798  1
  O  O297  1  0.88383079  0.63187023  0.12844711  1
  O  O298  1  0.88078058  0.63010968  0.62479322  1
  O  O299  1  0.25568326  0.25770715  0.12136012  1
  O  O300  1  0.25439206  0.26191888  0.62132850  1
  O  O301  1  0.25498981  0.76384955  0.11889519  1
  O  O302  1  0.25280431  0.75651794  0.61803145  1
  O  O303  1  0.76548714  0.25229502  0.12739952  1
  O  O304  1  0.75901778  0.25818039  0.63469650  1
  O  O305  1  0.76875134  0.74269674  0.13070529  1
  O  O306  1  0.76122048  0.75511819  0.63082243  1
  O  O307  1  0.25081065  0.23648521  0.37675716  1
  O  O308  1  0.24869923  0.24211529  0.88233510  1
  O  O309  1  0.24760304  0.75105568  0.38403926  1
  O  O310  1  0.25297319  0.74843500  0.88236366  1
  O  O311  1  0.73826912  0.25227250  0.37165200  1
  O  O312  1  0.74381573  0.25415931  0.86840829  1
  O  O313  1  0.74303492  0.73534058  0.36937356  1
  O  O314  1  0.73606539  0.75946671  0.86784769  1
  O  O315  1  0.01148159  0.13096857  0.00725436  1
  O  O316  1  0.00517467  0.11021495  0.49588765  1
  O  O317  1  0.01299997  0.63193031  0.00947720  1
  O  O318  1  0.01176618  0.63035091  0.51088698  1
  O  O319  1  0.51458308  0.13200859  0.00714500  1
  O  O320  1  0.50620856  0.12689597  0.51176971  1
  O  O321  1  0.50824782  0.61534293  -0.00078027  1
  O  O322  1  0.50937486  0.63094704  0.51214805  1
  O  O323  1  0.48766045  0.37373970  0.49329593  1
  O  O324  1  0.49589584  0.38002524  0.99147073  1
  O  O325  1  0.48029876  0.87124073  0.50690494  1
  O  O326  1  0.50250882  0.87024356  0.99236286  1
  O  O327  1  0.98957509  0.37402363  0.50500613  1
  O  O328  1  0.99574581  0.37221386  0.98531870  1
  O  O329  1  0.99261593  0.87921197  0.49623488  1
  O  O330  1  1.01245849  0.88353484  1.01431344  1
  O  O331  1  0.49402413  0.48897986  0.36998552  1
  O  O332  1  0.49263855  0.49292436  0.87838399  1
  O  O333  1  0.48998233  1.00387590  0.38271160  1
  O  O334  1  0.49295786  0.98395827  0.87083742  1
  O  O335  1  0.98410679  0.49549543  0.36816781  1
  O  O336  1  1.00444047  0.48665223  0.86897882  1
  O  O337  1  0.99001533  0.98770904  0.38457575  1
  O  O338  1  0.98547382  0.99946584  0.87644576  1
  O  O339  1  -0.00142348  0.00520867  0.12531506  1
  O  O340  1  0.00860827  -0.00777751  0.61779759  1
  O  O341  1  0.00133132  0.51229903  0.13301508  1
  O  O342  1  0.00668415  0.51006103  0.62917658  1
  O  O343  1  0.52063928  0.00304250  0.13498021  1
  O  O344  1  0.50596493  0.00554647  0.62184517  1
  O  O345  1  0.50751540  0.49999849  0.11556552  1
  O  O346  1  0.50981628  0.50969391  0.62828989  1
  O  O347  1  0.25379400  0.38306051  0.24156471  1
  O  O348  1  0.24039307  0.37009857  0.74252886  1
  O  O349  1  0.24046864  0.87458701  0.23635716  1
  O  O350  1  0.25495699  0.88220690  0.73968003  1
  O  O351  1  0.74309524  0.38631521  0.24883161  1
  O  O352  1  0.74368499  0.38430140  0.73987214  1
  O  O353  1  0.73815862  0.87112585  0.24603406  1
  O  O354  1  0.75713268  0.88295715  0.73626741  1
  O  O355  1  0.25506529  0.12522847  0.25451658  1
  O  O356  1  0.25356723  0.11858458  0.75536811  1
  O  O357  1  0.26119740  0.62064418  0.24443115  1
  O  O358  1  0.26483307  0.63046630  0.74723416  1
  O  O359  1  0.76564954  0.13173888  0.25312469  1
  O  O360  1  0.75742263  0.11098701  0.74882408  1
  O  O361  1  0.74910566  0.61376054  0.25923286  1
  O  O362  1  0.76542639  0.61895443  0.74477565  1
  O  O363  1  0.36727587  0.12799981  0.36725790  1
  O  O364  1  0.37121784  0.11727753  0.86865009  1
  O  O365  1  0.38557787  0.61872390  0.36494174  1
  O  O366  1  0.37758161  0.61650504  0.86384817  1
  O  O367  1  0.87474487  0.11703304  0.36907423  1
  O  O368  1  0.87677688  0.11337343  0.86524060  1
  O  O369  1  0.86802906  0.61603513  0.37492176  1
  O  O370  1  0.87682722  0.62584284  0.86410221  1
  O  O371  1  0.13845880  0.37626390  0.12489631  1
  O  O372  1  0.13143444  0.38094122  0.63032028  1
  O  O373  1  0.12266059  0.88202696  0.12626152  1
  O  O374  1  0.13508220  0.88348642  0.61876848  1
  O  O375  1  0.62715352  0.38227150  0.13000569  1
  O  O376  1  0.62802237  0.38161666  0.62767210  1
  O  O377  1  0.62644184  0.89004744  0.13970788  1
  O  O378  1  0.63388831  0.88192195  0.61806533  1
  O  O379  1  0.10783578  0.25062777  0.24514919  1
  O  O380  1  0.11742987  0.25992624  0.74867955  1
  O  O381  1  0.11209013  0.76291722  0.24162534  1
  O  O382  1  0.10764322  0.74167566  0.74777811  1
  O  O383  1  0.61876955  0.25504818  0.25602287  1
  O  O384  1  0.61472674  0.25753775  0.74677180  1
  O  O385  1  0.62257152  0.75708576  0.25717235  1
  O  O386  1  0.61238858  0.74279245  0.75601382  1
  O  O387  1  0.38171623  0.24360987  0.24774715  1
  O  O388  1  0.37854620  0.24220450  0.74209230  1
  O  O389  1  0.38611247  0.74695242  0.25028862  1
  O  O390  1  0.38177335  0.74307903  0.74110421  1
  O  O391  1  0.88553659  0.24554913  0.24331603  1
  O  O392  1  0.88127180  0.24106483  0.74708883  1
  O  O393  1  0.88783159  0.74651109  0.24448687  1
  O  O394  1  0.88105759  0.73833512  0.74421889  1
  O  O395  1  0.37084632  0.49637650  0.48750098  1
  O  O396  1  0.38271389  0.49515301  0.99314913  1
  O  O397  1  0.37070015  0.98290040  0.50263636  1
  O  O398  1  0.37201150  1.00706570  0.98747581  1
  O  O399  1  0.86909055  0.50217167  0.48560704  1
  O  O400  1  0.87230639  0.48953522  1.00491191  1
  O  O401  1  0.88269892  0.99231823  0.49885991  1
  O  O402  1  0.86592605  1.00755434  0.98677058  1
  O  O403  1  0.12646671  0.00534897  0.00430674  1
  O  O404  1  0.11787850  0.00516217  0.50808097  1
  O  O405  1  0.13345923  0.51368698  0.00481413  1
  O  O406  1  0.13204881  0.51262886  0.51267789  1
  O  O407  1  0.62530879  0.00962023  0.00810120  1
  O  O408  1  0.62382023  0.00821959  0.51223347  1
  O  O409  1  0.62182934  0.50479290  0.00133517  1
  O  O410  1  0.62708281  0.50770962  0.51164480  1
  O  O411  1  0.36692648  0.37147728  0.12058964  1
  O  O412  1  0.36975758  0.37392860  0.61911024  1
  O  O413  1  0.36804505  0.87621982  0.13134409  1
  O  O414  1  0.36101750  0.86915131  0.61496742  1
  O  O415  1  0.87764706  0.36828313  0.11510769  1
  O  O416  1  0.86591386  0.36462700  0.62960049  1
  O  O417  1  0.87437337  0.85890903  0.13072712  1
  O  O418  1  0.86929788  0.86610499  0.61861494  1
  O  O419  1  0.13021026  0.11787544  0.38565610  1
  O  O420  1  0.13089359  0.12508464  0.88454020  1
  O  O421  1  0.11754803  0.61837105  0.39113882  1
  O  O422  1  0.12870406  0.62837622  0.88036239  1
  O  O423  1  0.62788609  0.13466206  0.38460724  1
  O  O424  1  0.61591367  0.12237815  0.88649168  1
  O  O425  1  0.63049685  0.62954972  0.38349125  1
  O  O426  1  0.61784457  0.63584718  0.87897693  1
