# generated using pymatgen
data_V85Zn86O256
_symmetry_space_group_name_H-M   'P 1'
_cell_length_a   16.94932465
_cell_length_b   16.94525136
_cell_length_c   16.94148741
_cell_angle_alpha   90.03962064
_cell_angle_beta   90.02679651
_cell_angle_gamma   90.01225357
_symmetry_Int_Tables_number   1
_chemical_formula_structural   V85Zn86O256
_chemical_formula_sum   'V85 Zn86 O256'
_cell_volume   4865.77239294
_cell_formula_units_Z   1
loop_
 _symmetry_equiv_pos_site_id
 _symmetry_equiv_pos_as_xyz
  1  'x, y, z'
loop_
 _atom_site_type_symbol
 _atom_site_label
 _atom_site_symmetry_multiplicity
 _atom_site_fract_x
 _atom_site_fract_y
 _atom_site_fract_z
 _atom_site_occupancy
  V  V0  1  0.61102275  0.00337255  0.11931955  1
  V  V1  1  0.25033026  -0.00053477  0.25255853  1
  V  V2  1  0.62103876  0.24533002  0.38328863  1
  V  V3  1  0.49918983  0.62435570  0.62513260  1
  V  V4  1  0.37311211  0.37520393  0.48423958  1
  V  V5  1  0.63137357  0.74373417  0.87295348  1
  V  V6  1  -0.00038200  0.37802867  0.38051768  1
  V  V7  1  0.75149017  0.87646770  0.62873740  1
  V  V8  1  0.74410187  0.12120288  0.37824323  1
  V  V9  1  -0.00074225  0.87257407  0.37567781  1
  V  V10  1  0.25521572  0.87630038  0.62009210  1
  V  V11  1  0.37553042  -0.00430253  0.38027516  1
  V  V12  1  0.62432881  0.49564275  0.14090215  1
  V  V13  1  0.62422030  0.87912402  0.24987006  1
  V  V14  1  0.87694329  0.87451421  0.00397365  1
  V  V15  1  0.12477309  0.49633870  0.62471575  1
  V  V16  1  0.81259042  0.45533729  0.31527709  1
  V  V17  1  0.49888889  0.74874946  0.23440121  1
  V  V18  1  0.25555839  0.75107118  0.49355334  1
  V  V19  1  0.75523873  0.74508885  -0.00097698  1
  V  V20  1  -0.00861862  0.12844813  0.63669526  1
  V  V21  1  0.38556654  0.00215242  0.87669124  1
  V  V22  1  0.38338315  0.11995713  0.23276749  1
  V  V23  1  0.62495698  0.62105831  0.00558010  1
  V  V24  1  -0.00043509  0.37894328  0.87315010  1
  V  V25  1  0.12332952  0.00213458  0.62387142  1
  V  V26  1  0.12652449  0.37744311  0.25393216  1
  V  V27  1  0.76035529  0.25511830  0.49908377  1
  V  V28  1  0.49125750  0.50490537  0.00871588  1
  V  V29  1  0.62283230  0.75201383  0.37550785  1
  V  V30  1  0.37083038  0.35573394  0.00572355  1
  V  V31  1  0.12903148  0.62157344  0.49671477  1
  V  V32  1  0.87712032  0.01060213  0.87400444  1
  V  V33  1  0.25139521  0.00790092  0.74756941  1
  V  V34  1  0.50336260  0.24535522  0.74505345  1
  V  V35  1  0.87573129  0.87702961  0.50286514  1
  V  V36  1  0.00149142  0.62352805  0.62679911  1
  V  V37  1  -0.00080377  0.74686188  0.75334059  1
  V  V38  1  0.75498756  0.01048484  0.75329366  1
  V  V39  1  0.00205495  0.87624341  0.87715317  1
  V  V40  1  0.00657619  0.25093667  0.25649478  1
  V  V41  1  0.00310156  0.01181393  0.00027192  1
  V  V42  1  0.12598495  0.24873977  0.89521399  1
  V  V43  1  0.38082445  0.24594756  0.62076260  1
  V  V44  1  0.50166151  0.01706663  0.50608214  1
  V  V45  1  0.12733257  0.87290903  0.24769433  1
  V  V46  1  0.75047492  0.87083942  0.12291561  1
  V  V47  1  0.75465071  0.38051152  0.62522077  1
  V  V48  1  -0.00367709  0.62978709  0.12183669  1
  V  V49  1  0.12376694  0.36069945  0.74884672  1
  V  V50  1  0.87487015  0.38586855  0.00095192  1
  V  V51  1  0.24642255  0.25109607  0.49234317  1
  V  V52  1  0.49393893  0.49855007  0.49830608  1
  V  V53  1  0.75006343  0.75162029  0.50168513  1
  V  V54  1  0.24853140  0.12912202  0.37178316  1
  V  V55  1  0.25207784  0.37418977  0.62378791  1
  V  V56  1  -0.01329430  0.49966095  0.49726562  1
  V  V57  1  0.36917227  0.62304984  0.74932613  1
  V  V58  1  0.25561596  0.62736245  0.89213252  1
  V  V59  1  0.49730691  0.87403178  0.38569572  1
  V  V60  1  0.62716676  0.87742870  0.75112611  1
  V  V61  1  0.75111129  0.62553780  0.37149714  1
  V  V62  1  0.50041722  0.75033878  0.74973831  1
  V  V63  1  0.87328223  0.25266295  0.12556069  1
  V  V64  1  -0.00161192  0.00052428  0.50124614  1
  V  V65  1  0.25680322  0.50396117  0.26821761  1
  V  V66  1  0.12507087  0.00498631  0.12266219  1
  V  V67  1  0.49831606  0.37442300  0.87355589  1
  V  V68  1  0.62723325  0.49968113  0.63288646  1
  V  V69  1  0.87685218  0.25331723  0.64541486  1
  V  V70  1  0.86899120  0.63632177  0.24577745  1
  V  V71  1  0.62471967  0.62522618  0.50109554  1
  V  V72  1  0.37435796  0.75108773  0.62162027  1
  V  V73  1  0.50386617  0.37296912  0.36740087  1
  V  V74  1  0.13177607  0.74914436  0.88510058  1
  V  V75  1  0.74997428  0.25108839  -0.00055244  1
  V  V76  1  0.74988098  0.00037720  0.24601734  1
  V  V77  1  0.12645709  0.87485785  0.75011929  1
  V  V78  1  0.25001572  0.12929524  0.89027048  1
  V  V79  1  0.12758807  0.74532997  0.37431250  1
  V  V80  1  0.12037686  0.13123085  0.49426462  1
  V  V81  1  0.50493736  0.24604296  0.23663979  1
  V  V82  1  0.87110904  0.60741659  0.75707037  1
  V  V83  1  0.61476707  0.12547595  0.00060386  1
  V  V84  1  0.87724221  0.12172929  0.24860861  1
  Zn  Zn85  1  0.00440172  0.13001854  0.12295090  1
  Zn  Zn86  1  0.75501072  0.58622319  0.87464795  1
  Zn  Zn87  1  -0.00403569  0.75226601  0.24472382  1
  Zn  Zn88  1  0.87699998  0.74829266  0.62898930  1
  Zn  Zn89  1  0.24590605  0.36949551  0.11634143  1
  Zn  Zn90  1  0.74626432  0.37911074  0.13671449  1
  Zn  Zn91  1  0.35579838  0.73365904  0.10462987  1
  Zn  Zn92  1  0.38455086  0.87027393  0.00592957  1
  Zn  Zn93  1  0.50356294  0.88085592  0.87643976  1
  Zn  Zn94  1  0.62591458  0.37945002  0.75224984  1
  Zn  Zn95  1  0.24984535  0.49757501  0.75266410  1
  Zn  Zn96  1  0.62689825  0.25123521  0.87395013  1
  Zn  Zn97  1  0.37301311  0.49734278  0.87524699  1
  Zn  Zn98  1  0.75866468  0.14106464  0.87232048  1
  Zn  Zn99  1  0.12957506  0.62360523  0.00674746  1
  Zn  Zn100  1  0.87226237  -0.00120497  0.37529134  1
  Zn  Zn101  1  0.12690432  0.50017353  0.12657199  1
  Zn  Zn102  1  0.37271070  0.62145592  0.25167305  1
  Zn  Zn103  1  0.61316744  0.01665363  0.62898501  1
  Zn  Zn104  1  0.24994340  0.86592962  0.11065506  1
  Zn  Zn105  1  0.00423870  0.50176562  -0.00099059  1
  Zn  Zn106  1  0.38075967  0.12488191  0.74206699  1
  Zn  Zn107  1  0.19017090  0.18692349  0.17899661  1
  Zn  Zn108  1  0.18676940  0.18782645  0.68017994  1
  Zn  Zn109  1  0.18723077  0.68146419  0.19063682  1
  Zn  Zn110  1  0.18658775  0.68873447  0.68742645  1
  Zn  Zn111  1  0.68500733  0.18747758  0.18736862  1
  Zn  Zn112  1  0.68580728  0.19362812  0.68681762  1
  Zn  Zn113  1  0.68056780  0.68748132  0.18800105  1
  Zn  Zn114  1  0.69230300  0.68504644  0.68961154  1
  Zn  Zn115  1  0.29951174  0.29176757  0.27413612  1
  Zn  Zn116  1  0.31444747  0.30972355  0.81219721  1
  Zn  Zn117  1  0.31323610  0.81001036  0.30414463  1
  Zn  Zn118  1  0.31327047  0.81455708  0.81438185  1
  Zn  Zn119  1  0.81673753  0.29567380  0.31673946  1
  Zn  Zn120  1  0.79203314  0.37254698  0.83285177  1
  Zn  Zn121  1  0.81030905  0.81279206  0.31360390  1
  Zn  Zn122  1  0.81568047  0.81430651  0.81678338  1
  Zn  Zn123  1  0.18180938  0.43587364  0.43267929  1
  Zn  Zn124  1  0.18943127  0.44130098  0.93927765  1
  Zn  Zn125  1  0.18666856  0.93730685  0.43767692  1
  Zn  Zn126  1  0.19027377  0.94060105  0.93616332  1
  Zn  Zn127  1  0.67626167  0.43228776  0.44435505  1
  Zn  Zn128  1  0.68033629  0.43334203  0.94904186  1
  Zn  Zn129  1  0.68371415  0.94168672  0.44072221  1
  Zn  Zn130  1  0.68721624  0.94024372  0.93690860  1
  Zn  Zn131  1  0.30727446  0.03405284  0.05466316  1
  Zn  Zn132  1  0.31376880  0.06260386  0.55709401  1
  Zn  Zn133  1  0.31293878  0.55496867  0.08149502  1
  Zn  Zn134  1  0.31122592  0.56161807  0.55804075  1
  Zn  Zn135  1  0.81031252  0.06330012  0.06178821  1
  Zn  Zn136  1  0.78138624  0.08543533  0.58432803  1
  Zn  Zn137  1  0.80749144  0.56197991  0.07031801  1
  Zn  Zn138  1  0.81124432  0.56724963  0.56796983  1
  Zn  Zn139  1  0.43408116  0.43441249  0.18693499  1
  Zn  Zn140  1  0.43627209  0.43444820  0.68558811  1
  Zn  Zn141  1  0.43517749  0.92868827  0.18747394  1
  Zn  Zn142  1  0.43667656  0.93792817  0.68817916  1
  Zn  Zn143  1  0.94327949  0.43924183  0.18397994  1
  Zn  Zn144  1  0.94231267  0.43077655  0.68606778  1
  Zn  Zn145  1  0.93897855  0.93695596  0.18507623  1
  Zn  Zn146  1  0.93687460  0.93842450  0.68873965  1
  Zn  Zn147  1  0.06165443  0.06019729  0.31265410  1
  Zn  Zn148  1  0.06675324  0.06704509  0.81497920  1
  Zn  Zn149  1  0.05667277  0.56181170  0.31031929  1
  Zn  Zn150  1  0.06968030  0.55930867  0.81339443  1
  Zn  Zn151  1  0.56128693  0.06152934  0.31237449  1
  Zn  Zn152  1  0.57037248  0.07070367  0.81235812  1
  Zn  Zn153  1  0.53483042  0.57252874  0.32067487  1
  Zn  Zn154  1  0.55893977  0.56302012  0.81841848  1
  Zn  Zn155  1  0.43192425  0.18740505  0.43107949  1
  Zn  Zn156  1  0.43695893  0.18527812  0.93048301  1
  Zn  Zn157  1  0.43336308  0.68365192  0.42936937  1
  Zn  Zn158  1  0.44101532  0.69023002  0.93836803  1
  Zn  Zn159  1  0.93479152  0.18610612  0.43683257  1
  Zn  Zn160  1  0.93878591  0.19663958  0.93523763  1
  Zn  Zn161  1  0.93572140  0.68613319  0.43677753  1
  Zn  Zn162  1  0.93618266  0.68548644  0.93558445  1
  Zn  Zn163  1  0.05838159  0.31573402  0.06714953  1
  Zn  Zn164  1  0.05674391  0.31118974  0.56106832  1
  Zn  Zn165  1  0.06169359  0.81210847  0.06455349  1
  Zn  Zn166  1  0.06550186  0.80998926  0.56367021  1
  Zn  Zn167  1  0.56326222  0.31904186  0.06144417  1
  Zn  Zn168  1  0.56573930  0.31179419  0.55944823  1
  Zn  Zn169  1  0.56306997  0.81990753  0.05295224  1
  Zn  Zn170  1  0.56374432  0.81683063  0.56456823  1
  O  O171  1  0.12173772  0.11146118  0.13125930  1
  O  O172  1  0.11514093  0.12043154  0.61513301  1
  O  O173  1  0.10938912  0.62406851  0.12684238  1
  O  O174  1  0.12012186  0.61887827  0.61837743  1
  O  O175  1  0.63284757  0.11680499  0.11086567  1
  O  O176  1  0.67161139  0.11084545  0.61557239  1
  O  O177  1  0.63040647  0.61775402  0.11024291  1
  O  O178  1  0.62103838  0.62062807  0.62048257  1
  O  O179  1  0.38319475  0.36644215  0.38390743  1
  O  O180  1  0.38268992  0.37485280  0.88284877  1
  O  O181  1  0.38230819  0.88742067  0.36831915  1
  O  O182  1  0.37559722  0.89505598  0.86729942  1
  O  O183  1  0.87304287  0.39018307  0.36711853  1
  O  O184  1  0.89030371  0.36315924  0.88829363  1
  O  O185  1  0.88226172  0.87444795  0.38241816  1
  O  O186  1  0.88218132  0.88347019  0.88658360  1
  O  O187  1  0.25691514  0.00562833  0.37334727  1
  O  O188  1  0.25441157  0.01468732  0.86428093  1
  O  O189  1  0.24722348  0.50315328  0.36890125  1
  O  O190  1  0.25348090  0.51287990  0.87095555  1
  O  O191  1  0.74939381  0.00497202  0.36724312  1
  O  O192  1  0.76163703  -0.00076671  0.86874999  1
  O  O193  1  0.74552475  0.50559961  0.37832271  1
  O  O194  1  0.75105280  0.47365704  0.87347246  1
  O  O195  1  0.24368261  0.48631511  0.14223101  1
  O  O196  1  0.24482715  0.48617736  0.62028760  1
  O  O197  1  0.23861334  0.99784502  0.13882270  1
  O  O198  1  0.24619637  0.99423315  0.62689345  1
  O  O199  1  0.73089143  0.49867771  0.12840651  1
  O  O200  1  0.73979292  0.49384981  0.61790528  1
  O  O201  1  0.74697991  0.98946958  0.12856197  1
  O  O202  1  0.76578421  0.98286785  0.63846758  1
  O  O203  1  0.00386673  0.37082508  0.25848635  1
  O  O204  1  0.01186971  0.37478258  0.75883348  1
  O  O205  1  0.00759258  0.87420753  0.25785727  1
  O  O206  1  0.00693324  0.86850902  0.75641536  1
  O  O207  1  0.49054709  0.35702704  0.25781414  1
  O  O208  1  0.49921768  0.36790603  0.75730290  1
  O  O209  1  0.50822189  0.87030110  0.26189823  1
  O  O210  1  0.51043733  0.86910447  0.75089189  1
  O  O211  1  0.49160760  0.12827679  0.24824588  1
  O  O212  1  0.50234218  0.14006283  0.74774079  1
  O  O213  1  0.52624003  0.65193833  0.23762850  1
  O  O214  1  0.48968733  0.62991184  0.74470562  1
  O  O215  1  0.99269300  0.13193986  0.25232055  1
  O  O216  1  1.00304849  0.11940051  0.73534263  1
  O  O217  1  0.98818203  0.62812472  0.24255971  1
  O  O218  1  0.99541763  0.62979614  0.74928575  1
  O  O219  1  0.37791183  0.25719671  -0.00276606  1
  O  O220  1  0.36817968  0.25713300  0.50217497  1
  O  O221  1  0.37306493  0.75529365  -0.00672405  1
  O  O222  1  0.36184477  0.74082773  0.50060209  1
  O  O223  1  0.87064623  0.25591522  0.01043398  1
  O  O224  1  0.86210390  0.25352993  0.49528948  1
  O  O225  1  0.86237275  0.75778631  -0.00833498  1
  O  O226  1  0.86892095  0.75980564  0.50181983  1
  O  O227  1  0.12768656  0.23796016  0.50194863  1
  O  O228  1  0.12822698  0.25421567  0.99378085  1
  O  O229  1  0.13367358  0.74326506  0.49436666  1
  O  O230  1  0.12312233  0.74878245  0.98822954  1
  O  O231  1  0.63537181  0.24933943  0.48952435  1
  O  O232  1  0.63274081  0.24276172  1.00367777  1
  O  O233  1  0.63068236  0.74655125  0.49667792  1
  O  O234  1  0.63355436  0.74102919  0.99245633  1
  O  O235  1  0.50849166  0.25111576  0.13846291  1
  O  O236  1  0.49145707  0.25858394  0.62966523  1
  O  O237  1  0.50703475  0.76320098  0.13549417  1
  O  O238  1  0.49437825  0.74562959  0.62872208  1
  O  O239  1  0.98891222  0.24852824  0.13461483  1
  O  O240  1  0.98472277  0.24383609  0.62131234  1
  O  O241  1  0.99985870  0.73663289  0.12601238  1
  O  O242  1  1.00286751  0.74212449  0.63517796  1
  O  O243  1  -0.01663131  0.26535197  0.36713706  1
  O  O244  1  0.01957007  0.25702694  0.87953942  1
  O  O245  1  0.00619893  0.76101086  0.37738776  1
  O  O246  1  0.00850808  0.75534603  0.87031334  1
  O  O247  1  0.50683301  0.25431192  0.37376184  1
  O  O248  1  0.50023104  0.25663467  0.86373332  1
  O  O249  1  0.50876867  0.75940461  0.37291161  1
  O  O250  1  0.51734751  0.74709811  0.86555433  1
  O  O251  1  0.24087056  0.12961942  0.49197898  1
  O  O252  1  0.25283927  0.11971180  0.98780554  1
  O  O253  1  0.23626472  0.63227974  0.50376118  1
  O  O254  1  0.25311669  0.62063713  0.99375437  1
  O  O255  1  0.76111393  0.13253234  0.48056636  1
  O  O256  1  0.75043159  0.14056711  0.99933318  1
  O  O257  1  0.74531816  0.63262405  0.49528230  1
  O  O258  1  0.74679631  0.62989153  0.99433677  1
  O  O259  1  0.26713113  0.37611297  -0.00277313  1
  O  O260  1  0.25449538  0.37018011  0.50085208  1
  O  O261  1  0.27124961  0.91508782  0.00751615  1
  O  O262  1  0.24368322  0.86498401  0.50894242  1
  O  O263  1  0.75662428  0.36402701  0.01110935  1
  O  O264  1  0.74525900  0.36682510  0.51091214  1
  O  O265  1  0.75605690  0.86952592  0.00483097  1
  O  O266  1  0.75608726  0.87371185  0.50830750  1
  O  O267  1  0.12836358  0.49145929  0.25375339  1
  O  O268  1  0.12955654  0.48926594  0.74009910  1
  O  O269  1  0.12708589  0.99145415  0.24500678  1
  O  O270  1  0.13122174  0.99588041  0.74385089  1
  O  O271  1  0.60713983  0.51117078  0.23656804  1
  O  O272  1  0.61495988  0.50185961  0.73633047  1
  O  O273  1  0.63157179  0.99715292  0.24172868  1
  O  O274  1  0.63467730  0.99360879  0.74909070  1
  O  O275  1  0.37379722  0.00708066  0.25810870  1
  O  O276  1  0.36605065  0.00627066  0.75094361  1
  O  O277  1  0.35883155  0.48960388  0.25284142  1
  O  O278  1  0.37285898  0.50889176  0.74900816  1
  O  O279  1  0.87017421  0.00582224  0.25020499  1
  O  O280  1  0.86888151  -0.00790424  0.76366980  1
  O  O281  1  0.87157222  0.51069042  0.25160714  1
  O  O282  1  0.88132021  0.50927468  0.74663157  1
  O  O283  1  0.10846729  0.37165180  0.37023800  1
  O  O284  1  0.12689948  0.36194439  0.86922987  1
  O  O285  1  0.11662487  0.86795068  0.37127616  1
  O  O286  1  0.12386345  0.86912056  0.86996956  1
  O  O287  1  0.61549138  0.36022987  0.37605463  1
  O  O288  1  0.60829272  0.37179882  0.87696592  1
  O  O289  1  0.61884883  0.87213073  0.37098741  1
  O  O290  1  0.62831350  0.86888067  0.86315607  1
  O  O291  1  0.36955636  0.11083655  0.13618880  1
  O  O292  1  0.36681322  0.14216800  0.62158924  1
  O  O293  1  0.37784871  0.62622095  0.13750857  1
  O  O294  1  0.37851402  0.63080062  0.62934749  1
  O  O295  1  0.87560810  0.13070494  0.13568299  1
  O  O296  1  0.87894995  0.14112309  0.62053878  1
  O  O297  1  0.88213381  0.62374323  0.13351641  1
  O  O298  1  0.88285852  0.62904059  0.63867623  1
  O  O299  1  0.25985715  0.26855398  0.16617890  1
  O  O300  1  0.25401699  0.26019215  0.61395123  1
  O  O301  1  0.24802837  0.75748099  0.14042642  1
  O  O302  1  0.25321876  0.75771867  0.61741687  1
  O  O303  1  0.76031491  0.25458920  0.12665682  1
  O  O304  1  0.76219127  0.25692147  0.61693312  1
  O  O305  1  0.74269720  0.76245805  0.11467557  1
  O  O306  1  0.75225596  0.76126278  0.62185405  1
  O  O307  1  0.25574662  0.23495711  0.37489652  1
  O  O308  1  0.24202246  0.23680223  0.87088479  1
  O  O309  1  0.24064650  0.75585882  0.38176086  1
  O  O310  1  0.24137079  0.74078098  0.86591606  1
  O  O311  1  0.74077703  0.24230142  0.37954530  1
  O  O312  1  0.74842981  0.26081246  0.88665644  1
  O  O313  1  0.74206425  0.74496616  0.38160510  1
  O  O314  1  0.74029105  0.75368449  0.88180710  1
  O  O315  1  -0.00513702  0.11469193  0.00102771  1
  O  O316  1  0.00463728  0.12020997  0.50170406  1
  O  O317  1  -0.00310346  0.62422593  0.01065296  1
  O  O318  1  0.00910318  0.62184260  0.50513148  1
  O  O319  1  0.51648019  0.13142890  -0.00449496  1
  O  O320  1  0.49774673  0.11556172  0.49691998  1
  O  O321  1  0.50926821  0.61090009  -0.00803470  1
  O  O322  1  0.50401759  0.61710429  0.50703110  1
  O  O323  1  0.49180306  0.37981114  0.49452089  1
  O  O324  1  0.49091483  0.38295453  0.99357379  1
  O  O325  1  0.49996721  0.87648812  0.48861960  1
  O  O326  1  0.49937817  0.88138468  0.98842223  1
  O  O327  1  1.00172007  0.38551652  0.49238068  1
  O  O328  1  0.99158090  0.37670087  0.99546183  1
  O  O329  1  0.99455333  0.87650716  0.49580492  1
  O  O330  1  0.99279249  0.88087955  0.99593362  1
  O  O331  1  0.51568455  0.47996261  0.38754557  1
  O  O332  1  0.49610510  0.49200986  0.88579014  1
  O  O333  1  0.49396279  0.99509771  0.38402046  1
  O  O334  1  0.48694320  1.00506238  0.85683314  1
  O  O335  1  0.99942131  0.49056786  0.38343782  1
  O  O336  1  1.01012293  0.48344349  0.87779344  1
  O  O337  1  0.99874180  0.98719045  0.38188600  1
  O  O338  1  0.99759113  0.99630947  0.88112694  1
  O  O339  1  0.00581251  0.00264642  0.11679611  1
  O  O340  1  0.00158323  0.00660353  0.61851648  1
  O  O341  1  0.00224448  0.51480385  0.12389745  1
  O  O342  1  0.00703397  0.50357334  0.61799284  1
  O  O343  1  0.51314901  -0.00409287  0.13183693  1
  O  O344  1  0.49688135  -0.00007042  0.61183576  1
  O  O345  1  0.50572010  0.49428522  0.11331238  1
  O  O346  1  0.50414192  0.50415116  0.61693793  1
  O  O347  1  0.23153374  0.38412270  0.27274895  1
  O  O348  1  0.24645007  0.37424117  0.73900995  1
  O  O349  1  0.23514156  0.88257142  0.25941454  1
  O  O350  1  0.24438990  0.88588860  0.74247436  1
  O  O351  1  0.76093629  0.38641658  0.25978682  1
  O  O352  1  0.74345095  0.37112535  0.73006225  1
  O  O353  1  0.74609500  0.87902906  0.24167215  1
  O  O354  1  0.74545961  0.87826378  0.74585279  1
  O  O355  1  0.25969526  0.11748702  0.25682319  1
  O  O356  1  0.24741183  0.11440717  0.74572605  1
  O  O357  1  0.24894148  0.60788107  0.25545014  1
  O  O358  1  0.26167286  0.62498807  0.74856138  1
  O  O359  1  0.75735779  0.12142677  0.25714403  1
  O  O360  1  0.75101123  0.11324332  0.75656625  1
  O  O361  1  0.75399426  0.63070226  0.25859425  1
  O  O362  1  0.76745719  0.62478228  0.75209051  1
  O  O363  1  0.36704494  0.11177100  0.37005364  1
  O  O364  1  0.36248723  0.12169102  0.86508504  1
  O  O365  1  0.42518184  0.60631875  0.35192688  1
  O  O366  1  0.36893146  0.62478681  0.86520222  1
  O  O367  1  0.86920736  0.12160179  0.36185152  1
  O  O368  1  0.87687343  0.11474186  0.88003687  1
  O  O369  1  0.85916979  0.62845177  0.36956009  1
  O  O370  1  0.87372227  0.62276457  0.86152203  1
  O  O371  1  0.12158776  0.37555257  0.14104094  1
  O  O372  1  0.13085631  0.37477315  0.62959492  1
  O  O373  1  0.12334994  0.88341900  0.13426206  1
  O  O374  1  0.13332509  0.88092485  0.62985264  1
  O  O375  1  0.62578859  0.38947895  0.12927452  1
  O  O376  1  0.63157612  0.38524696  0.62338182  1
  O  O377  1  0.63453064  0.88459113  0.12708248  1
  O  O378  1  0.63446708  0.87911502  0.63631054  1
  O  O379  1  0.10932434  0.25343984  0.25111929  1
  O  O380  1  0.12981933  0.25883812  0.75105368  1
  O  O381  1  0.11974326  0.75687058  0.26043410  1
  O  O382  1  0.11536971  0.75352595  0.75675916  1
  O  O383  1  0.61021661  0.24004169  0.26048342  1
  O  O384  1  0.61783578  0.25627718  0.75065161  1
  O  O385  1  0.62349221  0.76384106  0.25671878  1
  O  O386  1  0.62428786  0.75527427  0.75476125  1
  O  O387  1  0.39333325  0.22777089  0.25720016  1
  O  O388  1  0.38264132  0.24992492  0.73794191  1
  O  O389  1  0.39443554  0.74787335  0.25523630  1
  O  O390  1  0.38028333  0.74431855  0.74368485  1
  O  O391  1  0.88277296  0.24094040  0.24300036  1
  O  O392  1  0.87204638  0.25191405  0.74072659  1
  O  O393  1  0.87617363  0.74058155  0.25349066  1
  O  O394  1  0.88991961  0.74922098  0.75338259  1
  O  O395  1  0.38612515  0.49179935  0.50349186  1
  O  O396  1  0.38645373  0.49942173  1.00039518  1
  O  O397  1  0.38662763  1.00112966  0.49209331  1
  O  O398  1  0.38924892  1.01507823  0.97623156  1
  O  O399  1  0.88821604  0.51107361  0.50433000  1
  O  O400  1  0.87421960  0.48799807  1.00748654  1
  O  O401  1  0.88008871  0.98522685  0.49832705  1
  O  O402  1  0.88157487  0.99372073  0.99438316  1
  O  O403  1  0.11346869  -0.00537709  0.00918405  1
  O  O404  1  0.11906240  0.00815372  0.50576324  1
  O  O405  1  0.12328378  0.50442267  0.00588454  1
  O  O406  1  0.11869907  0.50779584  0.50442310  1
  O  O407  1  0.63138802  0.01532745  0.00515087  1
  O  O408  1  0.60525853  -0.00399919  0.50316452  1
  O  O409  1  0.61270541  0.50472573  0.00863529  1
  O  O410  1  0.61345469  0.50600173  0.51064182  1
  O  O411  1  0.37878297  0.37260178  0.10709435  1
  O  O412  1  0.36688603  0.36726894  0.61430506  1
  O  O413  1  0.36909001  0.86614939  0.12573398  1
  O  O414  1  0.36210426  0.86842135  0.62930287  1
  O  O415  1  0.87403917  0.36802581  0.12138281  1
  O  O416  1  0.87020578  0.36385180  0.62610074  1
  O  O417  1  0.86883047  0.87845270  0.11188786  1
  O  O418  1  0.87231591  0.86868249  0.61844328  1
  O  O419  1  0.13420008  0.11697214  0.38317465  1
  O  O420  1  0.13600270  0.13804497  0.87482938  1
  O  O421  1  0.11476149  0.63775738  0.38259363  1
  O  O422  1  0.13704425  0.63312818  0.87595192  1
  O  O423  1  0.63366654  0.12944025  0.37162913  1
  O  O424  1  0.63502013  0.12938007  0.88836650  1
  O  O425  1  0.63241591  0.63117385  0.38236063  1
  O  O426  1  0.63446734  0.62803111  0.88149754  1
