# generated using pymatgen
data_V85Zn86O256
_symmetry_space_group_name_H-M   'P 1'
_cell_length_a   16.93546191
_cell_length_b   16.92971356
_cell_length_c   16.94502659
_cell_angle_alpha   90.03908750
_cell_angle_beta   89.99751609
_cell_angle_gamma   90.00601052
_symmetry_Int_Tables_number   1
_chemical_formula_structural   V85Zn86O256
_chemical_formula_sum   'V85 Zn86 O256'
_cell_volume   4858.35009858
_cell_formula_units_Z   1
loop_
 _symmetry_equiv_pos_site_id
 _symmetry_equiv_pos_as_xyz
  1  'x, y, z'
loop_
 _atom_site_type_symbol
 _atom_site_label
 _atom_site_symmetry_multiplicity
 _atom_site_fract_x
 _atom_site_fract_y
 _atom_site_fract_z
 _atom_site_occupancy
  V  V0  1  0.37199795  0.25384647  0.10708639  1
  V  V1  1  0.00256409  0.87579853  0.87606385  1
  V  V2  1  0.62310803  0.37693817  0.24779147  1
  V  V3  1  0.87321486  0.24859222  0.60407396  1
  V  V4  1  0.89301999  0.24512327  0.12834006  1
  V  V5  1  0.38534720  0.86955288  -0.00176157  1
  V  V6  1  0.25049579  -0.00270220  0.24832224  1
  V  V7  1  0.75037283  0.37019279  0.60975539  1
  V  V8  1  0.62272702  0.24862986  0.87506222  1
  V  V9  1  0.61790240  0.86915126  0.25190617  1
  V  V10  1  0.37314687  0.37925663  0.49653417  1
  V  V11  1  0.49686687  0.86634239  0.37796854  1
  V  V12  1  0.87740460  0.00098720  0.87452967  1
  V  V13  1  0.24546413  0.13494282  0.88617366  1
  V  V14  1  0.25251112  0.75029965  0.00411007  1
  V  V15  1  0.62430731  0.37393101  0.74918602  1
  V  V16  1  0.61677618  0.12549202  0.50685247  1
  V  V17  1  0.11436467  0.87642056  0.25074783  1
  V  V18  1  0.87790956  0.13689610  0.75185126  1
  V  V19  1  0.87935187  0.75316258  0.12740418  1
  V  V20  1  0.49622965  0.37530747  0.88251372  1
  V  V21  1  0.74927318  0.12639743  0.38026957  1
  V  V22  1  0.37556173  0.62248664  0.75007277  1
  V  V23  1  0.37857543  0.00026124  0.37619199  1
  V  V24  1  0.74881969  0.61865783  0.87876052  1
  V  V25  1  0.75098741  0.87603054  0.12607603  1
  V  V26  1  0.87756990  -0.00635837  0.37728867  1
  V  V27  1  0.62823343  0.25042677  0.37770939  1
  V  V28  1  0.12467869  0.11966447  0.50536515  1
  V  V29  1  0.12951125  0.87722787  0.73755896  1
  V  V30  1  0.25609261  0.49348063  0.25967756  1
  V  V31  1  0.87322582  0.75339186  0.62427737  1
  V  V32  1  0.93551901  0.44127180  0.82712844  1
  V  V33  1  0.25934749  0.62957511  0.36949344  1
  V  V34  1  0.00270293  0.12392195  0.62967302  1
  V  V35  1  0.37476171  -0.00466271  0.87545060  1
  V  V36  1  0.11817121  0.75104860  0.37603337  1
  V  V37  1  0.36025140  0.87376082  0.50508430  1
  V  V38  1  -0.00149664  0.61579380  0.12336075  1
  V  V39  1  0.75065108  -0.00263985  0.74777974  1
  V  V40  1  0.12797183  0.75273938  0.87776931  1
  V  V41  1  0.37287067  0.49758498  0.88445820  1
  V  V42  1  0.25354345  0.37701500  0.10589841  1
  V  V43  1  0.37862158  0.74384323  0.14369989  1
  V  V44  1  0.00083770  0.75222968  0.75087835  1
  V  V45  1  0.37608604  0.12276088  0.74340278  1
  V  V46  1  0.25010841  0.12692086  0.37401505  1
  V  V47  1  0.87796953  0.87687191  0.00205077  1
  V  V48  1  0.75292198  0.62823772  0.37710054  1
  V  V49  1  -0.00256487  0.48898046  0.49488423  1
  V  V50  1  0.12916470  0.62706383  0.49270879  1
  V  V51  1  0.62444774  0.12327724  0.00036537  1
  V  V52  1  0.10822269  0.25538275  0.87691772  1
  V  V53  1  0.74674679  0.74638468  -0.00044815  1
  V  V54  1  0.87370662  0.48563410  0.38061776  1
  V  V55  1  0.87684343  0.62449488  0.75500965  1
  V  V56  1  0.62283611  -0.00070579  0.12475519  1
  V  V57  1  0.74977808  0.50216619  0.24986916  1
  V  V58  1  0.62491656  0.63034028  0.50193037  1
  V  V59  1  0.00086414  -0.00716535  0.50148948  1
  V  V60  1  0.75146090  0.24972734  0.00387410  1
  V  V61  1  0.49448504  0.25181082  0.24881298  1
  V  V62  1  0.62538722  0.50053502  0.62522105  1
  V  V63  1  0.10941513  0.25353956  0.36912397  1
  V  V64  1  0.12121789  0.61951841  0.00110008  1
  V  V65  1  0.50649721  0.62464327  0.13529721  1
  V  V66  1  0.00201282  0.62673494  0.62306139  1
  V  V67  1  0.49879856  0.12486808  0.12292685  1
  V  V68  1  0.36292895  0.75455475  0.62439094  1
  V  V69  1  0.61872976  0.75032230  0.87748090  1
  V  V70  1  0.49519303  0.50331593  0.49688077  1
  V  V71  1  0.75103766  0.49628392  0.75224736  1
  V  V72  1  0.49597890  0.37937266  0.37379812  1
  V  V73  1  0.50017047  0.24629822  0.74120436  1
  V  V74  1  0.25002765  0.37133585  0.62809598  1
  V  V75  1  0.24502235  -0.00087494  0.74079695  1
  V  V76  1  0.74926910  0.12336829  0.87603830  1
  V  V77  1  0.61480006  0.87523344  0.75292383  1
  V  V78  1  0.24942397  0.24880955  0.49933516  1
  V  V79  1  0.12840778  0.49846165  0.62426484  1
  V  V80  1  0.88955064  0.38597482  0.00318071  1
  V  V81  1  0.12707226  0.01284339  0.12059661  1
  V  V82  1  0.74975939  0.37405274  0.12312489  1
  V  V83  1  0.01002402  0.01329861  -0.00062851  1
  V  V84  1  0.74868155  0.00322149  0.25199644  1
  Zn  Zn85  1  0.62224060  0.74872454  0.37324447  1
  Zn  Zn86  1  0.50594466  0.51045159  -0.00047712  1
  Zn  Zn87  1  0.37913759  0.24565897  0.62084299  1
  Zn  Zn88  1  0.25167645  0.62319727  0.87641215  1
  Zn  Zn89  1  0.87834921  0.62533866  0.25308738  1
  Zn  Zn90  1  0.62976646  0.50899342  0.11368342  1
  Zn  Zn91  1  0.49897618  0.62975066  0.62599194  1
  Zn  Zn92  1  0.49616376  0.75171477  0.75228953  1
  Zn  Zn93  1  0.89127978  0.13624948  0.25471725  1
  Zn  Zn94  1  0.25088279  0.87318343  0.12607193  1
  Zn  Zn95  1  0.74535978  0.87425183  0.62346672  1
  Zn  Zn96  1  -0.00230218  0.74980373  0.25346430  1
  Zn  Zn97  1  0.11807224  0.36685566  0.24252930  1
  Zn  Zn98  1  0.61685827  0.00169418  0.62952636  1
  Zn  Zn99  1  0.50206963  -0.00543213  -0.00561467  1
  Zn  Zn100  1  0.49411289  0.00225478  0.51367611  1
  Zn  Zn101  1  0.25002245  0.49781555  0.75323015  1
  Zn  Zn102  1  0.11271036  0.37030692  0.75177803  1
  Zn  Zn103  1  0.74930266  0.75506795  0.50018625  1
  Zn  Zn104  1  0.12249487  0.49369023  0.12035562  1
  Zn  Zn105  1  0.87423707  0.87214347  0.49735438  1
  Zn  Zn106  1  0.37449393  0.12558357  0.24756312  1
  Zn  Zn107  1  0.19059353  0.19050384  0.18715459  1
  Zn  Zn108  1  0.18607762  0.18890315  0.69386978  1
  Zn  Zn109  1  0.18671420  0.68390576  0.19179840  1
  Zn  Zn110  1  0.18911712  0.68477166  0.68959134  1
  Zn  Zn111  1  0.68776631  0.18815369  0.19022367  1
  Zn  Zn112  1  0.69253445  0.18900532  0.68709807  1
  Zn  Zn113  1  0.68915787  0.68923360  0.18938161  1
  Zn  Zn114  1  0.68828210  0.68760312  0.69090073  1
  Zn  Zn115  1  0.31053456  0.31491661  0.31151157  1
  Zn  Zn116  1  0.31476071  0.31164722  0.81191949  1
  Zn  Zn117  1  0.30468309  0.81433154  0.31938826  1
  Zn  Zn118  1  0.31206415  0.81280737  0.81251683  1
  Zn  Zn119  1  0.81305957  0.31068635  0.30928488  1
  Zn  Zn120  1  0.80705118  0.30984071  0.81219246  1
  Zn  Zn121  1  0.81036250  0.81407463  0.31154177  1
  Zn  Zn122  1  0.81023729  0.81271123  0.81313923  1
  Zn  Zn123  1  0.18604151  0.43787307  0.43606479  1
  Zn  Zn124  1  0.18310264  0.43497538  0.93312755  1
  Zn  Zn125  1  0.18417657  0.93822525  0.43480017  1
  Zn  Zn126  1  0.19383675  0.93745720  0.93535626  1
  Zn  Zn127  1  0.68207019  0.44229054  0.43465389  1
  Zn  Zn128  1  0.68736319  0.43743845  0.93849858  1
  Zn  Zn129  1  0.68573180  0.93822794  0.44101226  1
  Zn  Zn130  1  0.68746438  0.93440419  0.93636666  1
  Zn  Zn131  1  0.31467785  0.06155938  0.06198916  1
  Zn  Zn132  1  0.31191789  0.06007313  0.56335269  1
  Zn  Zn133  1  0.31542320  0.56581376  0.06504260  1
  Zn  Zn134  1  0.31154460  0.56615547  0.56046659  1
  Zn  Zn135  1  0.81621098  0.06295343  0.06395281  1
  Zn  Zn136  1  0.80924344  0.06356076  0.56150856  1
  Zn  Zn137  1  0.81353104  0.56396429  0.06233286  1
  Zn  Zn138  1  0.81279361  0.56420627  0.56386539  1
  Zn  Zn139  1  0.43378573  0.44194142  0.18406943  1
  Zn  Zn140  1  0.43755914  0.43764449  0.68698112  1
  Zn  Zn141  1  0.43637929  0.93370674  0.18622117  1
  Zn  Zn142  1  0.43711461  0.93723005  0.68673768  1
  Zn  Zn143  1  0.93685297  0.43406632  0.18906200  1
  Zn  Zn144  1  0.93645558  0.43318160  0.66126993  1
  Zn  Zn145  1  0.95622709  0.97521353  0.20280909  1
  Zn  Zn146  1  0.93929067  0.94014011  0.68760644  1
  Zn  Zn147  1  0.06364093  0.06623733  0.31493516  1
  Zn  Zn148  1  0.06661664  0.06734668  0.81332132  1
  Zn  Zn149  1  0.05072543  0.52873544  0.29230277  1
  Zn  Zn150  1  0.07043590  0.56657067  0.80878392  1
  Zn  Zn151  1  0.56073672  0.06227238  0.31293808  1
  Zn  Zn152  1  0.55850589  0.06053454  0.81091882  1
  Zn  Zn153  1  0.56107393  0.56547850  0.31135558  1
  Zn  Zn154  1  0.56227002  0.56341950  0.81465905  1
  Zn  Zn155  1  0.43735201  0.19052594  0.43586542  1
  Zn  Zn156  1  0.43769329  0.18190309  0.92990012  1
  Zn  Zn157  1  0.43523348  0.69127107  0.44301516  1
  Zn  Zn158  1  0.43867258  0.68152768  0.94260018  1
  Zn  Zn159  1  0.93867555  0.17789780  0.43681880  1
  Zn  Zn160  1  0.93605865  0.19154118  0.94139348  1
  Zn  Zn161  1  0.93976286  0.68310465  0.43852281  1
  Zn  Zn162  1  0.93571883  0.68565630  0.93858605  1
  Zn  Zn163  1  0.07092412  0.30750767  0.05376919  1
  Zn  Zn164  1  0.06309629  0.30644263  0.56264291  1
  Zn  Zn165  1  0.06411999  0.81684408  0.06593992  1
  Zn  Zn166  1  0.06436476  0.80951577  0.55986384  1
  Zn  Zn167  1  0.56322609  0.31503281  0.06240140  1
  Zn  Zn168  1  0.56416617  0.31303357  0.55960904  1
  Zn  Zn169  1  0.56108846  0.80498873  0.06642964  1
  Zn  Zn170  1  0.55377244  0.81557554  0.56761570  1
  O  O171  1  0.13291826  0.11253680  0.12643723  1
  O  O172  1  0.11504322  0.13272164  0.61769500  1
  O  O173  1  0.11523145  0.62984177  0.11612688  1
  O  O174  1  0.12368279  0.61671529  0.61834053  1
  O  O175  1  0.62014968  0.11975386  0.12043445  1
  O  O176  1  0.63186618  0.12990549  0.60855805  1
  O  O177  1  0.61278189  0.62763530  0.13187128  1
  O  O178  1  0.62470091  0.61914806  0.61915350  1
  O  O179  1  0.37918898  0.37086557  0.38858011  1
  O  O180  1  0.38502038  0.38508210  0.86621831  1
  O  O181  1  0.37812835  0.88115978  0.38209948  1
  O  O182  1  0.36920411  0.88234378  0.88517192  1
  O  O183  1  0.86536450  0.38619687  0.37709463  1
  O  O184  1  0.87620669  0.37474264  0.88416956  1
  O  O185  1  0.86997260  0.88922867  0.37658893  1
  O  O186  1  0.88120861  0.88225723  0.87946872  1
  O  O187  1  0.25776656  0.00918707  0.36946229  1
  O  O188  1  0.25808554  0.00888069  0.86887420  1
  O  O189  1  0.24513935  0.50839669  0.36561992  1
  O  O190  1  0.25799447  0.50050636  0.87300031  1
  O  O191  1  0.75214245  0.00752128  0.36955140  1
  O  O192  1  0.75602801  0.00466513  0.86769736  1
  O  O193  1  0.75469100  0.50707785  0.37104086  1
  O  O194  1  0.74792652  0.50659734  0.86621808  1
  O  O195  1  0.25647768  0.48454850  0.12570064  1
  O  O196  1  0.23862077  0.49250882  0.62005907  1
  O  O197  1  0.24708988  0.99798052  0.13238426  1
  O  O198  1  0.24977078  1.00190486  0.64166940  1
  O  O199  1  0.75069061  0.49457189  0.13361130  1
  O  O200  1  0.74770689  0.49141345  0.63159071  1
  O  O201  1  0.74415521  0.99728563  0.13215865  1
  O  O202  1  0.74630078  1.00249432  0.63894180  1
  O  O203  1  0.01920005  0.41784128  0.25944952  1
  O  O204  1  -0.01068767  0.38834158  0.75753683  1
  O  O205  1  0.01173423  0.88009549  0.24700148  1
  O  O206  1  0.00845056  0.87355893  0.75739939  1
  O  O207  1  0.50229773  0.37186855  0.25323141  1
  O  O208  1  0.50726069  0.36816416  0.75546463  1
  O  O209  1  0.50803170  0.88390586  0.26170558  1
  O  O210  1  0.51148830  0.87431286  0.75508788  1
  O  O211  1  0.49937370  0.13463641  0.24252585  1
  O  O212  1  0.48978552  0.13491379  0.75642878  1
  O  O213  1  0.49674382  0.62257200  0.23771369  1
  O  O214  1  0.48752509  0.62546653  0.74832819  1
  O  O215  1  0.98832637  0.08270135  0.23668936  1
  O  O216  1  0.98971903  0.11680198  0.74199267  1
  O  O217  1  0.99760597  0.62426719  0.23804793  1
  O  O218  1  0.99651039  0.63103956  0.74386404  1
  O  O219  1  0.38021136  0.24738018  0.00948795  1
  O  O220  1  0.36798795  0.25653251  0.50186332  1
  O  O221  1  0.36777341  0.75454351  0.00265459  1
  O  O222  1  0.37411567  0.75815681  0.51507524  1
  O  O223  1  0.87014475  0.25939735  0.01018432  1
  O  O224  1  0.87003193  0.24067933  0.50604847  1
  O  O225  1  0.86570098  0.75695931  0.00529643  1
  O  O226  1  0.87665012  0.75035659  0.51025619  1
  O  O227  1  0.12935960  0.23812462  0.49130967  1
  O  O228  1  0.12845025  0.24856093  0.97801262  1
  O  O229  1  0.12231473  0.73939600  0.49170263  1
  O  O230  1  0.13236051  0.74801091  0.99479096  1
  O  O231  1  0.62017449  0.24055188  0.48805739  1
  O  O232  1  0.63128465  0.24415546  0.99597412  1
  O  O233  1  0.62242861  0.73855579  0.50173662  1
  O  O234  1  0.63900292  0.75725038  0.99443813  1
  O  O235  1  0.48971610  0.24889224  0.12994511  1
  O  O236  1  0.50063294  0.25530802  0.63729479  1
  O  O237  1  0.48728977  0.74279663  0.12937010  1
  O  O238  1  0.48628297  0.74776482  0.63158549  1
  O  O239  1  0.99156610  0.25294850  0.12140158  1
  O  O240  1  0.98402171  0.24021292  0.61891620  1
  O  O241  1  0.98803911  0.74846806  0.12554018  1
  O  O242  1  0.99513594  0.74480215  0.63164242  1
  O  O243  1  0.01037048  0.24258540  0.37510790  1
  O  O244  1  0.00811460  0.24530870  0.87314213  1
  O  O245  1  0.01213889  0.74484988  0.37224628  1
  O  O246  1  0.00695951  0.75557318  0.86986143  1
  O  O247  1  0.50728393  0.25704332  0.36652143  1
  O  O248  1  0.50376944  0.25601013  0.86536279  1
  O  O249  1  0.49987062  0.76225835  0.37806173  1
  O  O250  1  0.51575119  0.74099693  0.87672561  1
  O  O251  1  0.24304218  0.12607389  0.49417175  1
  O  O252  1  0.25514571  0.12112819  0.98415800  1
  O  O253  1  0.23699465  0.61410719  0.48667634  1
  O  O254  1  0.24334059  0.63677703  1.00077675  1
  O  O255  1  0.73844854  0.12174509  0.48631044  1
  O  O256  1  0.74542269  0.12865300  0.99528289  1
  O  O257  1  0.74171868  0.62598107  0.49429708  1
  O  O258  1  0.75519701  0.63436225  0.99161805  1
  O  O259  1  0.25300902  0.37692110  0.00793555  1
  O  O260  1  0.25556978  0.37221212  0.50701330  1
  O  O261  1  0.25648499  0.86252534  0.00267581  1
  O  O262  1  0.26094256  0.87993326  0.49624720  1
  O  O263  1  0.75646736  0.37012086  0.01075488  1
  O  O264  1  0.73976186  0.37898643  0.51110827  1
  O  O265  1  0.75759795  0.87026076  0.00673584  1
  O  O266  1  0.75348973  0.87372717  0.50566477  1
  O  O267  1  0.14878639  0.50916639  0.23397641  1
  O  O268  1  0.12807557  0.49540985  0.73835742  1
  O  O269  1  0.13396686  0.99471613  0.24422240  1
  O  O270  1  0.13700357  0.99264587  0.75615961  1
  O  O271  1  0.63736719  0.49429573  0.25132903  1
  O  O272  1  0.62890126  0.49420696  0.74321010  1
  O  O273  1  0.63276816  0.99382329  0.24708045  1
  O  O274  1  0.63312682  0.99279532  0.75478619  1
  O  O275  1  0.36748668  0.00098285  0.25644472  1
  O  O276  1  0.36449474  0.00268194  0.75651193  1
  O  O277  1  0.35612385  0.49687626  0.24754869  1
  O  O278  1  0.37364689  0.50762157  0.75459351  1
  O  O279  1  0.85625499  -0.00476018  0.25792615  1
  O  O280  1  0.86778922  0.00671985  0.75607881  1
  O  O281  1  0.86189270  0.50112093  0.25937896  1
  O  O282  1  0.87624208  0.49735029  0.75527191  1
  O  O283  1  0.12893844  0.35384417  0.38083867  1
  O  O284  1  0.12361357  0.36323352  0.86948023  1
  O  O285  1  0.13081234  0.86451532  0.36491428  1
  O  O286  1  0.12238030  0.86512013  0.87136555  1
  O  O287  1  0.61914341  0.36772390  0.36890159  1
  O  O288  1  0.62043740  0.36621020  0.86690681  1
  O  O289  1  0.61436993  0.87646143  0.36984362  1
  O  O290  1  0.63211810  0.86277379  0.86640078  1
  O  O291  1  0.37868817  0.13745382  0.12614481  1
  O  O292  1  0.36929802  0.12646037  0.63873805  1
  O  O293  1  0.37920115  0.63897928  0.12908506  1
  O  O294  1  0.37406365  0.63428524  0.63093515  1
  O  O295  1  0.87128191  0.14341691  0.12445936  1
  O  O296  1  0.87647470  0.13462760  0.63095112  1
  O  O297  1  0.88187951  0.63484218  0.12429086  1
  O  O298  1  0.88081144  0.63320391  0.63298505  1
  O  O299  1  0.26437779  0.26054506  0.12935723  1
  O  O300  1  0.24926892  0.25653326  0.61701966  1
  O  O301  1  0.26064457  0.74861778  0.12097336  1
  O  O302  1  0.26320093  0.74854971  0.62984302  1
  O  O303  1  0.75229821  0.25900296  0.12170701  1
  O  O304  1  0.76292644  0.25641755  0.62604176  1
  O  O305  1  0.75880178  0.75292540  0.11838999  1
  O  O306  1  0.76080322  0.74926853  0.62493219  1
  O  O307  1  0.24965469  0.23744093  0.37919803  1
  O  O308  1  0.25512465  0.23632121  0.87228723  1
  O  O309  1  0.23763715  0.73633964  0.37066311  1
  O  O310  1  0.24247690  0.74822797  0.88349925  1
  O  O311  1  0.73618553  0.24293321  0.36504438  1
  O  O312  1  0.74376961  0.24347546  0.88319175  1
  O  O313  1  0.74711000  0.74154467  0.37819470  1
  O  O314  1  0.74459683  0.74370610  0.88286187  1
  O  O315  1  -0.00159523  0.11138423  -0.00306242  1
  O  O316  1  0.00753458  0.11713218  0.50827387  1
  O  O317  1  0.01022539  0.63572640  0.00877034  1
  O  O318  1  0.01055684  0.61763541  0.50721806  1
  O  O319  1  0.50710719  0.12353868  0.00519682  1
  O  O320  1  0.51298738  0.12507051  0.49382520  1
  O  O321  1  0.49431017  0.62675482  0.02325747  1
  O  O322  1  0.50604034  0.61866100  0.50075517  1
  O  O323  1  0.49277211  0.38168559  0.49549284  1
  O  O324  1  0.50213581  0.37235492  0.98452405  1
  O  O325  1  0.48998221  0.88039704  0.49185879  1
  O  O326  1  0.48910403  0.87246171  1.00328244  1
  O  O327  1  1.00350551  0.39005072  0.50585992  1
  O  O328  1  0.98851991  0.37659855  1.00488403  1
  O  O329  1  0.99853968  0.88935261  0.50834728  1
  O  O330  1  0.99530612  0.87814354  0.99141255  1
  O  O331  1  0.50731979  0.49403664  0.38788956  1
  O  O332  1  0.49329722  0.49161665  0.87444713  1
  O  O333  1  0.48602269  0.99636913  0.37546123  1
  O  O334  1  0.48072864  1.00593646  0.87665952  1
  O  O335  1  0.98820195  0.50963246  0.39015146  1
  O  O336  1  0.99612889  0.50386454  0.87438461  1
  O  O337  1  0.98885133  1.00700330  0.38871229  1
  O  O338  1  1.00000102  0.99624030  0.88357347  1
  O  O339  1  0.01301627  -0.00925549  0.10400698  1
  O  O340  1  -0.00774413  0.01517784  0.61708775  1
  O  O341  1  -0.00149681  0.51314948  0.11872439  1
  O  O342  1  0.00958969  0.50606923  0.61476304  1
  O  O343  1  0.50508701  0.00675607  0.12305297  1
  O  O344  1  0.50278767  0.00362080  0.62754939  1
  O  O345  1  0.50163068  0.51175690  0.12505731  1
  O  O346  1  0.50744389  0.50063839  0.61372568  1
  O  O347  1  0.24309321  0.38456347  0.25034467  1
  O  O348  1  0.25513128  0.37626843  0.73407544  1
  O  O349  1  0.24404654  0.88773167  0.25154281  1
  O  O350  1  0.24255774  0.88909916  0.75704424  1
  O  O351  1  0.74662944  0.38065976  0.23884922  1
  O  O352  1  0.74295944  0.37871119  0.74389023  1
  O  O353  1  0.74015168  0.88273917  0.24453166  1
  O  O354  1  0.74380881  0.88420173  0.74920138  1
  O  O355  1  0.25153682  0.11564119  0.25818756  1
  O  O356  1  0.25495773  0.11380276  0.75602188  1
  O  O357  1  0.25178541  0.61808957  0.26377219  1
  O  O358  1  0.26151411  0.62109118  0.75359088  1
  O  O359  1  0.74738184  0.11752157  0.26068967  1
  O  O360  1  0.75634310  0.11816502  0.75706508  1
  O  O361  1  0.75141564  0.61818834  0.25844003  1
  O  O362  1  0.75865272  0.61537236  0.75449987  1
  O  O363  1  0.36786401  0.11800874  0.37400597  1
  O  O364  1  0.36502168  0.11843454  0.86428128  1
  O  O365  1  0.35754923  0.63094089  0.38438613  1
  O  O366  1  0.37493702  0.61667417  0.86777807  1
  O  O367  1  0.86486439  0.11677429  0.37136298  1
  O  O368  1  0.87028157  0.12113880  0.86963332  1
  O  O369  1  0.86312933  0.61796260  0.37699408  1
  O  O370  1  0.86231157  0.63085188  0.86805044  1
  O  O371  1  0.14142709  0.37183135  0.12233615  1
  O  O372  1  0.13040271  0.37929150  0.62720664  1
  O  O373  1  0.13107966  0.88212935  0.13478214  1
  O  O374  1  0.12266093  0.86898587  0.63877626  1
  O  O375  1  0.63383872  0.37611320  0.13157892  1
  O  O376  1  0.63152816  0.37846044  0.63019449  1
  O  O377  1  0.62799074  0.88019578  0.13223776  1
  O  O378  1  0.62629794  0.87613460  0.63778223  1
  O  O379  1  0.12659147  0.24847143  0.26448317  1
  O  O380  1  0.12882352  0.25453739  0.76541825  1
  O  O381  1  0.12188939  0.75936220  0.25507778  1
  O  O382  1  0.12203114  0.75531182  0.75851394  1
  O  O383  1  0.61281043  0.25621542  0.25396959  1
  O  O384  1  0.61977515  0.25191619  0.75483867  1
  O  O385  1  0.62930399  0.76545891  0.25265411  1
  O  O386  1  0.62487959  0.75785164  0.75914132  1
  O  O387  1  0.38625178  0.24988354  0.24896766  1
  O  O388  1  0.38323382  0.24090989  0.74672239  1
  O  O389  1  0.36983074  0.75780776  0.24075965  1
  O  O390  1  0.37473216  0.74416657  0.74382539  1
  O  O391  1  0.87723127  0.25175863  0.23472188  1
  O  O392  1  0.87078451  0.23856155  0.74738237  1
  O  O393  1  0.87605274  0.74890009  0.24148024  1
  O  O394  1  0.88213302  0.74618819  0.74565591  1
  O  O395  1  0.38434401  0.49301017  0.50479391  1
  O  O396  1  0.37905501  0.50505972  0.98724159  1
  O  O397  1  0.37455939  0.99484224  0.49243353  1
  O  O398  1  0.37488331  0.98788035  0.99425467  1
  O  O399  1  0.88783523  0.50349098  0.49782184  1
  O  O400  1  0.87085035  0.48433997  1.00186309  1
  O  O401  1  0.88112765  1.00124139  0.49370932  1
  O  O402  1  0.88597638  0.99637602  0.99518694  1
  O  O403  1  0.11826677  -0.00392051  0.00343048  1
  O  O404  1  0.11788635  0.01151734  0.49466555  1
  O  O405  1  0.13108804  0.51568230  0.00066892  1
  O  O406  1  0.11538741  0.50473529  0.50327777  1
  O  O407  1  0.62379008  0.00395013  0.00482657  1
  O  O408  1  0.62079897  0.01539825  0.50039823  1
  O  O409  1  0.61960414  0.49642838  0.00168429  1
  O  O410  1  0.61867233  0.51156968  0.50557536  1
  O  O411  1  0.36724201  0.36278931  0.12494596  1
  O  O412  1  0.36839671  0.37273579  0.61383100  1
  O  O413  1  0.37361383  0.86258185  0.11770681  1
  O  O414  1  0.37409215  0.86402074  0.62053648  1
  O  O415  1  0.87057900  0.36838119  0.11869883  1
  O  O416  1  0.86653854  0.35741071  0.62028974  1
  O  O417  1  0.86815688  0.86887253  0.12012513  1
  O  O418  1  0.87563263  0.86194984  0.62877031  1
  O  O419  1  0.13248080  0.13172801  0.38166778  1
  O  O420  1  0.13858904  0.13562395  0.86953155  1
  O  O421  1  0.13020032  0.63095089  0.38157912  1
  O  O422  1  0.12620737  0.63774191  0.88162363  1
  O  O423  1  0.62847405  0.13222869  0.38040272  1
  O  O424  1  0.62907040  0.12908936  0.88014816  1
  O  O425  1  0.63459872  0.62585225  0.38283213  1
  O  O426  1  0.64075665  0.63417649  0.86666050  1
