# generated using pymatgen
data_V85Zn86O256
_symmetry_space_group_name_H-M   'P 1'
_cell_length_a   16.92397766
_cell_length_b   16.94093209
_cell_length_c   16.92977628
_cell_angle_alpha   89.92782465
_cell_angle_beta   89.89646831
_cell_angle_gamma   90.04502259
_symmetry_Int_Tables_number   1
_chemical_formula_structural   V85Zn86O256
_chemical_formula_sum   'V85 Zn86 O256'
_cell_volume   4853.88827640
_cell_formula_units_Z   1
loop_
 _symmetry_equiv_pos_site_id
 _symmetry_equiv_pos_as_xyz
  1  'x, y, z'
loop_
 _atom_site_type_symbol
 _atom_site_label
 _atom_site_symmetry_multiplicity
 _atom_site_fract_x
 _atom_site_fract_y
 _atom_site_fract_z
 _atom_site_occupancy
  V  V0  1  0.37657079  0.37340683  0.49877826  1
  V  V1  1  0.74234896  0.74656178  0.50220347  1
  V  V2  1  0.37401638  0.11796579  0.74982796  1
  V  V3  1  0.63838701  0.87797533  0.74852421  1
  V  V4  1  0.37879348  0.12631823  0.25015987  1
  V  V5  1  0.87267793  0.62661114  0.75319611  1
  V  V6  1  0.50153422  0.12032240  0.62357713  1
  V  V7  1  0.86823659  0.00051101  0.87795600  1
  V  V8  1  -0.00087571  0.87620090  0.37596971  1
  V  V9  1  0.87506105  0.87603235  0.00076900  1
  V  V10  1  0.50384507  0.50566462  0.49535253  1
  V  V11  1  0.74578414  0.24009770  -0.00030417  1
  V  V12  1  -0.00298546  0.50013820  0.49807323  1
  V  V13  1  0.00519088  0.75512893  0.75094631  1
  V  V14  1  0.37166275  0.50087786  0.37214239  1
  V  V15  1  0.50611373  0.12598983  0.11925196  1
  V  V16  1  0.50526986  0.62898281  0.62089100  1
  V  V17  1  0.24886324  0.00119946  0.25004462  1
  V  V18  1  0.67281584  0.55591777  0.06306036  1
  V  V19  1  0.74967267  0.86464397  0.12272866  1
  V  V20  1  0.12660169  0.25911825  0.37346790  1
  V  V21  1  0.23064256  0.52949512  0.21379512  1
  V  V22  1  0.87069604  0.00247019  0.37639470  1
  V  V23  1  0.86655720  0.87610397  0.50368729  1
  V  V24  1  0.24884085  0.12738288  0.37554690  1
  V  V25  1  0.00207694  0.25137910  0.74898990  1
  V  V26  1  0.12610475  0.75171595  0.37933105  1
  V  V27  1  0.00445950  0.25285021  0.24754945  1
  V  V28  1  0.37274414  -0.00490468  0.88493432  1
  V  V29  1  0.24675750  0.24943358  -0.00025742  1
  V  V30  1  -0.00155021  0.00252128  0.50215301  1
  V  V31  1  0.50208831  0.75117458  0.75177250  1
  V  V32  1  0.88126542  0.24908530  0.62389644  1
  V  V33  1  0.49789349  0.87265586  0.88057688  1
  V  V34  1  0.12691079  0.49978682  0.63840591  1
  V  V35  1  0.50065260  -0.00033778  0.00114493  1
  V  V36  1  0.00332602  0.88247940  0.87645506  1
  V  V37  1  0.75130972  0.37251412  0.62344598  1
  V  V38  1  -0.00752318  0.37884607  0.37176040  1
  V  V39  1  0.87518976  0.12591088  0.25497900  1
  V  V40  1  0.49723785  0.62003220  0.11706217  1
  V  V41  1  0.12087417  0.74691852  0.88048366  1
  V  V42  1  0.37804853  0.62772546  0.25004900  1
  V  V43  1  0.63255194  0.25412044  0.36942431  1
  V  V44  1  0.24991280  0.75579073  -0.00119902  1
  V  V45  1  0.73325434  0.37165942  0.12460638  1
  V  V46  1  0.37717336  0.25487072  0.11732147  1
  V  V47  1  0.87666964  0.37064857  0.00031122  1
  V  V48  1  0.30806183  0.45169500  0.80850924  1
  V  V49  1  0.24247687  0.87618055  0.62622832  1
  V  V50  1  0.50313099  0.26267578  0.24780567  1
  V  V51  1  0.12279507  0.00345600  0.11181154  1
  V  V52  1  0.37340030  0.75354378  0.62578408  1
  V  V53  1  0.37775172  0.75954732  0.11877859  1
  V  V54  1  0.23572431  0.11832272  0.88228386  1
  V  V55  1  0.62170140  0.24240905  0.87814020  1
  V  V56  1  0.50177636  0.87457199  0.37426364  1
  V  V57  1  0.25288053  0.62805503  0.87087233  1
  V  V58  1  0.63009508  0.00204743  0.11794963  1
  V  V59  1  0.74914888  0.50237207  0.75097714  1
  V  V60  1  0.12400854  0.87891403  0.24822148  1
  V  V61  1  0.24692013  0.37934872  0.62473695  1
  V  V62  1  0.74583376  0.49443172  0.26120786  1
  V  V63  1  0.74880269  0.00297778  0.25246678  1
  V  V64  1  0.25099097  0.62437682  0.38242881  1
  V  V65  1  0.11706355  0.00232715  0.62901201  1
  V  V66  1  -0.00012769  0.62521776  0.62523791  1
  V  V67  1  0.86902183  0.75441589  0.62700644  1
  V  V68  1  0.11947195  0.12721821  0.50332996  1
  V  V69  1  0.47182148  0.49645233  -0.00432517  1
  V  V70  1  0.87699974  0.50059779  0.87623964  1
  V  V71  1  0.00191339  0.12193270  0.11420593  1
  V  V72  1  0.88711217  0.74710428  0.12786712  1
  V  V73  1  0.62503914  0.50321857  0.62316069  1
  V  V74  1  0.00933553  0.50996822  0.01342777  1
  V  V75  1  0.63256507  0.74510505  0.88645138  1
  V  V76  1  0.63121960  0.12433706  0.49308235  1
  V  V77  1  0.12166738  0.25589192  0.87567456  1
  V  V78  1  0.86992146  0.11902510  0.74467360  1
  V  V79  1  0.62159776  0.37461131  0.75076769  1
  V  V80  1  0.75265155  0.62260964  0.37895728  1
  V  V81  1  0.23589554  0.36604054  0.13542561  1
  V  V82  1  0.24281223  -0.00451675  0.75115939  1
  V  V83  1  0.50083540  0.24729952  0.75014363  1
  V  V84  1  0.63842359  -0.00179104  0.62788989  1
  Zn  Zn85  1  0.25059703  0.75398751  0.50204248  1
  Zn  Zn86  1  0.37708600  0.00019103  0.37652556  1
  Zn  Zn87  1  0.00523969  0.37902325  0.87295132  1
  Zn  Zn88  1  0.37303089  0.24650572  0.62223863  1
  Zn  Zn89  1  0.74336112  0.11797040  0.87423408  1
  Zn  Zn90  1  0.48636610  0.37908946  0.87560766  1
  Zn  Zn91  1  0.62410457  0.74376533  0.37514976  1
  Zn  Zn92  1  0.88655012  0.60880338  0.25533451  1
  Zn  Zn93  1  0.50320296  0.37910484  0.36974883  1
  Zn  Zn94  1  0.25621302  0.88223557  0.11608702  1
  Zn  Zn95  1  0.50565908  0.74815011  0.24791033  1
  Zn  Zn96  1  0.87239190  0.37762574  0.49655636  1
  Zn  Zn97  1  0.25016527  0.24924877  0.50331025  1
  Zn  Zn98  1  0.74737147  0.62475896  0.89078862  1
  Zn  Zn99  1  0.37362902  0.62342549  0.75114004  1
  Zn  Zn100  1  0.00351784  0.73979654  0.24949625  1
  Zn  Zn101  1  0.12538851  0.62451009  0.50308347  1
  Zn  Zn102  1  0.49966190  0.00048338  0.49858288  1
  Zn  Zn103  1  0.37478724  0.88074799  0.50049195  1
  Zn  Zn104  1  0.75467962  0.24727160  0.49440298  1
  Zn  Zn105  1  0.62703895  0.87241018  0.25087215  1
  Zn  Zn106  1  0.87302689  0.24788184  0.12402022  1
  Zn  Zn107  1  0.18449533  0.18636903  0.18756398  1
  Zn  Zn108  1  0.18603726  0.18698693  0.68744612  1
  Zn  Zn109  1  0.19131812  0.69851435  0.18897517  1
  Zn  Zn110  1  0.18530589  0.68681714  0.69142942  1
  Zn  Zn111  1  0.68757047  0.18560198  0.18800015  1
  Zn  Zn112  1  0.68986203  0.18674613  0.68614949  1
  Zn  Zn113  1  0.69179057  0.68553543  0.19733711  1
  Zn  Zn114  1  0.68699541  0.68935931  0.69077780  1
  Zn  Zn115  1  0.31609603  0.31081260  0.31294953  1
  Zn  Zn116  1  0.30688924  0.29187006  0.80721520  1
  Zn  Zn117  1  0.31459560  0.81297293  0.31119530  1
  Zn  Zn118  1  0.31177276  0.81357139  0.81148029  1
  Zn  Zn119  1  0.81326152  0.31471284  0.30672291  1
  Zn  Zn120  1  0.81168675  0.31030639  0.81254105  1
  Zn  Zn121  1  0.81127271  0.81249778  0.31276557  1
  Zn  Zn122  1  0.81319745  0.81124705  0.81653936  1
  Zn  Zn123  1  0.18384008  0.44059514  0.44207764  1
  Zn  Zn124  1  0.18617988  0.43186141  0.94862065  1
  Zn  Zn125  1  0.18904910  0.93932372  0.43929056  1
  Zn  Zn126  1  0.18398828  0.92992675  0.93492790  1
  Zn  Zn127  1  0.68549732  0.43521022  0.43719501  1
  Zn  Zn128  1  0.69084241  0.42759496  0.93205316  1
  Zn  Zn129  1  0.68571438  0.93779992  0.43775612  1
  Zn  Zn130  1  0.68858225  0.93320905  0.93928821  1
  Zn  Zn131  1  0.31259671  0.06612003  0.06386616  1
  Zn  Zn132  1  0.31035101  0.06044546  0.56078301  1
  Zn  Zn133  1  0.29367115  0.57240364  0.06220035  1
  Zn  Zn134  1  0.31588854  0.56260913  0.56501473  1
  Zn  Zn135  1  0.81720914  0.05991702  0.06319223  1
  Zn  Zn136  1  0.81155431  0.06554588  0.56374548  1
  Zn  Zn137  1  0.83833645  0.55536443  0.07361190  1
  Zn  Zn138  1  0.81496358  0.56421188  0.56236921  1
  Zn  Zn139  1  0.42635664  0.44261111  0.18093511  1
  Zn  Zn140  1  0.44176422  0.43471741  0.67926515  1
  Zn  Zn141  1  0.44104911  0.93890864  0.19215047  1
  Zn  Zn142  1  0.43893635  0.93621594  0.68991086  1
  Zn  Zn143  1  0.93391336  0.43202934  0.18555179  1
  Zn  Zn144  1  0.93984005  0.43549858  0.68857242  1
  Zn  Zn145  1  0.93851700  0.93837268  0.18715778  1
  Zn  Zn146  1  0.93457734  0.93682220  0.68967481  1
  Zn  Zn147  1  0.06115279  0.06622992  0.31277016  1
  Zn  Zn148  1  0.05394188  0.06530337  0.80929470  1
  Zn  Zn149  1  0.06539839  0.56144085  0.31091026  1
  Zn  Zn150  1  0.06096399  0.56635155  0.81683269  1
  Zn  Zn151  1  0.56435884  0.06364942  0.30994244  1
  Zn  Zn152  1  0.56252619  0.05831401  0.81165592  1
  Zn  Zn153  1  0.56997344  0.56277199  0.30872961  1
  Zn  Zn154  1  0.55825010  0.56392188  0.81791034  1
  Zn  Zn155  1  0.44243841  0.18878771  0.43558795  1
  Zn  Zn156  1  0.43504436  0.18477942  0.93612089  1
  Zn  Zn157  1  0.43833804  0.69157866  0.43972843  1
  Zn  Zn158  1  0.43487554  0.68499827  0.93850044  1
  Zn  Zn159  1  0.93891778  0.18970865  0.43651403  1
  Zn  Zn160  1  0.93443302  0.18573368  0.93343513  1
  Zn  Zn161  1  0.93565758  0.68645205  0.43545051  1
  Zn  Zn162  1  0.93534255  0.68851291  0.94283130  1
  Zn  Zn163  1  0.06055526  0.30869186  0.05641607  1
  Zn  Zn164  1  0.06299914  0.31600712  0.56178137  1
  Zn  Zn165  1  0.06353077  0.81755218  0.05857914  1
  Zn  Zn166  1  0.05946732  0.81525210  0.56311328  1
  Zn  Zn167  1  0.55641970  0.31842858  0.05377727  1
  Zn  Zn168  1  0.56223139  0.30965362  0.55969898  1
  Zn  Zn169  1  0.56223183  0.81316537  0.06405956  1
  Zn  Zn170  1  0.56231840  0.81844203  0.56292574  1
  O  O171  1  0.11111898  0.11819288  0.12865692  1
  O  O172  1  0.12954562  0.11565980  0.61483922  1
  O  O173  1  0.19553719  0.59767718  0.13721208  1
  O  O174  1  0.11806117  0.62002178  0.62451634  1
  O  O175  1  0.61646786  0.11654939  0.12713549  1
  O  O176  1  0.61918490  0.11846014  0.62151013  1
  O  O177  1  0.61832198  0.62282790  0.12261133  1
  O  O178  1  0.61229561  0.62199460  0.63077704  1
  O  O179  1  0.37730233  0.38254141  0.38141448  1
  O  O180  1  0.36254884  0.38286833  0.86182488  1
  O  O181  1  0.38699278  0.87601809  0.37517478  1
  O  O182  1  0.38466251  0.88441277  0.86826042  1
  O  O183  1  0.88777345  0.36904314  0.37716938  1
  O  O184  1  0.87154259  0.38219449  0.88449009  1
  O  O185  1  0.88045792  0.88090342  0.38268888  1
  O  O186  1  0.87822634  0.87980274  0.88256167  1
  O  O187  1  0.24980995  0.00753158  0.36367595  1
  O  O188  1  0.25332480  0.00124404  0.87049868  1
  O  O189  1  0.25779757  0.51123825  0.38523296  1
  O  O190  1  0.24671784  0.50505220  0.87423339  1
  O  O191  1  0.75675796  -0.00413121  0.36499237  1
  O  O192  1  0.76143451  -0.00062813  0.87774345  1
  O  O193  1  0.75100229  0.50096596  0.36823880  1
  O  O194  1  0.75959861  0.50107323  0.86987421  1
  O  O195  1  0.26328651  0.47016743  0.12272671  1
  O  O196  1  0.24172957  0.49370123  0.62190352  1
  O  O197  1  0.24394228  1.00204499  0.13453341  1
  O  O198  1  0.24058170  0.99506589  0.63281047  1
  O  O199  1  0.74064836  0.49519253  0.11790868  1
  O  O200  1  0.74408374  0.49401927  0.62942452  1
  O  O201  1  0.74464756  0.99390379  0.12900687  1
  O  O202  1  0.73802392  1.00229504  0.62567381  1
  O  O203  1  -0.00458509  0.36229096  0.25497125  1
  O  O204  1  -0.00771970  0.35806794  0.75595247  1
  O  O205  1  0.01322011  0.87886842  0.25689818  1
  O  O206  1  -0.01112891  0.86494701  0.76273872  1
  O  O207  1  0.49234817  0.36526474  0.24521204  1
  O  O208  1  0.50548446  0.36894348  0.75128466  1
  O  O209  1  0.50316480  0.87228500  0.26156640  1
  O  O210  1  0.50626683  0.86652346  0.75980975  1
  O  O211  1  0.49420635  0.13133032  0.23936050  1
  O  O212  1  0.49229487  0.12489998  0.74452375  1
  O  O213  1  0.49283338  0.62032845  0.23791275  1
  O  O214  1  0.49982308  0.63869387  0.74547781  1
  O  O215  1  0.99366360  0.13457725  0.24493879  1
  O  O216  1  0.98210146  0.13823344  0.75367689  1
  O  O217  1  0.99808238  0.62678973  0.25459565  1
  O  O218  1  0.99068407  0.63471253  0.74693005  1
  O  O219  1  0.36532782  0.24166307  0.00755738  1
  O  O220  1  0.37453185  0.25910564  0.50044371  1
  O  O221  1  0.36864768  0.74824743  0.00979625  1
  O  O222  1  0.37437148  0.75431909  0.51571753  1
  O  O223  1  0.86594623  0.25501156  -0.00152610  1
  O  O224  1  0.87371131  0.25065235  0.50916336  1
  O  O225  1  0.87835778  0.76213281  0.01474136  1
  O  O226  1  0.86993905  0.75831791  0.50881549  1
  O  O227  1  0.12543004  0.24247489  0.49431175  1
  O  O228  1  0.13135964  0.24431196  0.98887339  1
  O  O229  1  0.12582789  0.75147679  0.48973013  1
  O  O230  1  0.13262300  0.75378860  0.99206075  1
  O  O231  1  0.62571502  0.24338199  0.48761647  1
  O  O232  1  0.63004728  0.25537322  0.98838656  1
  O  O233  1  0.63994947  0.75641802  0.50401728  1
  O  O234  1  0.62162357  0.75358312  0.98454997  1
  O  O235  1  0.49611106  0.24397179  0.12636696  1
  O  O236  1  0.49955559  0.23648425  0.63092801  1
  O  O237  1  0.49388516  0.74078932  0.12335947  1
  O  O238  1  0.49555637  0.74750676  0.63095838  1
  O  O239  1  0.99921956  0.23981258  0.13114104  1
  O  O240  1  0.98902990  0.25617709  0.63089657  1
  O  O241  1  0.99106886  0.75881151  0.12814186  1
  O  O242  1  0.99206351  0.74736180  0.63261423  1
  O  O243  1  0.00730788  0.25679511  0.36751015  1
  O  O244  1  0.00694611  0.24979915  0.86972531  1
  O  O245  1  0.00911340  0.75895648  0.37517255  1
  O  O246  1  0.00311087  0.75467847  0.87056608  1
  O  O247  1  0.50747569  0.25400048  0.36299109  1
  O  O248  1  0.50312806  0.25397164  0.86985761  1
  O  O249  1  0.50271471  0.76007830  0.37420994  1
  O  O250  1  0.50635465  0.75540891  0.86969998  1
  O  O251  1  0.23965580  0.12597373  0.49299113  1
  O  O252  1  0.25228692  0.13153726  0.99097124  1
  O  O253  1  0.25191071  0.63121116  0.49354056  1
  O  O254  1  0.25105378  0.64226108  0.98224865  1
  O  O255  1  0.73584024  0.12868888  0.50352900  1
  O  O256  1  0.75501143  0.13671682  0.99977842  1
  O  O257  1  0.75535307  0.63441474  0.49448141  1
  O  O258  1  0.74278664  0.60935885  1.01091165  1
  O  O259  1  0.24875956  0.35594302  0.00900708  1
  O  O260  1  0.26090093  0.37554508  0.50708309  1
  O  O261  1  0.25257961  0.86318587  -0.00256291  1
  O  O262  1  0.25297844  0.87544408  0.51128173  1
  O  O263  1  0.75477692  0.36405508  0.00602062  1
  O  O264  1  0.75055348  0.37357080  0.51236934  1
  O  O265  1  0.75944707  0.87726723  0.01137157  1
  O  O266  1  0.76159042  0.86845344  0.49578515  1
  O  O267  1  0.14840840  0.49755472  0.25976542  1
  O  O268  1  0.11578675  0.50198402  0.73808277  1
  O  O269  1  0.13192629  0.99694483  0.24557124  1
  O  O270  1  0.13080061  1.00761016  0.74196130  1
  O  O271  1  0.64516229  0.50071981  0.24548630  1
  O  O272  1  0.62638979  0.49248472  0.74590513  1
  O  O273  1  0.63350209  0.99976076  0.23908884  1
  O  O274  1  0.62300237  0.98584956  0.74615383  1
  O  O275  1  0.36684178  0.00916728  0.24973754  1
  O  O276  1  0.36847536  0.00559663  0.75768124  1
  O  O277  1  0.35570246  0.51423803  0.24806156  1
  O  O278  1  0.37551675  0.50217939  0.74953213  1
  O  O279  1  0.86985492  0.00606233  0.25532192  1
  O  O280  1  0.87639577  0.01355535  0.75344066  1
  O  O281  1  0.85304573  0.49923133  0.23132494  1
  O  O282  1  0.87112639  0.50515778  0.75724392  1
  O  O283  1  0.11876993  0.36278019  0.38204503  1
  O  O284  1  0.12779244  0.35974060  0.87520838  1
  O  O285  1  0.12186509  0.87108793  0.37000598  1
  O  O286  1  0.11287486  0.86483847  0.87346445  1
  O  O287  1  0.62021166  0.35901248  0.37821395  1
  O  O288  1  0.62344269  0.36544116  0.86067552  1
  O  O289  1  0.61310751  0.87340622  0.37450008  1
  O  O290  1  0.61980602  0.86786269  0.86607085  1
  O  O291  1  0.38126834  0.13211116  0.13457393  1
  O  O292  1  0.38132400  0.12201372  0.63264363  1
  O  O293  1  0.37944311  0.63350101  0.13143849  1
  O  O294  1  0.38557150  0.63387636  0.62947376  1
  O  O295  1  0.88658468  0.12280730  0.13578140  1
  O  O296  1  0.87254514  0.13241715  0.63578498  1
  O  O297  1  0.87255589  0.64565898  0.13034320  1
  O  O298  1  0.88179196  0.63334965  0.63231424  1
  O  O299  1  0.25557685  0.24902993  0.11843248  1
  O  O300  1  0.25192575  0.26083762  0.62613461  1
  O  O301  1  0.25872991  0.75795153  0.11585321  1
  O  O302  1  0.25526663  0.75910376  0.62881301  1
  O  O303  1  0.74979877  0.25483915  0.11869267  1
  O  O304  1  0.75941182  0.25808089  0.62415809  1
  O  O305  1  0.75854753  0.76220151  0.13231886  1
  O  O306  1  0.76204725  0.74403790  0.61978166  1
  O  O307  1  0.24294599  0.24509959  0.37725093  1
  O  O308  1  0.24152228  0.23704710  0.88068279  1
  O  O309  1  0.24349241  0.74651398  0.37844726  1
  O  O310  1  0.24100505  0.74904881  0.87684796  1
  O  O311  1  0.73694667  0.25368021  0.37250308  1
  O  O312  1  0.73966443  0.24880460  0.88252010  1
  O  O313  1  0.74963712  0.74412284  0.38506824  1
  O  O314  1  0.73742151  0.74724721  0.87630096  1
  O  O315  1  -0.00757526  0.12820438  0.01583010  1
  O  O316  1  0.01111402  0.11860312  0.49540987  1
  O  O317  1  -0.00651639  0.60953516  0.00073395  1
  O  O318  1  0.00052854  0.61946811  0.50666142  1
  O  O319  1  0.49441812  0.11821251  0.01222472  1
  O  O320  1  0.50998947  0.12487436  0.50832536  1
  O  O321  1  0.49506027  0.61346000  0.00863562  1
  O  O322  1  0.49678967  0.61802367  0.50842045  1
  O  O323  1  0.48925210  0.38215419  0.50160591  1
  O  O324  1  0.48969811  0.39019774  0.99546377  1
  O  O325  1  0.49798908  0.87799230  0.48874318  1
  O  O326  1  0.50386573  0.88101666  0.98741750  1
  O  O327  1  0.99808563  0.38177538  0.49121024  1
  O  O328  1  0.99078064  0.37827829  0.99477700  1
  O  O329  1  0.98974476  0.88228182  0.49538189  1
  O  O330  1  0.99212448  0.87362719  0.98604284  1
  O  O331  1  0.49519534  0.50062885  0.37894614  1
  O  O332  1  0.49633914  0.50031857  0.89020797  1
  O  O333  1  0.49991718  0.98928269  0.37286505  1
  O  O334  1  0.49256209  0.99348654  0.87998751  1
  O  O335  1  1.01027481  0.48804164  0.38327632  1
  O  O336  1  0.98740400  0.49863268  0.87689097  1
  O  O337  1  0.99312308  0.99527343  0.38105532  1
  O  O338  1  0.98695290  0.99087405  0.86754881  1
  O  O339  1  0.00804732  0.01329260  0.13023785  1
  O  O340  1  0.01102092  -0.00580495  0.62169825  1
  O  O341  1  -0.00465926  0.49588665  0.11272781  1
  O  O342  1  0.00594979  0.50459529  0.62118602  1
  O  O343  1  0.50753042  0.00609533  0.12190058  1
  O  O344  1  0.50714167  0.01010905  0.62725809  1
  O  O345  1  0.49124191  0.50590141  0.10965096  1
  O  O346  1  0.50488075  0.50992566  0.61747117  1
  O  O347  1  0.24935363  0.36167210  0.23584449  1
  O  O348  1  0.25754392  0.38425347  0.74704120  1
  O  O349  1  0.24086558  0.88458382  0.24961200  1
  O  O350  1  0.25096792  0.88880781  0.74445187  1
  O  O351  1  0.75244417  0.38478657  0.23868285  1
  O  O352  1  0.74300536  0.37991431  0.74078427  1
  O  O353  1  0.75129517  0.88765806  0.24146777  1
  O  O354  1  0.73691074  0.87059560  0.75171849  1
  O  O355  1  0.25748663  0.12045007  0.25365120  1
  O  O356  1  0.25609210  0.11432309  0.75659518  1
  O  O357  1  0.25892767  0.63034901  0.26791783  1
  O  O358  1  0.25182073  0.62873912  0.76296820  1
  O  O359  1  0.76034491  0.11236084  0.24247415  1
  O  O360  1  0.76548127  0.13184473  0.75429287  1
  O  O361  1  0.75706249  0.61180824  0.25791538  1
  O  O362  1  0.75677838  0.61755944  0.75013084  1
  O  O363  1  0.37168533  0.12700687  0.36309832  1
  O  O364  1  0.36598304  0.11470174  0.86749024  1
  O  O365  1  0.37219016  0.62243800  0.36916321  1
  O  O366  1  0.36343343  0.63218508  0.86750298  1
  O  O367  1  0.87998756  0.11984266  0.36325798  1
  O  O368  1  0.87110617  0.11631791  0.86628393  1
  O  O369  1  0.86079552  0.62964351  0.37138808  1
  O  O370  1  0.86850341  0.61899141  0.87304054  1
  O  O371  1  0.13678777  0.36317615  0.12477935  1
  O  O372  1  0.13857408  0.38222907  0.62183588  1
  O  O373  1  0.12679291  0.88493804  0.13320544  1
  O  O374  1  0.13488349  0.88325337  0.62228514  1
  O  O375  1  0.63385179  0.36943211  0.12129430  1
  O  O376  1  0.62933966  0.37747992  0.63369689  1
  O  O377  1  0.63364712  0.88172453  0.12593350  1
  O  O378  1  0.61973269  0.88307950  0.64003375  1
  O  O379  1  0.11567295  0.24309995  0.26082435  1
  O  O380  1  0.11355974  0.24027193  0.75899062  1
  O  O381  1  0.12603981  0.76110281  0.25960564  1
  O  O382  1  0.10958611  0.75038184  0.75466192  1
  O  O383  1  0.61788795  0.24368103  0.26074351  1
  O  O384  1  0.61930940  0.25615597  0.75280072  1
  O  O385  1  0.62333196  0.75397497  0.25416897  1
  O  O386  1  0.61898793  0.76097422  0.75545563  1
  O  O387  1  0.38477397  0.24210897  0.24364697  1
  O  O388  1  0.38147449  0.23265562  0.74705448  1
  O  O389  1  0.37771254  0.73935064  0.24314518  1
  O  O390  1  0.38443160  0.75360342  0.74000253  1
  O  O391  1  0.88131268  0.24113104  0.24678761  1
  O  O392  1  0.87843592  0.24278151  0.74335611  1
  O  O393  1  0.88094178  0.76138786  0.23533180  1
  O  O394  1  0.87917930  0.74605005  0.74454372  1
  O  O395  1  0.38651402  0.49411161  0.49619270  1
  O  O396  1  0.37384346  0.50564410  0.99933463  1
  O  O397  1  0.37973377  1.00010830  0.49521770  1
  O  O398  1  0.37846967  1.00290494  0.99037741  1
  O  O399  1  0.89127618  0.49680692  0.50816603  1
  O  O400  1  0.88224206  0.48997241  0.99233347  1
  O  O401  1  0.87708527  0.99559844  0.49781555  1
  O  O402  1  0.87543716  0.98848989  0.99255803  1
  O  O403  1  0.13142808  -0.00346664  0.01261750  1
  O  O404  1  0.11968166  0.00693225  0.50686070  1
  O  O405  1  0.10831327  0.49719001  -0.00386991  1
  O  O406  1  0.11325094  0.50286887  0.51152485  1
  O  O407  1  0.61992235  -0.00320932  0.01057334  1
  O  O408  1  0.62296425  0.00670653  0.50851017  1
  O  O409  1  0.62214628  0.49792858  -0.00213240  1
  O  O410  1  0.61107038  0.49286266  0.50619279  1
  O  O411  1  0.36926308  0.35640857  0.12809237  1
  O  O412  1  0.36588146  0.37381943  0.61715590  1
  O  O413  1  0.37684672  0.86341828  0.13277593  1
  O  O414  1  0.36466046  0.87079887  0.62716632  1
  O  O415  1  0.86523143  0.37014464  0.11047312  1
  O  O416  1  0.86625220  0.36743286  0.62560421  1
  O  O417  1  0.87033038  0.87336687  0.11857249  1
  O  O418  1  0.87824375  0.86632497  0.61714465  1
  O  O419  1  0.12910989  0.13379228  0.38215069  1
  O  O420  1  0.13314104  0.12603508  0.87134850  1
  O  O421  1  0.13518558  0.63481150  0.37931965  1
  O  O422  1  0.13002571  0.64044573  0.87008050  1
  O  O423  1  0.61818192  0.13687104  0.38276721  1
  O  O424  1  0.62434340  0.13716851  0.86738384  1
  O  O425  1  0.64289369  0.62599288  0.37221660  1
  O  O426  1  0.62761987  0.64088277  0.87011800  1
