# generated using pymatgen
data_V85Zn86O256
_symmetry_space_group_name_H-M   'P 1'
_cell_length_a   16.94989069
_cell_length_b   16.93362854
_cell_length_c   16.95596001
_cell_angle_alpha   90.04134337
_cell_angle_beta   89.98660346
_cell_angle_gamma   89.99845082
_symmetry_Int_Tables_number   1
_chemical_formula_structural   V85Zn86O256
_chemical_formula_sum   'V85 Zn86 O256'
_cell_volume   4866.75169683
_cell_formula_units_Z   1
loop_
 _symmetry_equiv_pos_site_id
 _symmetry_equiv_pos_as_xyz
  1  'x, y, z'
loop_
 _atom_site_type_symbol
 _atom_site_label
 _atom_site_symmetry_multiplicity
 _atom_site_fract_x
 _atom_site_fract_y
 _atom_site_fract_z
 _atom_site_occupancy
  V  V0  1  0.50068863  0.62202575  0.62707907  1
  V  V1  1  0.24713095  0.25054598  0.49917176  1
  V  V2  1  0.49576976  0.24994653  0.75567229  1
  V  V3  1  -0.00264739  0.50504443  -0.00234407  1
  V  V4  1  0.74920921  0.49078072  0.74750669  1
  V  V5  1  0.37364646  0.24603295  0.63095548  1
  V  V6  1  0.49711633  0.12288468  0.62103920  1
  V  V7  1  0.12389010  0.74935070  0.37981969  1
  V  V8  1  0.37172723  0.75228532  0.12398581  1
  V  V9  1  0.25712176  0.00312549  0.74451069  1
  V  V10  1  0.00540938  0.61854996  0.62599111  1
  V  V11  1  0.12873078  0.62430095  -0.00532155  1
  V  V12  1  -0.00106519  0.24960545  0.74922249  1
  V  V13  1  0.12202041  0.62016455  0.49724715  1
  V  V14  1  0.62150920  0.22985631  0.88023483  1
  V  V15  1  0.86698979  0.37886738  0.50391826  1
  V  V16  1  0.75854349  0.62104316  0.37636103  1
  V  V17  1  0.50088153  0.50053791  -0.00479279  1
  V  V18  1  0.86352319  0.25260191  0.62791732  1
  V  V19  1  -0.00318046  0.12464442  0.62651364  1
  V  V20  1  0.74702240  0.49946485  0.25534549  1
  V  V21  1  0.13557956  0.74404064  0.86972877  1
  V  V22  1  0.12233159  0.50544176  0.12408354  1
  V  V23  1  0.12417493  0.24971875  0.87439837  1
  V  V24  1  0.37223948  0.63342245  0.74999570  1
  V  V25  1  0.88270560  0.64322333  0.24016864  1
  V  V26  1  0.38008187  0.00149755  0.86869973  1
  V  V27  1  0.24991519  0.25109187  -0.00080266  1
  V  V28  1  0.62368721  0.24144734  0.37600116  1
  V  V29  1  0.75425245  0.88239108  0.62856752  1
  V  V30  1  0.11398063  0.86347725  0.23447926  1
  V  V31  1  0.62014092  0.37731043  0.25098497  1
  V  V32  1  0.50402447  0.12528970  0.11816703  1
  V  V33  1  0.62499717  0.74887739  0.37431277  1
  V  V34  1  0.74574958  0.37624762  0.11927019  1
  V  V35  1  0.62017881  0.37374784  0.76610473  1
  V  V36  1  0.38018380  0.87638360  -0.00371192  1
  V  V37  1  0.37825360  0.37639140  -0.00355859  1
  V  V38  1  0.36525898  0.62737914  0.24803832  1
  V  V39  1  0.37540257  0.37735124  0.50235313  1
  V  V40  1  0.62454467  0.48795275  0.62426829  1
  V  V41  1  0.37061548  0.50001298  0.37986339  1
  V  V42  1  0.62147074  0.50347627  0.12385943  1
  V  V43  1  0.86303858  0.00238618  0.87381812  1
  V  V44  1  0.24633549  0.12573197  0.37345123  1
  V  V45  1  0.74941826  0.01030304  0.25431752  1
  V  V46  1  0.37349205  0.25259035  0.12538409  1
  V  V47  1  0.12783344  0.87536859  0.74696220  1
  V  V48  1  0.37227818  0.12062743  0.24873035  1
  V  V49  1  0.00303158  0.12845114  0.13167195  1
  V  V50  1  0.62300794  0.63768317  -0.00244504  1
  V  V51  1  0.74542149  0.63281024  0.87304372  1
  V  V52  1  0.25428769  0.12583985  0.86851824  1
  V  V53  1  0.62293066  -0.00079728  0.62163331  1
  V  V54  1  0.29862221  0.67467143  0.43746434  1
  V  V55  1  0.87046424  0.37140860  -0.00868743  1
  V  V56  1  0.24824568  0.88917765  0.11815644  1
  V  V57  1  0.24506791  0.37832582  0.62542045  1
  V  V58  1  0.12344205  0.38135810  0.74745971  1
  V  V59  1  0.49664064  0.25201573  0.25092754  1
  V  V60  1  0.62185582  0.87511544  0.25031732  1
  V  V61  1  0.62659925  0.00195411  0.11841202  1
  V  V62  1  0.37752532  -0.00519411  0.38531705  1
  V  V63  1  0.93300282  0.43885709  0.32598072  1
  V  V64  1  0.24643213  0.50035561  0.25148089  1
  V  V65  1  -0.00223699  0.87231642  0.37246523  1
  V  V66  1  0.37375873  0.50272941  0.87388457  1
  V  V67  1  -0.00173289  0.49176030  0.50438577  1
  V  V68  1  0.12664481  0.11853888  0.00306978  1
  V  V69  1  0.50751356  0.74949582  0.75533356  1
  V  V70  1  0.74211652  0.23225346  0.00190969  1
  V  V71  1  0.24739009  0.50463414  0.75378487  1
  V  V72  1  0.62367651  0.61600458  0.50205502  1
  V  V73  1  0.63375099  0.87638149  0.75945751  1
  V  V74  1  0.49846670  0.37992768  0.38264118  1
  V  V75  1  0.76048043  0.86817095  0.12714235  1
  V  V76  1  0.00143969  -0.00107011  0.00014486  1
  V  V77  1  0.74807675  0.24263680  0.49647917  1
  V  V78  1  0.87284881  0.00750562  0.37877834  1
  V  V79  1  0.26294600  0.86401892  0.61228938  1
  V  V80  1  0.12537395  0.00054731  0.62166477  1
  V  V81  1  0.11141221  0.25497694  0.36731776  1
  V  V82  1  0.75355824  0.74919949  0.50354765  1
  V  V83  1  0.00095117  0.74990713  0.74863905  1
  V  V84  1  0.87325172  0.62318534  0.75003645  1
  Zn  Zn85  1  0.49372386  0.75208664  0.25310200  1
  Zn  Zn86  1  -0.00228973  -0.00294633  0.50204295  1
  Zn  Zn87  1  0.24523282  0.37522186  0.12497314  1
  Zn  Zn88  1  0.87637333  0.75090974  0.62501725  1
  Zn  Zn89  1  0.62259654  0.11500812  0.49450483  1
  Zn  Zn90  1  0.76274415  0.74523019  0.00472563  1
  Zn  Zn91  1  0.50821141  0.89153397  0.39691035  1
  Zn  Zn92  1  -0.00226667  0.37241642  0.87587055  1
  Zn  Zn93  1  0.87947821  0.25018632  0.12844303  1
  Zn  Zn94  1  0.49748029  0.62759148  0.12668561  1
  Zn  Zn95  1  0.85426550  0.11311487  0.75239302  1
  Zn  Zn96  1  0.25389429  0.74529502  -0.00699461  1
  Zn  Zn97  1  0.87728843  0.87518573  0.50112762  1
  Zn  Zn98  1  0.87851142  0.13182332  0.25545774  1
  Zn  Zn99  1  0.00068770  0.87700780  0.87419836  1
  Zn  Zn100  1  0.87284431  0.49714661  0.87359742  1
  Zn  Zn101  1  0.50623788  0.00518090  -0.00775797  1
  Zn  Zn102  1  0.11439910  0.37465755  0.24920979  1
  Zn  Zn103  1  0.50535849  0.87028471  0.87612325  1
  Zn  Zn104  1  0.88242987  0.86680578  0.00074587  1
  Zn  Zn105  1  0.23803565  -0.00018959  0.24674045  1
  Zn  Zn106  1  0.12080200  0.12575429  0.49671398  1
  Zn  Zn107  1  0.18427957  0.18837699  0.18690797  1
  Zn  Zn108  1  0.18514426  0.18794642  0.68707913  1
  Zn  Zn109  1  0.17146071  0.70005275  0.17706693  1
  Zn  Zn110  1  0.18796463  0.68594994  0.68090513  1
  Zn  Zn111  1  0.68578581  0.18959445  0.18714223  1
  Zn  Zn112  1  0.68309907  0.18672291  0.68721616  1
  Zn  Zn113  1  0.68969713  0.68596576  0.18921655  1
  Zn  Zn114  1  0.68680614  0.68852055  0.68725936  1
  Zn  Zn115  1  0.30724172  0.31390485  0.31140774  1
  Zn  Zn116  1  0.31380231  0.31671689  0.81350534  1
  Zn  Zn117  1  0.30557714  0.81831231  0.30828108  1
  Zn  Zn118  1  0.31425348  0.81634774  0.80613448  1
  Zn  Zn119  1  0.80500227  0.30311749  0.30764762  1
  Zn  Zn120  1  0.79535811  0.28662680  0.80334968  1
  Zn  Zn121  1  0.81184386  0.81654117  0.31283242  1
  Zn  Zn122  1  0.81664998  0.81387103  0.81650385  1
  Zn  Zn123  1  0.18426876  0.43764240  0.43588386  1
  Zn  Zn124  1  0.18853954  0.43730778  0.93516120  1
  Zn  Zn125  1  0.18690606  0.93688536  0.43526561  1
  Zn  Zn126  1  0.19001536  0.93681561  0.93294536  1
  Zn  Zn127  1  0.68816181  0.43355287  0.43794918  1
  Zn  Zn128  1  0.68652046  0.44235756  0.93390156  1
  Zn  Zn129  1  0.69149255  0.93588755  0.43950159  1
  Zn  Zn130  1  0.69222146  0.93621055  0.94313178  1
  Zn  Zn131  1  0.31922418  0.06511373  0.05603035  1
  Zn  Zn132  1  0.31068652  0.06447043  0.56108165  1
  Zn  Zn133  1  0.30757802  0.56338485  0.06353259  1
  Zn  Zn134  1  0.31651468  0.55708486  0.57159444  1
  Zn  Zn135  1  0.82003052  0.05553022  0.06627518  1
  Zn  Zn136  1  0.81162270  0.06356996  0.56292100  1
  Zn  Zn137  1  0.81167575  0.56379160  0.06214567  1
  Zn  Zn138  1  0.81299634  0.55933619  0.56690977  1
  Zn  Zn139  1  0.43460310  0.44041627  0.18615805  1
  Zn  Zn140  1  0.43922850  0.43674070  0.68929477  1
  Zn  Zn141  1  0.43890825  0.93911165  0.18960204  1
  Zn  Zn142  1  0.44138292  0.93397023  0.68382062  1
  Zn  Zn143  1  0.93181690  0.44289894  0.16490398  1
  Zn  Zn144  1  0.93617411  0.43497607  0.68581904  1
  Zn  Zn145  1  0.94038693  0.94597555  0.19041901  1
  Zn  Zn146  1  0.93623886  0.93776904  0.69106504  1
  Zn  Zn147  1  0.06552039  0.05049527  0.31036520  1
  Zn  Zn148  1  0.06113364  0.06260340  0.81307568  1
  Zn  Zn149  1  0.06476343  0.57204489  0.31013990  1
  Zn  Zn150  1  0.06111231  0.56083862  0.81618785  1
  Zn  Zn151  1  0.55748126  0.06163905  0.30665208  1
  Zn  Zn152  1  0.56124519  0.06102348  0.80046257  1
  Zn  Zn153  1  0.55554142  0.56732259  0.31514629  1
  Zn  Zn154  1  0.56238830  0.56212503  0.81491085  1
  Zn  Zn155  1  0.43518671  0.18724933  0.43941621  1
  Zn  Zn156  1  0.43618586  0.18765532  0.93504818  1
  Zn  Zn157  1  0.46740115  0.73534065  0.47247743  1
  Zn  Zn158  1  0.43704664  0.68587209  0.93468933  1
  Zn  Zn159  1  0.93617479  0.18677470  0.44178349  1
  Zn  Zn160  1  0.93443820  0.18481003  0.93932187  1
  Zn  Zn161  1  0.93962024  0.68591075  0.43364973  1
  Zn  Zn162  1  0.94037423  0.68915286  0.93508620  1
  Zn  Zn163  1  0.06204545  0.31354493  0.06216803  1
  Zn  Zn164  1  0.06115280  0.31126219  0.55991384  1
  Zn  Zn165  1  0.06980936  0.81697595  0.05801778  1
  Zn  Zn166  1  0.06534278  0.81053695  0.56045846  1
  Zn  Zn167  1  0.56081846  0.31295950  0.05907969  1
  Zn  Zn168  1  0.56139076  0.31072942  0.56342119  1
  Zn  Zn169  1  0.56024617  0.81483438  0.06694594  1
  Zn  Zn170  1  0.57084254  0.80996408  0.57267247  1
  O  O171  1  0.11751525  0.12653101  0.11443150  1
  O  O172  1  0.11734090  0.11718874  0.62465033  1
  O  O173  1  0.12516011  0.61366593  0.11500793  1
  O  O174  1  0.11228917  0.62521687  0.61738163  1
  O  O175  1  0.61437309  0.11582439  0.13328535  1
  O  O176  1  0.61843183  0.11638922  0.62502163  1
  O  O177  1  0.62374214  0.61924659  0.11829549  1
  O  O178  1  0.62374749  0.61342542  0.61966736  1
  O  O179  1  0.37918095  0.38102369  0.38005228  1
  O  O180  1  0.37197263  0.38890055  0.88341284  1
  O  O181  1  0.37408989  0.89280537  0.36638924  1
  O  O182  1  0.37766441  0.88338877  0.87945777  1
  O  O183  1  0.87622447  0.37231654  0.37963916  1
  O  O184  1  0.86850300  0.37166142  0.88565459  1
  O  O185  1  0.88125336  0.88317066  0.37695166  1
  O  O186  1  0.88062186  0.88664217  0.87664612  1
  O  O187  1  0.25550032  0.01042473  0.37045517  1
  O  O188  1  0.25835093  0.00572770  0.86468641  1
  O  O189  1  0.26003900  0.49376795  0.36639243  1
  O  O190  1  0.25677946  0.49699503  0.86161866  1
  O  O191  1  0.75854002  -0.00642278  0.36591969  1
  O  O192  1  0.76371578  -0.00041069  0.88082059  1
  O  O193  1  0.74450003  0.50505576  0.36357035  1
  O  O194  1  0.75129029  0.51016515  0.86316006  1
  O  O195  1  0.24043898  0.49756265  0.13183883  1
  O  O196  1  0.25389745  0.48531201  0.63783965  1
  O  O197  1  0.26851785  0.99112954  0.12757984  1
  O  O198  1  0.24346516  0.99884224  0.63084349  1
  O  O199  1  0.74398885  0.49243199  0.13444867  1
  O  O200  1  0.74032539  0.50348903  0.63939947  1
  O  O201  1  0.74383174  0.99224582  0.13311103  1
  O  O202  1  0.74553153  0.98876259  0.62476235  1
  O  O203  1  -0.00931502  0.39047960  0.25697686  1
  O  O204  1  0.01046154  0.37221239  0.75092431  1
  O  O205  1  0.00111391  0.87888668  0.26342539  1
  O  O206  1  0.00999137  0.86562402  0.74782971  1
  O  O207  1  0.50113212  0.37203328  0.25825211  1
  O  O208  1  0.50697725  0.36188066  0.74694113  1
  O  O209  1  0.51293921  0.87402435  0.25389562  1
  O  O210  1  0.51241150  0.86620090  0.74945163  1
  O  O211  1  0.49025042  0.13267685  0.24111084  1
  O  O212  1  0.50232461  0.14036460  0.73669097  1
  O  O213  1  0.48054791  0.62561491  0.24778053  1
  O  O214  1  0.49529896  0.62892574  0.74754780  1
  O  O215  1  1.00582865  0.11519439  0.23338929  1
  O  O216  1  1.00057309  0.13461102  0.74093111  1
  O  O217  1  0.98106481  0.62378192  0.25452191  1
  O  O218  1  0.99485799  0.62701416  0.74366931  1
  O  O219  1  0.37062182  0.25892917  0.00246510  1
  O  O220  1  0.36650439  0.25765279  0.50750588  1
  O  O221  1  0.37446034  0.75731001  0.00399030  1
  O  O222  1  0.36012024  0.71516559  0.50264138  1
  O  O223  1  0.85950879  0.25425261  0.00296482  1
  O  O224  1  0.86735287  0.25512149  0.50611713  1
  O  O225  1  0.87715448  0.75278966  -0.00103121  1
  O  O226  1  0.86369673  0.74658469  0.50053606  1
  O  O227  1  0.13047674  0.24874034  0.48865263  1
  O  O228  1  0.13108404  0.24313479  0.99285103  1
  O  O229  1  0.12287988  0.73357550  0.49421474  1
  O  O230  1  0.12602957  0.74229578  0.98691728  1
  O  O231  1  0.63198093  0.25264016  0.49228621  1
  O  O232  1  0.63129905  0.24827180  0.99556679  1
  O  O233  1  0.63958251  0.73887802  0.49520426  1
  O  O234  1  0.62589149  0.73945268  1.00605218  1
  O  O235  1  0.49470048  0.24543125  0.13105055  1
  O  O236  1  0.49089550  0.24704017  0.63194292  1
  O  O237  1  0.48452775  0.75074948  0.12975426  1
  O  O238  1  0.51004997  0.73213329  0.64018912  1
  O  O239  1  1.00048355  0.23360037  0.11826159  1
  O  O240  1  0.99357928  0.24283054  0.62926875  1
  O  O241  1  1.07897280  0.78464159  0.16509523  1
  O  O242  1  1.00050886  0.74164188  0.63459891  1
  O  O243  1  0.01353941  0.24390849  0.37826538  1
  O  O244  1  0.00394180  0.24992880  0.86672290  1
  O  O245  1  0.01097103  0.75753070  0.37829275  1
  O  O246  1  0.01225141  0.75018093  0.85960770  1
  O  O247  1  0.50177107  0.25901675  0.36995353  1
  O  O248  1  0.50651776  0.24570137  0.86809550  1
  O  O249  1  0.51948964  0.73844569  0.36829256  1
  O  O250  1  0.49813035  0.75025551  0.86104464  1
  O  O251  1  0.24570047  0.13244787  0.49076749  1
  O  O252  1  0.24470646  0.12986136  0.99244652  1
  O  O253  1  0.24069381  0.61301599  0.50014162  1
  O  O254  1  0.23525523  0.62606380  1.00008554  1
  O  O255  1  0.74466277  0.13826172  0.50308349  1
  O  O256  1  0.75078406  0.13463960  1.01155654  1
  O  O257  1  0.74596230  0.62671046  0.49459260  1
  O  O258  1  0.74117372  0.62376881  0.99192582  1
  O  O259  1  0.26019556  0.37049331  0.00062257  1
  O  O260  1  0.25170545  0.37136528  0.50896686  1
  O  O261  1  0.26426418  0.87720508  0.00301255  1
  O  O262  1  0.24660625  0.88027392  0.51417377  1
  O  O263  1  0.75102729  0.37810511  0.00819587  1
  O  O264  1  0.76132155  0.36605510  0.49544318  1
  O  O265  1  0.75093794  0.87138039  0.01774685  1
  O  O266  1  0.75212694  0.86459978  0.51012905  1
  O  O267  1  0.12918193  0.50154424  0.24308913  1
  O  O268  1  0.13223003  0.49052163  0.75494477  1
  O  O269  1  0.12344005  0.97310530  0.24686915  1
  O  O270  1  0.13168508  0.99372910  0.74152014  1
  O  O271  1  0.62912269  0.49907788  0.24541742  1
  O  O272  1  0.62913265  0.49148850  0.74692531  1
  O  O273  1  0.63042642  0.99298291  0.24557903  1
  O  O274  1  0.62426825  0.98540930  0.73858525  1
  O  O275  1  0.37418050  0.01329018  0.25537128  1
  O  O276  1  0.36624638  -0.00393486  0.75499914  1
  O  O277  1  0.36610085  0.50708348  0.25532579  1
  O  O278  1  0.36916535  0.50406799  0.75773411  1
  O  O279  1  0.86611793  0.00617888  0.25830376  1
  O  O280  1  0.87814468  0.00103486  0.76627180  1
  O  O281  1  0.86943541  0.49079803  0.25867140  1
  O  O282  1  0.86632969  0.50376135  0.74914995  1
  O  O283  1  0.12622868  0.35991017  0.37140786  1
  O  O284  1  0.12515747  0.36643167  0.86555447  1
  O  O285  1  0.11731226  0.86807578  0.36994226  1
  O  O286  1  0.12598214  0.87010165  0.85981856  1
  O  O287  1  0.61377821  0.37114455  0.37052945  1
  O  O288  1  0.62122106  0.37197096  0.86839311  1
  O  O289  1  0.62546613  0.86657015  0.36972367  1
  O  O290  1  0.62631838  0.88256313  0.86289565  1
  O  O291  1  0.37989828  0.13206327  0.13182947  1
  O  O292  1  0.37877707  0.13805792  0.62132117  1
  O  O293  1  0.37136582  0.63518506  0.13047700  1
  O  O294  1  0.38833579  0.61471830  0.63844187  1
  O  O295  1  0.89178285  0.12514979  0.12428791  1
  O  O296  1  0.87996071  0.13228405  0.63167418  1
  O  O297  1  0.86839634  0.61937725  0.14264617  1
  O  O298  1  0.88331608  0.62594588  0.63583210  1
  O  O299  1  0.25553545  0.25149162  0.11738908  1
  O  O300  1  0.25578365  0.25775931  0.62346188  1
  O  O301  1  0.25873013  0.76427039  0.11716270  1
  O  O302  1  0.24714080  0.76524547  0.62663015  1
  O  O303  1  0.74143412  0.26101748  0.11363622  1
  O  O304  1  0.75947632  0.25245466  0.61443134  1
  O  O305  1  0.74597245  0.76519703  0.12758997  1
  O  O306  1  0.75171112  0.75711415  0.61812090  1
  O  O307  1  0.24519750  0.23942463  0.37765240  1
  O  O308  1  0.24738251  0.24251772  0.87733697  1
  O  O309  1  0.25174691  0.75419551  0.39222224  1
  O  O310  1  0.23963053  0.75634383  0.87225599  1
  O  O311  1  0.73421591  0.25496444  0.38275792  1
  O  O312  1  0.73529207  0.25478741  0.89780144  1
  O  O313  1  0.74284719  0.74250649  0.38107828  1
  O  O314  1  0.75389166  0.73598459  0.87554092  1
  O  O315  1  0.00977671  0.11998163  0.00463330  1
  O  O316  1  0.00041628  0.12280016  0.51542575  1
  O  O317  1  0.01271428  0.61463971  -0.01054450  1
  O  O318  1  0.00185795  0.61439968  0.50631823  1
  O  O319  1  0.49216435  0.12438992  0.01436623  1
  O  O320  1  0.50403717  0.13527599  0.51570453  1
  O  O321  1  0.50637014  0.61939044  0.00197739  1
  O  O322  1  0.51709366  0.63190715  0.51049130  1
  O  O323  1  0.49423560  0.37147708  0.48881881  1
  O  O324  1  0.48641259  0.38367975  1.00392180  1
  O  O325  1  0.49743861  0.84214975  0.49656287  1
  O  O326  1  0.49177768  0.87831448  0.99643990  1
  O  O327  1  0.99166250  0.38539354  0.50252433  1
  O  O328  1  0.98777626  0.37902455  0.99808180  1
  O  O329  1  0.99876943  0.87510768  0.49005803  1
  O  O330  1  1.00402008  0.88429854  0.99683265  1
  O  O331  1  0.48338000  0.49273051  0.36956549  1
  O  O332  1  0.49218525  0.50263120  0.88791801  1
  O  O333  1  0.48466031  1.00352084  0.37418660  1
  O  O334  1  0.48995389  1.00110107  0.87081055  1
  O  O335  1  0.99408292  0.50098013  0.38080629  1
  O  O336  1  0.99556301  0.49271420  0.88377168  1
  O  O337  1  0.99206543  0.99243432  0.37955252  1
  O  O338  1  0.99928095  0.99937163  0.88624138  1
  O  O339  1  -0.00237396  0.01029159  0.10939101  1
  O  O340  1  0.00734397  0.00687252  0.62751007  1
  O  O341  1  0.00730319  0.50140035  0.10763851  1
  O  O342  1  -0.00298932  0.50682211  0.61688025  1
  O  O343  1  0.50813146  0.00874306  0.12608502  1
  O  O344  1  0.50789381  0.01068708  0.63010667  1
  O  O345  1  0.50196524  0.50372420  0.11356182  1
  O  O346  1  0.51140402  0.51057982  0.63284461  1
  O  O347  1  0.24806276  0.38854974  0.24623930  1
  O  O348  1  0.24190748  0.37993772  0.74451982  1
  O  O349  1  0.24202932  0.87596831  0.23030290  1
  O  O350  1  0.24412835  0.88537744  0.74095014  1
  O  O351  1  0.74000564  0.38190273  0.24233368  1
  O  O352  1  0.73736635  0.38124981  0.75598177  1
  O  O353  1  0.74055673  0.88208555  0.24242832  1
  O  O354  1  0.74088674  0.86771011  0.74417532  1
  O  O355  1  0.25465524  0.12213571  0.25470447  1
  O  O356  1  0.24484431  0.11521675  0.75644680  1
  O  O357  1  0.25771727  0.61361935  0.24236620  1
  O  O358  1  0.25846567  0.61518468  0.73986081  1
  O  O359  1  0.74695616  0.11271933  0.24677937  1
  O  O360  1  0.76623638  0.18036900  0.75853409  1
  O  O361  1  0.75721877  0.61613670  0.25706284  1
  O  O362  1  0.75608506  0.61923524  0.75358152  1
  O  O363  1  0.36728961  0.12114380  0.36743894  1
  O  O364  1  0.36236265  0.11729075  0.87840643  1
  O  O365  1  0.36155092  0.62008949  0.37007636  1
  O  O366  1  0.37600900  0.61239552  0.86645849  1
  O  O367  1  0.88002120  0.11228132  0.37494487  1
  O  O368  1  0.88046560  0.10772461  0.87493724  1
  O  O369  1  0.86206052  0.62814074  0.36642939  1
  O  O370  1  0.87104470  0.62081209  0.86102471  1
  O  O371  1  0.12268486  0.38797103  0.12781196  1
  O  O372  1  0.13374739  0.36780665  0.63426562  1
  O  O373  1  0.14837186  0.89736039  0.10617397  1
  O  O374  1  0.12933118  0.88193552  0.63272537  1
  O  O375  1  0.62766487  0.38250764  0.12925206  1
  O  O376  1  0.61841271  0.38482917  0.63339290  1
  O  O377  1  0.63046767  0.88256084  0.13354626  1
  O  O378  1  0.63488176  0.88053002  0.63450070  1
  O  O379  1  0.12652439  0.25432325  0.26201507  1
  O  O380  1  0.11532933  0.25729521  0.75305652  1
  O  O381  1  0.15382633  0.75106851  0.27949765  1
  O  O382  1  0.12175528  0.75535232  0.75127337  1
  O  O383  1  0.61821325  0.25748476  0.25765225  1
  O  O384  1  0.61600589  0.25718323  0.76099434  1
  O  O385  1  0.62709626  0.75700108  0.25790304  1
  O  O386  1  0.62128532  0.76344614  0.74864030  1
  O  O387  1  0.37642604  0.24137753  0.24668854  1
  O  O388  1  0.38087191  0.25653631  0.74194016  1
  O  O389  1  0.36946041  0.74465050  0.24327885  1
  O  O390  1  0.38126363  0.73764224  0.75353393  1
  O  O391  1  0.86711174  0.24331945  0.24107070  1
  O  O392  1  0.89323051  0.26782642  0.74020889  1
  O  O393  1  0.87056810  0.74252994  0.24828309  1
  O  O394  1  0.88476208  0.74155569  0.74963745  1
  O  O395  1  0.36970231  0.49224709  0.49122711  1
  O  O396  1  0.37834458  0.49702621  0.99455474  1
  O  O397  1  0.37091936  1.00527768  0.48373382  1
  O  O398  1  0.38021532  0.99352905  0.98699535  1
  O  O399  1  0.87999290  0.49050956  0.50239689  1
  O  O400  1  0.88053676  0.49328089  0.99801428  1
  O  O401  1  0.87450782  0.99724347  0.49334092  1
  O  O402  1  0.88427303  0.99364492  0.99151185  1
  O  O403  1  0.12255645  0.01360993  -0.01059396  1
  O  O404  1  0.12342108  0.00224007  0.51244319  1
  O  O405  1  0.11959253  0.50397469  0.00255707  1
  O  O406  1  0.11269384  0.50826994  0.49299109  1
  O  O407  1  0.62336218  -0.00389575  0.01420807  1
  O  O408  1  0.62836007  -0.00233434  0.51400657  1
  O  O409  1  0.61597468  0.50612396  0.00418050  1
  O  O410  1  0.63201696  0.50483436  0.50986713  1
  O  O411  1  0.37235469  0.36903494  0.11709009  1
  O  O412  1  0.36863642  0.36760819  0.62126249  1
  O  O413  1  0.37236573  0.87154441  0.11670033  1
  O  O414  1  0.36193511  0.87744579  0.62686372  1
  O  O415  1  0.86180142  0.37156792  0.11134734  1
  O  O416  1  0.87806004  0.36525466  0.61433976  1
  O  O417  1  0.86182969  0.88210632  0.12978867  1
  O  O418  1  0.86822224  0.87196869  0.62463583  1
  O  O419  1  0.13113581  0.12960946  0.37271705  1
  O  O420  1  0.13606316  0.13043579  0.87868940  1
  O  O421  1  0.12484963  0.63196191  0.38586334  1
  O  O422  1  0.12560101  0.63328176  0.87830494  1
  O  O423  1  0.61326177  0.13765250  0.37581001  1
  O  O424  1  0.62074760  0.13064914  0.87135414  1
  O  O425  1  0.63501593  0.62641760  0.38224770  1
  O  O426  1  0.63325463  0.62029906  0.88479232  1
