# generated using pymatgen
data_V85Zn86O256
_symmetry_space_group_name_H-M   'P 1'
_cell_length_a   16.93546157
_cell_length_b   16.94066217
_cell_length_c   16.93674242
_cell_angle_alpha   89.99332415
_cell_angle_beta   89.99516292
_cell_angle_gamma   90.05265170
_symmetry_Int_Tables_number   1
_chemical_formula_structural   V85Zn86O256
_chemical_formula_sum   'V85 Zn86 O256'
_cell_volume   4859.11428898
_cell_formula_units_Z   1
loop_
 _symmetry_equiv_pos_site_id
 _symmetry_equiv_pos_as_xyz
  1  'x, y, z'
loop_
 _atom_site_type_symbol
 _atom_site_label
 _atom_site_symmetry_multiplicity
 _atom_site_fract_x
 _atom_site_fract_y
 _atom_site_fract_z
 _atom_site_occupancy
  V  V0  1  0.86863923  0.36181785  0.49498208  1
  V  V1  1  0.74628823  0.36288834  0.62060523  1
  V  V2  1  0.86773546  0.61342371  0.74955298  1
  V  V3  1  0.24534400  0.63392555  0.37331378  1
  V  V4  1  0.37631168  0.25047240  0.62567168  1
  V  V5  1  0.74983830  0.01510242  0.75480764  1
  V  V6  1  0.63459980  0.50515074  0.62582113  1
  V  V7  1  0.11664187  0.25305653  0.86840566  1
  V  V8  1  0.75261468  0.36776134  0.11488614  1
  V  V9  1  0.75075738  0.75022974  -0.00309688  1
  V  V10  1  0.62893367  -0.00096365  0.13230484  1
  V  V11  1  0.50673190  0.12394077  0.62069733  1
  V  V12  1  0.62949159  0.13747361  0.49520148  1
  V  V13  1  0.49570858  0.87603373  0.37689876  1
  V  V14  1  0.50188984  0.50259158  0.50023113  1
  V  V15  1  0.49970842  0.86998477  0.87251279  1
  V  V16  1  0.37836509  0.12619618  0.74932246  1
  V  V17  1  0.87424320  0.74998946  0.12656221  1
  V  V18  1  0.62761240  0.74888352  0.87110044  1
  V  V19  1  0.50315902  0.24634681  0.26041326  1
  V  V20  1  0.24690387  0.12492818  0.37502332  1
  V  V21  1  0.37252120  -0.00437336  0.38066878  1
  V  V22  1  0.00482683  0.26384060  0.25188140  1
  V  V23  1  0.75178459  0.76845829  0.50361033  1
  V  V24  1  0.24548180  -0.00010959  0.74098271  1
  V  V25  1  0.26400494  0.75444829  0.50263968  1
  V  V26  1  0.37659970  0.50397221  0.37096184  1
  V  V27  1  0.86526760  -0.00687024  0.37903967  1
  V  V28  1  0.75038183  0.62704798  0.37854291  1
  V  V29  1  0.37657313  0.62932495  0.24517908  1
  V  V30  1  0.24097599  0.00325074  0.24405752  1
  V  V31  1  0.37734983  0.12319651  0.24795600  1
  V  V32  1  0.00188966  0.12403740  0.63172327  1
  V  V33  1  0.12313549  0.74786482  0.87118911  1
  V  V34  1  0.48723117  0.62829841  0.62701201  1
  V  V35  1  0.25406120  0.25279568  -0.00095761  1
  V  V36  1  0.87754773  0.24936492  0.63718979  1
  V  V37  1  0.87844162  0.87602158  -0.00163666  1
  V  V38  1  0.74935473  0.49888719  0.25072900  1
  V  V39  1  0.12323254  0.87584243  0.73828524  1
  V  V40  1  0.24987036  0.74718781  -0.00159118  1
  V  V41  1  0.25274196  0.12518375  0.87306693  1
  V  V42  1  0.25058695  0.61861286  0.85878762  1
  V  V43  1  0.00107760  0.62237545  0.12105607  1
  V  V44  1  0.00290481  0.87173225  0.37767167  1
  V  V45  1  0.75156115  0.60889023  0.87205194  1
  V  V46  1  -0.00481949  0.61947842  0.61991824  1
  V  V47  1  0.37686130  0.37511602  0.50097573  1
  V  V48  1  0.51754428  0.14220415  0.10727024  1
  V  V49  1  0.11846569  0.64147593  0.49664290  1
  V  V50  1  0.63470598  0.87434664  0.74254995  1
  V  V51  1  -0.01820778  0.48781108  -0.01057163  1
  V  V52  1  0.12600991  0.86623970  0.25084399  1
  V  V53  1  0.26539662  0.87252564  0.62197788  1
  V  V54  1  0.62724087  0.37122912  0.25618873  1
  V  V55  1  0.62646617  0.62735184  0.50119644  1
  V  V56  1  0.50275328  0.37329773  0.37649563  1
  V  V57  1  0.62469179  0.75268158  0.37274991  1
  V  V58  1  0.62303640  0.50299914  0.11944350  1
  V  V59  1  0.87299019  0.49685169  0.38423227  1
  V  V60  1  0.86960182  0.76357918  0.62359846  1
  V  V61  1  0.00929812  -0.00361528  0.00846386  1
  V  V62  1  0.51422303  0.25200537  0.74995818  1
  V  V63  1  0.62878243  0.38467483  0.74836660  1
  V  V64  1  0.75020371  0.14017931  0.37549950  1
  V  V65  1  0.52367439  0.02141409  -0.02089574  1
  V  V66  1  -0.00041694  -0.00475405  0.50338189  1
  V  V67  1  0.37305666  -0.00116719  0.87230155  1
  V  V68  1  0.87317552  0.00842355  0.87969008  1
  V  V69  1  0.37769198  0.87549173  -0.00012438  1
  V  V70  1  0.36995764  0.50186087  0.86188610  1
  V  V71  1  0.87548717  0.11860267  0.24564871  1
  V  V72  1  0.24679657  0.24963630  0.50039136  1
  V  V73  1  0.48928273  0.74857930  0.74398520  1
  V  V74  1  0.87514873  0.62476482  0.25142751  1
  V  V75  1  0.51054183  0.38023240  0.87531027  1
  V  V76  1  0.37906379  0.37826339  0.00165402  1
  V  V77  1  0.24502339  0.88018500  0.12086885  1
  V  V78  1  0.12298960  0.11961867  0.50346406  1
  V  V79  1  0.04679164  0.44375874  0.44688000  1
  V  V80  1  0.13502661  0.11901490  0.01039082  1
  V  V81  1  -0.00506652  0.74918068  0.74807006  1
  V  V82  1  0.24632395  0.38160912  0.63686213  1
  V  V83  1  0.12463012  0.61813549  -0.00341664  1
  V  V84  1  0.63520929  -0.00047361  0.61842663  1
  Zn  Zn85  1  0.75517758  0.88642520  0.13000915  1
  Zn  Zn86  1  0.65159951  0.17788905  0.94865404  1
  Zn  Zn87  1  0.49725534  -0.00360267  0.50182869  1
  Zn  Zn88  1  0.00257599  0.74994800  0.25379043  1
  Zn  Zn89  1  0.49772682  0.50602424  0.00111643  1
  Zn  Zn90  1  0.11781256  0.26033248  0.37564782  1
  Zn  Zn91  1  -0.06985804  0.38475633  0.84684640  1
  Zn  Zn92  1  0.50080581  0.63056623  0.12193543  1
  Zn  Zn93  1  0.10460545  0.38356508  0.76257166  1
  Zn  Zn94  1  0.00933194  0.12111347  0.13161550  1
  Zn  Zn95  1  0.37452537  0.25531742  0.13041443  1
  Zn  Zn96  1  0.24595862  0.37680231  0.13309816  1
  Zn  Zn97  1  0.88296908  0.12509316  0.75471926  1
  Zn  Zn98  1  0.50003756  0.75652047  0.24461722  1
  Zn  Zn99  1  0.87710458  0.25276291  0.12198434  1
  Zn  Zn100  1  0.23870058  0.49375643  0.24883874  1
  Zn  Zn101  1  0.11871115  0.48167383  0.13124006  1
  Zn  Zn102  1  0.62330104  0.62893564  0.00187525  1
  Zn  Zn103  1  0.12671367  0.50548677  0.63584481  1
  Zn  Zn104  1  0.37791905  0.75212000  0.12349749  1
  Zn  Zn105  1  0.63197310  0.87975457  0.25330234  1
  Zn  Zn106  1  0.00204058  0.87533568  0.87309258  1
  Zn  Zn107  1  0.18780473  0.19739902  0.18889067  1
  Zn  Zn108  1  0.18598443  0.18911559  0.68690382  1
  Zn  Zn109  1  0.19022093  0.68350629  0.18315809  1
  Zn  Zn110  1  0.18538367  0.68896931  0.68124373  1
  Zn  Zn111  1  0.69068893  0.18778284  0.19387467  1
  Zn  Zn112  1  0.73962056  0.24029709  0.77019645  1
  Zn  Zn113  1  0.69009901  0.69015689  0.18882596  1
  Zn  Zn114  1  0.68801722  0.68887686  0.68606818  1
  Zn  Zn115  1  0.31227647  0.31245669  0.31353744  1
  Zn  Zn116  1  0.32041624  0.31158224  0.81626931  1
  Zn  Zn117  1  0.31138254  0.81282878  0.31143237  1
  Zn  Zn118  1  0.30851617  0.81053190  0.81118874  1
  Zn  Zn119  1  0.81964899  0.31184087  0.30579368  1
  Zn  Zn120  1  0.80250096  0.25062527  0.94434252  1
  Zn  Zn121  1  0.81121444  0.81630956  0.31063227  1
  Zn  Zn122  1  0.81263112  0.81536667  0.81130944  1
  Zn  Zn123  1  0.20652234  0.44206543  0.43997302  1
  Zn  Zn124  1  0.18438893  0.43405944  0.94782223  1
  Zn  Zn125  1  0.18489679  0.93571146  0.43745345  1
  Zn  Zn126  1  0.18815626  0.93496385  0.93165050  1
  Zn  Zn127  1  0.68914601  0.43559920  0.43887830  1
  Zn  Zn128  1  0.73200411  0.39289964  0.89855892  1
  Zn  Zn129  1  0.68396523  0.94169671  0.43537815  1
  Zn  Zn130  1  0.69252210  0.93409223  0.93558617  1
  Zn  Zn131  1  0.32445211  0.06440065  0.06219179  1
  Zn  Zn132  1  0.31268027  0.06231038  0.56405899  1
  Zn  Zn133  1  0.30966605  0.55823058  0.06148595  1
  Zn  Zn134  1  0.30944933  0.56353487  0.55968948  1
  Zn  Zn135  1  0.80369528  0.07654986  0.05169746  1
  Zn  Zn136  1  0.81306925  0.06608183  0.55978120  1
  Zn  Zn137  1  0.80684418  0.56205154  0.06259372  1
  Zn  Zn138  1  0.81219126  0.56343789  0.56306668  1
  Zn  Zn139  1  0.43662912  0.43826751  0.18873805  1
  Zn  Zn140  1  0.43997659  0.44049505  0.68510379  1
  Zn  Zn141  1  0.44371529  0.94325307  0.18533208  1
  Zn  Zn142  1  0.44299720  0.93694388  0.68824176  1
  Zn  Zn143  1  0.93432021  0.44139904  0.18426457  1
  Zn  Zn144  1  0.93694458  0.43681544  0.67894898  1
  Zn  Zn145  1  0.93746394  0.93881775  0.19002451  1
  Zn  Zn146  1  0.93655574  0.94102798  0.68841531  1
  Zn  Zn147  1  0.06033653  0.06130273  0.31704328  1
  Zn  Zn148  1  0.06537953  0.05925620  0.82017062  1
  Zn  Zn149  1  0.06369452  0.56980314  0.30905049  1
  Zn  Zn150  1  0.05369299  0.55503047  0.81154430  1
  Zn  Zn151  1  0.56355467  0.06344090  0.31369251  1
  Zn  Zn152  1  0.56390923  0.06166389  0.80640383  1
  Zn  Zn153  1  0.56264196  0.56410414  0.30902720  1
  Zn  Zn154  1  0.55983036  0.56534194  0.81193005  1
  Zn  Zn155  1  0.43570262  0.18391621  0.43777881  1
  Zn  Zn156  1  0.46485508  0.19873910  0.94591278  1
  Zn  Zn157  1  0.43975841  0.68807918  0.43559085  1
  Zn  Zn158  1  0.43727813  0.68388951  0.93554102  1
  Zn  Zn159  1  0.93865609  0.18601249  0.43475371  1
  Zn  Zn160  1  0.95217384  0.18110821  0.94254657  1
  Zn  Zn161  1  0.93278228  0.69228125  0.43901164  1
  Zn  Zn162  1  0.93604427  0.68353944  0.93424320  1
  Zn  Zn163  1  0.05616650  0.30654869  0.06054964  1
  Zn  Zn164  1  0.06436740  0.30531965  0.57255464  1
  Zn  Zn165  1  0.06464908  0.80953331  0.06325174  1
  Zn  Zn166  1  0.06117997  0.81175794  0.56420363  1
  Zn  Zn167  1  0.56286251  0.31759838  0.06874538  1
  Zn  Zn168  1  0.56405248  0.31245243  0.56291880  1
  Zn  Zn169  1  0.56164642  0.81756905  0.06121092  1
  Zn  Zn170  1  0.55937354  0.81432911  0.56030165  1
  O  O171  1  0.13374400  0.12538643  0.11325233  1
  O  O172  1  0.11777598  0.13151432  0.61308582  1
  O  O173  1  0.11358036  0.63314159  0.11089878  1
  O  O174  1  0.11562100  0.62430247  0.61379382  1
  O  O175  1  0.61840611  0.11861848  0.13360686  1
  O  O176  1  0.61454614  0.11716829  0.61441053  1
  O  O177  1  0.62595057  0.61686098  0.12736416  1
  O  O178  1  0.62154438  0.61967499  0.61878880  1
  O  O179  1  0.38135503  0.38453485  0.38225005  1
  O  O180  1  0.38593418  0.38584813  0.87887605  1
  O  O181  1  0.38063175  0.88467546  0.36931838  1
  O  O182  1  0.37668365  0.87998658  0.87832625  1
  O  O183  1  0.87052738  0.38252223  0.38293849  1
  O  O184  1  0.83522025  0.34873956  0.88419872  1
  O  O185  1  0.88212412  0.88845084  0.37083454  1
  O  O186  1  0.87692799  0.88091592  0.88670504  1
  O  O187  1  0.25518364  0.00462388  0.36720349  1
  O  O188  1  0.25642954  0.00267692  0.86187621  1
  O  O189  1  0.26043186  0.51619791  0.37491335  1
  O  O190  1  0.26133332  0.50464156  0.87927584  1
  O  O191  1  0.76339206  0.00393703  0.37815909  1
  O  O192  1  0.76049947  -0.00289792  0.86873006  1
  O  O193  1  0.75596769  0.50619924  0.37079030  1
  O  O194  1  0.74336944  0.51095032  0.87974893  1
  O  O195  1  0.24161431  0.49897701  0.12701328  1
  O  O196  1  0.24755231  0.48493824  0.61700230  1
  O  O197  1  0.25838808  0.99294436  0.13266872  1
  O  O198  1  0.25212656  0.99335842  0.63461946  1
  O  O199  1  0.74279048  0.49320258  0.13335619  1
  O  O200  1  0.73826580  0.49220288  0.61913379  1
  O  O201  1  0.73209600  1.00490074  0.11239799  1
  O  O202  1  0.74018130  1.00706736  0.63235993  1
  O  O203  1  -0.00655025  0.36249543  0.24461788  1
  O  O204  1  -0.01015135  0.37559121  0.75444305  1
  O  O205  1  0.00997915  0.87490965  0.25485962  1
  O  O206  1  0.00812337  0.87063449  0.75027614  1
  O  O207  1  0.50554044  0.36831015  0.25771210  1
  O  O208  1  0.50815458  0.37131989  0.75197753  1
  O  O209  1  0.50476521  0.87624178  0.26113448  1
  O  O210  1  0.51205693  0.86927437  0.75425416  1
  O  O211  1  0.49576459  0.13155581  0.24657786  1
  O  O212  1  0.49993858  0.13403723  0.74049840  1
  O  O213  1  0.48633971  0.62923310  0.25156802  1
  O  O214  1  0.50518641  0.63680813  0.73906816  1
  O  O215  1  0.98884179  0.12374248  0.25068585  1
  O  O216  1  1.00361261  0.11057996  0.73508775  1
  O  O217  1  0.99232844  0.63091696  0.23966987  1
  O  O218  1  0.98593453  0.63015455  0.74308450  1
  O  O219  1  0.37428556  0.26309394  -0.00195820  1
  O  O220  1  0.36788896  0.25277972  0.50611472  1
  O  O221  1  0.37021950  0.76254642  -0.00514226  1
  O  O222  1  0.36263811  0.74704999  0.49884093  1
  O  O223  1  0.89316467  0.24329653  0.01127761  1
  O  O224  1  0.88004631  0.25916403  0.50632189  1
  O  O225  1  0.87079896  0.75630388  0.00314419  1
  O  O226  1  0.86076369  0.74801506  0.50903849  1
  O  O227  1  0.13180698  0.24424204  0.49704291  1
  O  O228  1  0.13686089  0.23719843  0.98913302  1
  O  O229  1  0.13395928  0.74330173  0.50196821  1
  O  O230  1  0.12775011  0.74229047  0.98864875  1
  O  O231  1  0.62125262  0.23681963  0.50036441  1
  O  O232  1  0.56390431  0.21384988  1.02231360  1
  O  O233  1  0.63236690  0.74737420  0.49140391  1
  O  O234  1  0.63438394  0.75337336  0.99063149  1
  O  O235  1  0.49396969  0.24932337  0.14568996  1
  O  O236  1  0.49524442  0.24361436  0.62951093  1
  O  O237  1  0.49719630  0.75068306  0.12646585  1
  O  O238  1  0.50551552  0.74126126  0.63140276  1
  O  O239  1  1.00115078  0.24100171  0.13906482  1
  O  O240  1  0.98979402  0.23822595  0.62585261  1
  O  O241  1  0.98820778  0.74063808  0.12151593  1
  O  O242  1  0.99116648  0.74188457  0.62926527  1
  O  O243  1  -0.00067666  0.24813081  0.35906237  1
  O  O244  1  0.01739220  0.24311698  0.87071561  1
  O  O245  1  -0.00898505  0.76718289  0.37336769  1
  O  O246  1  0.00722126  0.75076750  0.86731622  1
  O  O247  1  0.49539790  0.25543069  0.36834962  1
  O  O248  1  0.49818187  0.26752197  0.86133712  1
  O  O249  1  0.50866409  0.75762130  0.37461338  1
  O  O250  1  0.50886496  0.75135217  0.86708284  1
  O  O251  1  0.24288731  0.13105478  0.49907867  1
  O  O252  1  0.25245874  0.12787632  0.99292901  1
  O  O253  1  0.24273776  0.63615866  0.49534892  1
  O  O254  1  0.24037127  0.62900322  0.99115784  1
  O  O255  1  0.74392852  0.12360820  0.48601501  1
  O  O256  1  0.75364272  0.15065776  0.98889798  1
  O  O257  1  0.74280504  0.62998870  0.49455025  1
  O  O258  1  0.74933565  0.63648721  0.99086947  1
  O  O259  1  0.26469203  0.36492168  -0.00673360  1
  O  O260  1  0.25775054  0.36596737  0.50806699  1
  O  O261  1  0.25546278  0.87067219  0.00417737  1
  O  O262  1  0.24574192  0.86262815  0.50567765  1
  O  O263  1  0.73233751  0.37261878  0.01802456  1
  O  O264  1  0.75746179  0.37427434  0.50678738  1
  O  O265  1  0.75970219  0.86422630  0.00373479  1
  O  O266  1  0.74599863  0.86700351  0.49809774  1
  O  O267  1  0.12536927  0.51146321  0.24066811  1
  O  O268  1  0.12271124  0.49553603  0.74878697  1
  O  O269  1  0.13747140  0.99503444  0.25289312  1
  O  O270  1  0.13505818  0.98834131  0.75712029  1
  O  O271  1  0.63116524  0.49397104  0.24549768  1
  O  O272  1  0.61792140  0.49624701  0.73712210  1
  O  O273  1  0.62221800  1.00083208  0.23580111  1
  O  O274  1  0.63219732  0.99523279  0.74345393  1
  O  O275  1  0.36802431  0.00719946  0.25664333  1
  O  O276  1  0.36984861  0.00301594  0.75635739  1
  O  O277  1  0.37637720  0.50809660  0.26191975  1
  O  O278  1  0.37551564  0.49632082  0.76285130  1
  O  O279  1  0.88062687  0.00959009  0.26502856  1
  O  O280  1  0.86633410  -0.00028843  0.75967568  1
  O  O281  1  0.87015862  0.50494728  0.26158198  1
  O  O282  1  0.87071846  0.51504613  0.74097231  1
  O  O283  1  0.11222752  0.38514848  0.39442444  1
  O  O284  1  0.13155532  0.35687791  0.87856981  1
  O  O285  1  0.11627524  0.87960648  0.36312414  1
  O  O286  1  0.12862272  0.86013286  0.86343735  1
  O  O287  1  0.61876058  0.38135079  0.36470810  1
  O  O288  1  0.61595946  0.39320968  0.86378200  1
  O  O289  1  0.61829799  0.86856268  0.37386920  1
  O  O290  1  0.62204186  0.86458965  0.86774557  1
  O  O291  1  0.38295456  0.12805566  0.14051818  1
  O  O292  1  0.38664440  0.12786159  0.62910709  1
  O  O293  1  0.37456786  0.62662344  0.13328394  1
  O  O294  1  0.38806334  0.61802515  0.62079807  1
  O  O295  1  0.87207729  0.11565919  0.14157743  1
  O  O296  1  0.88348471  0.13269908  0.62427267  1
  O  O297  1  0.87984183  0.63105053  0.12886162  1
  O  O298  1  0.87663040  0.63324533  0.63237151  1
  O  O299  1  0.25660593  0.24797358  0.10964725  1
  O  O300  1  0.25524131  0.25671739  0.61638624  1
  O  O301  1  0.25418612  0.75897335  0.11467483  1
  O  O302  1  0.25117046  0.75625527  0.61197104  1
  O  O303  1  0.75116303  0.26415350  0.13354996  1
  O  O304  1  0.75401082  0.26162651  0.62812512  1
  O  O305  1  0.76238451  0.74669136  0.11498168  1
  O  O306  1  0.75540460  0.74913866  0.61425991  1
  O  O307  1  0.24842027  0.24501589  0.38810180  1
  O  O308  1  0.25455075  0.24165285  0.88376494  1
  O  O309  1  0.25346870  0.74204694  0.38581639  1
  O  O310  1  0.24271489  0.74140983  0.87844169  1
  O  O311  1  0.75622206  0.23860563  0.37346974  1
  O  O312  1  0.70751677  0.25450968  0.87877264  1
  O  O313  1  0.74529495  0.74690661  0.38433156  1
  O  O314  1  0.74403969  0.74751367  0.88009144  1
  O  O315  1  0.01884354  0.11256126  0.00605355  1
  O  O316  1  0.00653789  0.11833642  0.50555041  1
  O  O317  1  0.00426367  0.61961361  0.00326747  1
  O  O318  1  0.00680283  0.63505892  0.50590474  1
  O  O319  1  0.45890946  0.10548960  0.01550054  1
  O  O320  1  0.50588548  0.12156576  0.50512990  1
  O  O321  1  0.50566341  0.62317160  0.00164839  1
  O  O322  1  0.50791592  0.62288283  0.50573084  1
  O  O323  1  0.49597816  0.38103870  0.49641469  1
  O  O324  1  0.49843551  0.38008186  0.99061889  1
  O  O325  1  0.50230971  0.87869731  0.48437896  1
  O  O326  1  0.49245105  0.88585550  0.99037686  1
  O  O327  1  0.99314509  0.37992248  0.50788535  1
  O  O328  1  0.99539978  0.38931453  1.00189361  1
  O  O329  1  1.00892404  0.88392336  0.49254899  1
  O  O330  1  0.99531370  0.87774740  0.99859820  1
  O  O331  1  0.49464620  0.49689288  0.38062667  1
  O  O332  1  0.48890543  0.49704899  0.87509609  1
  O  O333  1  0.49020942  0.99507032  0.37447328  1
  O  O334  1  0.48946085  0.98762278  0.87184919  1
  O  O335  1  0.99333046  0.50282413  0.38007519  1
  O  O336  1  0.98622546  0.49453133  0.88402875  1
  O  O337  1  0.99164151  0.99237522  0.38412934  1
  O  O338  1  0.99433075  0.99398411  0.88780988  1
  O  O339  1  -0.00093290  -0.00087381  0.11246553  1
  O  O340  1  -0.00798667  0.00582844  0.61032230  1
  O  O341  1  -0.00123177  0.51146104  0.11577666  1
  O  O342  1  -0.00298520  0.51648191  0.62070408  1
  O  O343  1  0.51586727  0.01183993  0.11226076  1
  O  O344  1  0.50884192  0.00856415  0.62496962  1
  O  O345  1  0.50987887  0.50366097  0.12732738  1
  O  O346  1  0.50888092  0.50722814  0.61728318  1
  O  O347  1  0.25451455  0.37875286  0.24862418  1
  O  O348  1  0.25811522  0.36913143  0.73535809  1
  O  O349  1  0.24456195  0.88234607  0.24193418  1
  O  O350  1  0.24518843  0.87965438  0.74088075  1
  O  O351  1  0.74222763  0.38052969  0.24842210  1
  O  O352  1  0.73194932  0.37164799  0.74046369  1
  O  O353  1  0.74549199  0.87106127  0.24131776  1
  O  O354  1  0.73785639  0.88513818  0.75395751  1
  O  O355  1  0.25573133  0.12060539  0.25323856  1
  O  O356  1  0.25574584  0.11695941  0.75029429  1
  O  O357  1  0.26012767  0.62905938  0.25879809  1
  O  O358  1  0.24572892  0.63099438  0.75994174  1
  O  O359  1  0.76282277  0.12667954  0.26308790  1
  O  O360  1  0.75074402  0.11679387  0.75449259  1
  O  O361  1  0.75625893  0.61991382  0.25832462  1
  O  O362  1  0.75986583  0.62972938  0.75576116  1
  O  O363  1  0.36771239  0.11820652  0.36605982  1
  O  O364  1  0.37210428  0.11510027  0.86608662  1
  O  O365  1  0.36959603  0.62053782  0.36993246  1
  O  O366  1  0.36563538  0.61094845  0.87715180  1
  O  O367  1  0.86629956  0.11701151  0.37060869  1
  O  O368  1  0.88781208  0.11153170  0.87344468  1
  O  O369  1  0.87025758  0.61849690  0.37238034  1
  O  O370  1  0.86593770  0.63046041  0.85847440  1
  O  O371  1  0.13693762  0.37586150  0.09274940  1
  O  O372  1  0.13876654  0.37316142  0.62908154  1
  O  O373  1  0.13827202  0.87323848  0.12928150  1
  O  O374  1  0.13487619  0.86900408  0.63573391  1
  O  O375  1  0.62928373  0.38251780  0.13850370  1
  O  O376  1  0.62883512  0.38445648  0.62634610  1
  O  O377  1  0.62520048  0.88923560  0.12730721  1
  O  O378  1  0.61931325  0.88654411  0.63157341  1
  O  O379  1  0.11143734  0.24826793  0.25682349  1
  O  O380  1  0.13441075  0.25278728  0.76586806  1
  O  O381  1  0.12564903  0.76227061  0.24454762  1
  O  O382  1  0.11676407  0.75402570  0.75292221  1
  O  O383  1  0.61645978  0.25946871  0.25021671  1
  O  O384  1  0.61544208  0.26079533  0.73924268  1
  O  O385  1  0.62430767  0.74746728  0.26482045  1
  O  O386  1  0.62225329  0.75837487  0.75402092  1
  O  O387  1  0.38189221  0.23867888  0.25525804  1
  O  O388  1  0.38563294  0.24430850  0.74342487  1
  O  O389  1  0.37621213  0.74263970  0.24741924  1
  O  O390  1  0.39020220  0.75695009  0.75283483  1
  O  O391  1  0.88557299  0.23678884  0.24592162  1
  O  O392  1  0.85995098  0.24143754  0.73865955  1
  O  O393  1  0.87640248  0.74417362  0.24074660  1
  O  O394  1  0.87780101  0.74720141  0.74241167  1
  O  O395  1  0.37971340  0.49776851  0.48873842  1
  O  O396  1  0.37667538  0.48957505  0.99157808  1
  O  O397  1  0.37401274  1.00681592  0.48464281  1
  O  O398  1  0.36924538  0.98796510  0.98339185  1
  O  O399  1  0.87068443  0.49294499  0.48926180  1
  O  O400  1  0.88375730  0.50408817  1.00288262  1
  O  O401  1  0.88260194  1.00485804  0.48626152  1
  O  O402  1  0.88044739  0.99358698  0.99665825  1
  O  O403  1  0.12164534  0.00541499  -0.00772841  1
  O  O404  1  0.11575454  0.00907757  0.49679108  1
  O  O405  1  0.11193279  0.51295723  -0.00750463  1
  O  O406  1  0.11575166  0.50338727  0.49875970  1
  O  O407  1  0.62002820  -0.00882191  0.00566851  1
  O  O408  1  0.62277470  0.00847523  0.50670414  1
  O  O409  1  0.62524066  0.50272083  0.01783734  1
  O  O410  1  0.62035388  0.50693582  0.50486642  1
  O  O411  1  0.37546302  0.37495396  0.11441291  1
  O  O412  1  0.36943620  0.37179809  0.61905006  1
  O  O413  1  0.36877457  0.87917942  0.11442638  1
  O  O414  1  0.36497020  0.88007530  0.62632184  1
  O  O415  1  0.85607138  0.37743924  0.12814727  1
  O  O416  1  0.86575077  0.36788806  0.61618092  1
  O  O417  1  0.87686223  0.86822139  0.11512340  1
  O  O418  1  0.87786524  0.86285180  0.62807821  1
  O  O419  1  0.13148525  0.12603557  0.38622316  1
  O  O420  1  0.13668234  0.13125100  0.88043856  1
  O  O421  1  0.13351134  0.62549158  0.38446244  1
  O  O422  1  0.12763293  0.63222204  0.87727963  1
  O  O423  1  0.64159632  0.11925165  0.37916623  1
  O  O424  1  0.57074518  0.10337704  0.91043871  1
  O  O425  1  0.62876545  0.63265981  0.38130087  1
  O  O426  1  0.63306850  0.63679259  0.87219145  1
