# generated using pymatgen
data_V85Zn86O256
_symmetry_space_group_name_H-M   'P 1'
_cell_length_a   16.93266997
_cell_length_b   16.92562585
_cell_length_c   16.92454767
_cell_angle_alpha   90.02121703
_cell_angle_beta   90.03677839
_cell_angle_gamma   89.99968516
_symmetry_Int_Tables_number   1
_chemical_formula_structural   V85Zn86O256
_chemical_formula_sum   'V85 Zn86 O256'
_cell_volume   4850.50695007
_cell_formula_units_Z   1
loop_
 _symmetry_equiv_pos_site_id
 _symmetry_equiv_pos_as_xyz
  1  'x, y, z'
loop_
 _atom_site_type_symbol
 _atom_site_label
 _atom_site_symmetry_multiplicity
 _atom_site_fract_x
 _atom_site_fract_y
 _atom_site_fract_z
 _atom_site_occupancy
  V  V0  1  0.62527749  0.87603700  0.75032983  1
  V  V1  1  0.74944552  0.00146692  0.74949961  1
  V  V2  1  0.25762821  0.87036611  0.62517976  1
  V  V3  1  0.00197828  0.51054354  0.00222782  1
  V  V4  1  0.00176480  0.37459826  0.87702642  1
  V  V5  1  0.24372539  0.75224260  0.00645514  1
  V  V6  1  0.74939662  0.12337540  0.37272503  1
  V  V7  1  0.11864531  0.25036639  0.37425870  1
  V  V8  1  0.87379962  0.13059933  0.24842043  1
  V  V9  1  0.62500532  0.12800092  0.00048573  1
  V  V10  1  0.12018641  0.74813979  0.87016166  1
  V  V11  1  0.13121046  0.51188451  0.12068732  1
  V  V12  1  0.50008124  0.12579269  0.12534752  1
  V  V13  1  0.75024021  0.75305989  0.00240187  1
  V  V14  1  0.00311397  0.25003360  0.74848514  1
  V  V15  1  0.50044244  0.75467453  0.25318194  1
  V  V16  1  0.62595901  0.62262187  0.00166013  1
  V  V17  1  0.75015428  0.87889413  0.13156179  1
  V  V18  1  0.75704587  0.61632391  0.37682678  1
  V  V19  1  0.37571987  0.50148573  0.87726849  1
  V  V20  1  0.74992682  0.25586899  0.01156992  1
  V  V21  1  0.37633125  0.25484993  0.11947136  1
  V  V22  1  0.37090658  0.11883435  0.75760408  1
  V  V23  1  0.75498209  0.49318531  0.24804501  1
  V  V24  1  0.12323706  0.37428167  0.25363503  1
  V  V25  1  0.25754398  0.25397408  0.49829345  1
  V  V26  1  0.63051083  0.49284937  0.12415903  1
  V  V27  1  -0.05483481  0.43731758  0.43564909  1
  V  V28  1  0.48531272  0.37567514  0.37713305  1
  V  V29  1  0.49272585  0.87855766  0.87458862  1
  V  V30  1  0.37862154  -0.01055870  0.37497660  1
  V  V31  1  0.87132364  -0.00178822  0.36901377  1
  V  V32  1  0.48730747  0.49391810  0.49739706  1
  V  V33  1  0.00332356  0.63173621  0.62868596  1
  V  V34  1  0.87572770  0.12826683  0.74402223  1
  V  V35  1  0.12001158  0.49638661  0.62168672  1
  V  V36  1  -0.00143045  0.12871836  0.12222846  1
  V  V37  1  0.62624824  0.12818592  0.50207039  1
  V  V38  1  0.37035912  0.87476991  0.00592246  1
  V  V39  1  0.88386795  0.75323725  0.12968717  1
  V  V40  1  0.49139336  0.75096046  0.74187390  1
  V  V41  1  0.12075228  0.74679362  0.37297369  1
  V  V42  1  0.37861626  0.25240549  0.63089280  1
  V  V43  1  0.76224648  0.26397949  0.50940162  1
  V  V44  1  0.75306591  0.74420996  0.50348447  1
  V  V45  1  0.62617672  -0.00069588  0.12761004  1
  V  V46  1  0.20047136  0.31425910  0.06726600  1
  V  V47  1  0.62330575  0.75174419  0.37679574  1
  V  V48  1  0.12580750  0.12197934  0.50050157  1
  V  V49  1  0.37811657  0.61923218  0.25355123  1
  V  V50  1  0.62607927  0.88092787  0.25666669  1
  V  V51  1  0.25536344  0.37611933  0.62138004  1
  V  V52  1  0.62152237  0.25187083  0.86273978  1
  V  V53  1  0.88234045  0.62603774  0.25062152  1
  V  V54  1  0.24540426  0.62750179  0.88077273  1
  V  V55  1  0.49524752  0.00108947  -0.00354203  1
  V  V56  1  0.24976067  -0.00863437  0.24745257  1
  V  V57  1  0.49758029  0.36951423  0.86342054  1
  V  V58  1  0.88176318  0.63136704  0.74940396  1
  V  V59  1  0.87647828  0.00098476  0.87734039  1
  V  V60  1  0.00051926  0.87088605  0.36918788  1
  V  V61  1  0.00032969  0.87412870  0.86815433  1
  V  V62  1  0.12505532  0.86837374  0.24255604  1
  V  V63  1  0.74908492  0.62577183  0.86535574  1
  V  V64  1  0.62845187  0.49451681  0.63505140  1
  V  V65  1  0.49966934  0.25074804  0.25042671  1
  V  V66  1  0.62626307  0.00175173  0.62512799  1
  V  V67  1  0.87396475  0.50195588  0.87156288  1
  V  V68  1  0.12110136  0.62038190  0.49819230  1
  V  V69  1  0.25733545  0.49208988  0.24549846  1
  V  V70  1  0.62277261  0.75154933  0.87470875  1
  V  V71  1  0.62495099  0.61780226  0.50064134  1
  V  V72  1  0.86665278  0.37584705  0.01024534  1
  V  V73  1  0.87688904  0.87392035  0.50083574  1
  V  V74  1  0.49945831  0.13008124  0.63123694  1
  V  V75  1  -0.00043796  0.12863554  0.62308547  1
  V  V76  1  0.25256604  0.12120730  0.37599479  1
  V  V77  1  0.62560062  0.25545703  0.37908413  1
  V  V78  1  0.12561045  0.00042771  0.11950564  1
  V  V79  1  0.50071490  -0.00522941  0.49684538  1
  V  V80  1  0.74943270  0.12781716  0.87712154  1
  V  V81  1  0.25005028  0.50066407  0.74932094  1
  V  V82  1  0.25248212  0.61845651  0.37456240  1
  V  V83  1  0.50154745  0.62589940  0.12499414  1
  V  V84  1  0.24129139  0.12417573  0.89153635  1
  Zn  Zn85  1  0.12818828  0.37098440  0.75152741  1
  Zn  Zn86  1  0.50087372  0.49762498  -0.00170489  1
  Zn  Zn87  1  0.12180137  0.87468180  0.74471591  1
  Zn  Zn88  1  0.36993506  0.75287487  0.12878552  1
  Zn  Zn89  1  0.62942966  0.37303460  0.24593240  1
  Zn  Zn90  1  -0.01062540  0.25759313  0.25351393  1
  Zn  Zn91  1  0.12865693  0.24858639  0.88674342  1
  Zn  Zn92  1  0.37398059  0.37470007  0.00227341  1
  Zn  Zn93  1  0.00520910  0.63374657  0.12627658  1
  Zn  Zn94  1  0.38285676  0.86274490  0.50150588  1
  Zn  Zn95  1  0.37476671  0.12311225  0.25047881  1
  Zn  Zn96  1  0.87748305  0.87831472  0.00190370  1
  Zn  Zn97  1  0.75245175  0.37707092  0.66304425  1
  Zn  Zn98  1  0.88105687  0.75217328  0.62852881  1
  Zn  Zn99  1  0.00716395  0.00450603  -0.00344719  1
  Zn  Zn100  1  0.24749949  -0.00170019  0.75265358  1
  Zn  Zn101  1  0.12655411  -0.00191892  0.62779530  1
  Zn  Zn102  1  -0.00017666  -0.00018472  0.49968826  1
  Zn  Zn103  1  0.75355930  0.87447342  0.62643401  1
  Zn  Zn104  1  0.36903711  0.63277167  0.74472518  1
  Zn  Zn105  1  0.49164866  0.62852082  0.61730702  1
  Zn  Zn106  1  0.25729166  0.74494538  0.50546298  1
  Zn  Zn107  1  0.18281938  0.17853959  0.19343484  1
  Zn  Zn108  1  0.18818126  0.18779296  0.68860271  1
  Zn  Zn109  1  0.19044661  0.68781443  0.19057727  1
  Zn  Zn110  1  0.18812861  0.68955334  0.68957830  1
  Zn  Zn111  1  0.68790474  0.18765864  0.19102393  1
  Zn  Zn112  1  0.69137178  0.19147514  0.68475117  1
  Zn  Zn113  1  0.69178402  0.68707102  0.19026156  1
  Zn  Zn114  1  0.68275228  0.68435579  0.68416954  1
  Zn  Zn115  1  0.30959742  0.30907755  0.30720971  1
  Zn  Zn116  1  0.31131761  0.30852450  0.81350375  1
  Zn  Zn117  1  0.31072481  0.80725917  0.31723991  1
  Zn  Zn118  1  0.30931068  0.81699652  0.81603258  1
  Zn  Zn119  1  0.81322600  0.31572691  0.32193635  1
  Zn  Zn120  1  0.82002035  0.30582561  0.81771573  1
  Zn  Zn121  1  0.80983015  0.80831504  0.31340525  1
  Zn  Zn122  1  0.81346625  0.81335878  0.81231911  1
  Zn  Zn123  1  0.18572616  0.43738550  0.43579560  1
  Zn  Zn124  1  0.18332064  0.44377808  0.93394700  1
  Zn  Zn125  1  0.18962269  0.93370782  0.44062740  1
  Zn  Zn126  1  0.19065799  0.93887144  0.93166068  1
  Zn  Zn127  1  0.68410059  0.43820790  0.43694944  1
  Zn  Zn128  1  0.70715290  0.41762515  0.87622013  1
  Zn  Zn129  1  0.68995685  0.93692879  0.43925579  1
  Zn  Zn130  1  0.68499646  0.93902111  0.93823761  1
  Zn  Zn131  1  0.31532753  0.06142539  0.06644105  1
  Zn  Zn132  1  0.31376476  0.05727793  0.56499480  1
  Zn  Zn133  1  0.31365121  0.56609201  0.06285624  1
  Zn  Zn134  1  0.31315351  0.56620611  0.56327817  1
  Zn  Zn135  1  0.81215000  0.06407591  0.06397339  1
  Zn  Zn136  1  0.81281240  0.06427231  0.55863843  1
  Zn  Zn137  1  0.81311870  0.56443302  0.06254070  1
  Zn  Zn138  1  0.83436412  0.51875330  0.57777654  1
  Zn  Zn139  1  0.44136260  0.43536312  0.18514124  1
  Zn  Zn140  1  0.43610706  0.44331269  0.68451081  1
  Zn  Zn141  1  0.43881551  0.93658198  0.18740427  1
  Zn  Zn142  1  0.43629762  0.93977265  0.68502342  1
  Zn  Zn143  1  0.93997421  0.44299066  0.19053296  1
  Zn  Zn144  1  0.93882323  0.43512165  0.68840702  1
  Zn  Zn145  1  0.93882401  0.94137124  0.18969074  1
  Zn  Zn146  1  0.93961454  0.94211021  0.68640279  1
  Zn  Zn147  1  0.06042930  0.05932907  0.31094486  1
  Zn  Zn148  1  0.06759763  0.06256029  0.81293898  1
  Zn  Zn149  1  0.06309583  0.55858137  0.30897830  1
  Zn  Zn150  1  0.06449607  0.56370534  0.81159044  1
  Zn  Zn151  1  0.56286708  0.06455299  0.31457542  1
  Zn  Zn152  1  0.55955415  0.06573167  0.81209010  1
  Zn  Zn153  1  0.56510032  0.55981423  0.31437406  1
  Zn  Zn154  1  0.55736700  0.56573739  0.81429547  1
  Zn  Zn155  1  0.43716661  0.18365601  0.44025769  1
  Zn  Zn156  1  0.43571596  0.18948953  0.93611883  1
  Zn  Zn157  1  0.43825819  0.68359844  0.43574078  1
  Zn  Zn158  1  0.43393694  0.68964531  0.93549570  1
  Zn  Zn159  1  0.93587392  0.19029303  0.43757793  1
  Zn  Zn160  1  0.93635787  0.19026473  0.93899432  1
  Zn  Zn161  1  0.93917880  0.68001378  0.44072167  1
  Zn  Zn162  1  0.93627837  0.69211088  0.93909912  1
  Zn  Zn163  1  0.03697856  0.31970224  0.07225805  1
  Zn  Zn164  1  0.06317976  0.31177554  0.56050259  1
  Zn  Zn165  1  0.06256785  0.81887783  0.05339313  1
  Zn  Zn166  1  0.06873927  0.81085584  0.55941657  1
  Zn  Zn167  1  0.55936126  0.31578273  0.05334822  1
  Zn  Zn168  1  0.56575464  0.31798581  0.56594971  1
  Zn  Zn169  1  0.56165306  0.81244519  0.06439358  1
  Zn  Zn170  1  0.56685718  0.81431397  0.56285918  1
  O  O171  1  0.10918857  0.11483540  0.13278599  1
  O  O172  1  0.11942076  0.12507098  0.61554888  1
  O  O173  1  0.12288289  0.61590735  0.13000970  1
  O  O174  1  0.12336205  0.61951121  0.61856938  1
  O  O175  1  0.62013379  0.11923705  0.12159578  1
  O  O176  1  0.61785481  0.12278101  0.62300076  1
  O  O177  1  0.62027805  0.62312945  0.12011952  1
  O  O178  1  0.61388740  0.62342045  0.61137338  1
  O  O179  1  0.38620582  0.36617545  0.37154400  1
  O  O180  1  0.38112552  0.37984743  0.87657109  1
  O  O181  1  0.37215066  0.88659934  0.37581099  1
  O  O182  1  0.38727852  0.87321829  0.88546280  1
  O  O183  1  0.89336134  0.37475836  0.37264430  1
  O  O184  1  0.88726530  0.38495214  0.88218210  1
  O  O185  1  0.87995633  0.87814192  0.37798914  1
  O  O186  1  0.87926361  0.88414759  0.87596458  1
  O  O187  1  0.25587586  0.00378119  0.36895571  1
  O  O188  1  0.24961414  0.01762269  0.87179747  1
  O  O189  1  0.24274392  0.51105467  0.36249712  1
  O  O190  1  0.25385898  0.50735676  0.86931676  1
  O  O191  1  0.75754146  0.01104764  0.38192599  1
  O  O192  1  0.75399943  0.00711550  0.86928707  1
  O  O193  1  0.74105892  0.51142339  0.36625065  1
  O  O194  1  0.76195655  0.51647897  0.88681676  1
  O  O195  1  0.24407771  0.50495711  0.13202800  1
  O  O196  1  0.24551448  0.49360053  0.63167972  1
  O  O197  1  0.24288168  1.00751525  0.13998315  1
  O  O198  1  0.24748940  0.98788546  0.62598057  1
  O  O199  1  0.74118597  0.50848606  0.13386327  1
  O  O200  1  0.72760741  0.51458929  0.62489628  1
  O  O201  1  0.74322877  0.98664533  0.11927272  1
  O  O202  1  0.74405293  1.00215126  0.63106238  1
  O  O203  1  0.01793787  0.37142968  0.23623879  1
  O  O204  1  0.00142786  0.36757686  0.75803195  1
  O  O205  1  0.00690702  0.87758328  0.26247248  1
  O  O206  1  -0.00329212  0.87851610  0.76319746  1
  O  O207  1  0.50373127  0.36442108  0.25660243  1
  O  O208  1  0.49234174  0.37903133  0.76416204  1
  O  O209  1  0.50822997  0.86152176  0.24581806  1
  O  O210  1  0.50252068  0.87020745  0.75641935  1
  O  O211  1  0.50096777  0.13711742  0.24619641  1
  O  O212  1  0.48904275  0.12344938  0.73931874  1
  O  O213  1  0.49662208  0.63073724  0.24607086  1
  O  O214  1  0.49945213  0.64496232  0.75254368  1
  O  O215  1  0.99029592  0.12482223  0.24386060  1
  O  O216  1  0.99505448  0.13033588  0.74417189  1
  O  O217  1  0.98694930  0.62112445  0.24798090  1
  O  O218  1  0.99411005  0.62604049  0.74385038  1
  O  O219  1  0.37795626  0.24898241  0.01516570  1
  O  O220  1  0.36285358  0.24081507  0.51047697  1
  O  O221  1  0.36688286  0.75800638  0.00147527  1
  O  O222  1  0.36963914  0.75116350  0.48716299  1
  O  O223  1  0.86725128  0.26640107  -0.00442269  1
  O  O224  1  0.86015401  0.24757673  0.49926262  1
  O  O225  1  0.86434156  0.75447275  0.00857005  1
  O  O226  1  0.86838669  0.75433984  0.50166853  1
  O  O227  1  0.13517223  0.24033454  0.49403170  1
  O  O228  1  0.13041983  0.26423696  1.01343278  1
  O  O229  1  0.13230774  0.73940898  0.48969252  1
  O  O230  1  0.13571760  0.75703008  0.98909371  1
  O  O231  1  0.62991801  0.24602420  0.49485448  1
  O  O232  1  0.63041649  0.24475195  0.99358142  1
  O  O233  1  0.63029078  0.74386924  0.49402142  1
  O  O234  1  0.62971198  0.74266169  0.99671317  1
  O  O235  1  0.49644473  0.24713885  0.13204028  1
  O  O236  1  0.49148898  0.24273985  0.61658459  1
  O  O237  1  0.50246394  0.73898813  0.13422493  1
  O  O238  1  0.50403030  0.75404212  0.63909064  1
  O  O239  1  0.99922840  0.23329735  0.13372041  1
  O  O240  1  1.00447776  0.23865265  0.63290704  1
  O  O241  1  0.98746082  0.75327193  0.11626026  1
  O  O242  1  1.00127726  0.73620154  0.62029321  1
  O  O243  1  0.01496076  0.24242440  0.37211942  1
  O  O244  1  0.00435215  0.25819689  0.87234718  1
  O  O245  1  0.01235731  0.75434900  0.37927879  1
  O  O246  1  0.00813311  0.75977656  0.88266992  1
  O  O247  1  0.50524791  0.25219895  0.37067125  1
  O  O248  1  0.50446153  0.26057739  0.87573147  1
  O  O249  1  0.51546927  0.74282885  0.36680635  1
  O  O250  1  0.50569949  0.75909499  0.86888976  1
  O  O251  1  0.24488063  0.12809108  0.49249606  1
  O  O252  1  0.25709119  0.12373697  0.98957759  1
  O  O253  1  0.24141226  0.62194994  0.48991409  1
  O  O254  1  0.25573512  0.63486651  0.98824828  1
  O  O255  1  0.74442371  0.13495160  0.49324251  1
  O  O256  1  0.74571101  0.13317457  0.99644702  1
  O  O257  1  0.74266574  0.63047295  0.49194295  1
  O  O258  1  0.74435831  0.63790871  0.99595251  1
  O  O259  1  0.25178091  0.37308794  0.00048751  1
  O  O260  1  0.24689114  0.36474915  0.50667455  1
  O  O261  1  0.26074248  0.86715883  -0.00776367  1
  O  O262  1  0.25341449  0.87179798  0.51135155  1
  O  O263  1  0.76174253  0.37174026  -0.01220987  1
  O  O264  1  0.74909119  0.36232057  0.49112989  1
  O  O265  1  0.74721472  0.86513046  0.00667439  1
  O  O266  1  0.76229965  0.86527788  0.49894107  1
  O  O267  1  0.13299250  0.49182722  0.23846943  1
  O  O268  1  0.13746856  0.49746497  0.74521356  1
  O  O269  1  0.13184072  0.99020134  0.24555528  1
  O  O270  1  0.12786964  0.99527722  0.74646552  1
  O  O271  1  0.63313521  0.49971348  0.24056614  1
  O  O272  1  0.61341838  0.50985684  0.73312467  1
  O  O273  1  0.61794484  0.98727984  0.24764895  1
  O  O274  1  0.62911420  0.99672984  0.74593512  1
  O  O275  1  0.36840696  -0.00098738  0.25559389  1
  O  O276  1  0.37513120  0.01596342  0.74775877  1
  O  O277  1  0.36898144  0.50601995  0.24335355  1
  O  O278  1  0.36323904  0.49968166  0.76043442  1
  O  O279  1  0.87574958  0.00753191  0.26346450  1
  O  O280  1  0.87010828  0.00801937  0.75929081  1
  O  O281  1  0.86610055  0.51112685  0.24370479  1
  O  O282  1  0.88231728  0.51372412  0.76745588  1
  O  O283  1  0.13333643  0.36299095  0.36497251  1
  O  O284  1  0.11316298  0.37309484  0.87499358  1
  O  O285  1  0.11866731  0.86707220  0.37012951  1
  O  O286  1  0.11667571  0.86933450  0.87261811  1
  O  O287  1  0.61705121  0.36319171  0.37370583  1
  O  O288  1  0.60676959  0.36552838  0.88004332  1
  O  O289  1  0.63192989  0.86577159  0.36834566  1
  O  O290  1  0.61548371  0.87131252  0.87062918  1
  O  O291  1  0.38438685  0.13099559  0.12975309  1
  O  O292  1  0.38175059  0.13065351  0.63129685  1
  O  O293  1  0.38493868  0.62821728  0.13459046  1
  O  O294  1  0.38025208  0.61994289  0.63294234  1
  O  O295  1  0.88510485  0.11444937  0.13710094  1
  O  O296  1  0.88140837  0.12089192  0.63643174  1
  O  O297  1  0.87523304  0.63650564  0.13213396  1
  O  O298  1  0.88695258  0.61789762  0.63397208  1
  O  O299  1  0.25436915  0.24777015  0.12731034  1
  O  O300  1  0.25509985  0.25708761  0.61794173  1
  O  O301  1  0.25104044  0.74486068  0.11138314  1
  O  O302  1  0.24621873  0.76444009  0.62515311  1
  O  O303  1  0.74312012  0.24936806  0.11157264  1
  O  O304  1  0.74739002  0.26036502  0.61446823  1
  O  O305  1  0.75461195  0.75997844  0.11949582  1
  O  O306  1  0.75060698  0.74882034  0.61230878  1
  O  O307  1  0.24619731  0.24019706  0.38086882  1
  O  O308  1  0.24631265  0.23296412  0.87064185  1
  O  O309  1  0.23825350  0.73372539  0.37019789  1
  O  O310  1  0.24445600  0.74393457  0.88164252  1
  O  O311  1  0.74167644  0.24431070  0.38305597  1
  O  O312  1  0.74155113  0.24244474  0.88536666  1
  O  O313  1  0.74125722  0.74174121  0.38411627  1
  O  O314  1  0.74387482  0.74623937  0.88345070  1
  O  O315  1  -0.00872269  0.12317853  0.01680054  1
  O  O316  1  0.00733171  0.12758782  0.50644863  1
  O  O317  1  -0.00739499  0.61371276  0.00342668  1
  O  O318  1  0.01434125  0.62457504  0.50799202  1
  O  O319  1  0.50336956  0.11797796  0.00326548  1
  O  O320  1  0.50652660  0.11716342  0.50969792  1
  O  O321  1  0.50698006  0.62701039  0.00744989  1
  O  O322  1  0.50807424  0.61092790  0.49380759  1
  O  O323  1  0.50229851  0.38547851  0.49239673  1
  O  O324  1  0.49263419  0.38060466  0.98769877  1
  O  O325  1  0.50249121  0.89022753  0.50498765  1
  O  O326  1  0.49712999  0.88102955  0.99346832  1
  O  O327  1  0.99579839  0.38274904  0.50698368  1
  O  O328  1  0.98817864  0.38550959  0.99433083  1
  O  O329  1  0.99085369  0.87259477  0.48977336  1
  O  O330  1  0.99511588  0.88487455  0.98669180  1
  O  O331  1  0.50563751  0.48879726  0.38541111  1
  O  O332  1  0.49124761  0.49355304  0.87518166  1
  O  O333  1  0.49131149  1.00745731  0.38417123  1
  O  O334  1  0.50554217  0.99182257  0.88475280  1
  O  O335  1  1.01422205  0.48697989  0.37887957  1
  O  O336  1  0.99708121  0.49549530  0.88285388  1
  O  O337  1  0.99203933  0.99016791  0.37829975  1
  O  O338  1  0.99133252  0.99839460  0.87680329  1
  O  O339  1  0.00759392  0.00774651  0.12386577  1
  O  O340  1  0.00199526  0.01430791  0.62015599  1
  O  O341  1  0.01093185  0.50250806  0.11771747  1
  O  O342  1  0.01743048  0.50947572  0.63661197  1
  O  O343  1  0.50688424  0.00546063  0.11919411  1
  O  O344  1  0.50652737  0.00943855  0.61928362  1
  O  O345  1  0.50855628  0.51239774  0.12431717  1
  O  O346  1  0.50707649  0.49790308  0.61048282  1
  O  O347  1  0.24272447  0.38533620  0.25135704  1
  O  O348  1  0.24863111  0.38169918  0.74312370  1
  O  O349  1  0.24024222  0.88112074  0.25548517  1
  O  O350  1  0.25129320  0.87787892  0.73969958  1
  O  O351  1  0.74913234  0.38864324  0.25687052  1
  O  O352  1  0.74669504  0.37725268  0.77648024  1
  O  O353  1  0.73971832  0.87043862  0.24256651  1
  O  O354  1  0.74438382  0.88281501  0.74939757  1
  O  O355  1  0.25026315  0.11463518  0.26308836  1
  O  O356  1  0.26237019  0.12272676  0.74903049  1
  O  O357  1  0.25964268  0.61574224  0.25330242  1
  O  O358  1  0.24946311  0.61828648  0.76018338  1
  O  O359  1  0.75465048  0.12730786  0.26415436  1
  O  O360  1  0.75909845  0.12334390  0.75438841  1
  O  O361  1  0.75752448  0.61868594  0.25825677  1
  O  O362  1  0.75321107  0.63033610  0.76154432  1
  O  O363  1  0.36633710  0.11617849  0.37373199  1
  O  O364  1  0.36992532  0.13159129  0.86092088  1
  O  O365  1  0.36769152  0.62363745  0.36094574  1
  O  O366  1  0.36796545  0.61801005  0.86943554  1
  O  O367  1  0.86854970  0.11699132  0.37220220  1
  O  O368  1  0.87106487  0.12019179  0.86688527  1
  O  O369  1  0.86468770  0.63704233  0.36489440  1
  O  O370  1  0.86869144  0.62337895  0.87147325  1
  O  O371  1  0.13562986  0.37496049  0.12561294  1
  O  O372  1  0.13627910  0.38072641  0.62627122  1
  O  O373  1  0.11687515  0.88119091  0.13727576  1
  O  O374  1  0.13384242  0.87758408  0.62435630  1
  O  O375  1  0.61909446  0.38994095  0.12284222  1
  O  O376  1  0.63230744  0.38895279  0.62696046  1
  O  O377  1  0.63092605  0.87829417  0.13366101  1
  O  O378  1  0.63016514  0.88374481  0.63178715  1
  O  O379  1  0.12895958  0.25715165  0.25886329  1
  O  O380  1  0.11344466  0.24982019  0.75292972  1
  O  O381  1  0.12746798  0.75798023  0.25676265  1
  O  O382  1  0.12817416  0.75385778  0.76554900  1
  O  O383  1  0.61812201  0.25202606  0.25876789  1
  O  O384  1  0.62570662  0.24168096  0.76346200  1
  O  O385  1  0.62143236  0.75651623  0.25753810  1
  O  O386  1  0.61785857  0.75721821  0.75512847  1
  O  O387  1  0.38252253  0.24655024  0.24074471  1
  O  O388  1  0.37085330  0.23960052  0.73587353  1
  O  O389  1  0.38446495  0.74363784  0.25026108  1
  O  O390  1  0.38927859  0.75465186  0.75671626  1
  O  O391  1  0.87262222  0.23542281  0.25921999  1
  O  O392  1  0.89017977  0.23962607  0.75641523  1
  O  O393  1  0.86845174  0.74228673  0.23934977  1
  O  O394  1  0.86962907  0.73677562  0.74696866  1
  O  O395  1  0.38868594  0.50122793  0.49855211  1
  O  O396  1  0.37420066  0.50149190  0.98714654  1
  O  O397  1  0.38494267  1.00000961  0.49169423  1
  O  O398  1  0.38798823  0.99281344  1.00606854  1
  O  O399  1  0.88305212  0.50963736  0.47618430  1
  O  O400  1  0.87999182  0.49471170  0.99345627  1
  O  O401  1  0.87574790  0.99077301  0.48996672  1
  O  O402  1  0.86999861  1.00073306  0.98541404  1
  O  O403  1  0.12948923  -0.00743169  0.01649843  1
  O  O404  1  0.12312466  0.01329976  0.49632770  1
  O  O405  1  0.11575755  0.49568423  0.01023299  1
  O  O406  1  0.13390922  0.50757125  0.51102856  1
  O  O407  1  0.61560253  0.00606100  0.00633338  1
  O  O408  1  0.62102535  0.00731444  0.50425234  1
  O  O409  1  0.62498221  0.51677811  0.00754008  1
  O  O410  1  0.61782079  0.50554005  0.50499986  1
  O  O411  1  0.37634033  0.36472081  0.12321855  1
  O  O412  1  0.36434862  0.36828455  0.62838227  1
  O  O413  1  0.38266466  0.87064880  0.11134038  1
  O  O414  1  0.36343729  0.87909408  0.62113338  1
  O  O415  1  0.87797868  0.38159363  0.10928652  1
  O  O416  1  0.85301087  0.41421013  0.62494714  1
  O  O417  1  0.86738954  0.87208720  0.12681465  1
  O  O418  1  0.87536575  0.87378025  0.61534820  1
  O  O419  1  0.13282425  0.12860227  0.37942570  1
  O  O420  1  0.13501553  0.12843377  0.88224439  1
  O  O421  1  0.12832877  0.62850406  0.37868377  1
  O  O422  1  0.13331429  0.63244247  0.87499430  1
  O  O423  1  0.63128363  0.13481029  0.37975346  1
  O  O424  1  0.62801089  0.13104870  0.88178682  1
  O  O425  1  0.63265031  0.63075244  0.38309447  1
  O  O426  1  0.63081020  0.62982817  0.88240146  1
