# generated using pymatgen
data_V85Zn86O256
_symmetry_space_group_name_H-M   'P 1'
_cell_length_a   16.94443312
_cell_length_b   16.93828147
_cell_length_c   16.92236248
_cell_angle_alpha   90.03028082
_cell_angle_beta   90.05738897
_cell_angle_gamma   89.97024391
_symmetry_Int_Tables_number   1
_chemical_formula_structural   V85Zn86O256
_chemical_formula_sum   'V85 Zn86 O256'
_cell_volume   4856.87633847
_cell_formula_units_Z   1
loop_
 _symmetry_equiv_pos_site_id
 _symmetry_equiv_pos_as_xyz
  1  'x, y, z'
loop_
 _atom_site_type_symbol
 _atom_site_label
 _atom_site_symmetry_multiplicity
 _atom_site_fract_x
 _atom_site_fract_y
 _atom_site_fract_z
 _atom_site_occupancy
  V  V0  1  0.00208221  0.62339606  0.62036708  1
  V  V1  1  0.38053866  0.11898913  0.75860076  1
  V  V2  1  0.74665605  0.87896484  0.62558788  1
  V  V3  1  0.62421626  0.74399687  0.38067723  1
  V  V4  1  0.11681080  0.86903721  0.25058223  1
  V  V5  1  0.87945149  0.25129812  0.62690991  1
  V  V6  1  0.12575503  0.38650277  0.24506114  1
  V  V7  1  0.23969980  0.12839581  0.87395966  1
  V  V8  1  0.37211958  0.12563607  0.25543116  1
  V  V9  1  0.37391584  0.75199906  0.13181735  1
  V  V10  1  0.50397007  0.24217742  0.74556033  1
  V  V11  1  0.13754141  0.24413119  0.36245992  1
  V  V12  1  0.12821169  0.36823875  0.76420329  1
  V  V13  1  0.87864016  0.62164816  0.76001010  1
  V  V14  1  0.50442013  0.63019269  0.61791984  1
  V  V15  1  0.36953857  0.24897811  0.12397979  1
  V  V16  1  0.37172412  0.87326615  0.50072009  1
  V  V17  1  0.87843100  0.12534640  0.75241285  1
  V  V18  1  -0.00783362  0.49981309  -0.00432371  1
  V  V19  1  0.12702932  0.61670204  0.00609905  1
  V  V20  1  0.18417590  0.57241250  0.44225234  1
  V  V21  1  0.74872958  0.12352280  0.37259073  1
  V  V22  1  0.49953200  0.62333879  0.12289400  1
  V  V23  1  0.87546415  0.00002359  0.87858156  1
  V  V24  1  0.24829387  0.75251399  0.00059365  1
  V  V25  1  0.38150778  0.23788145  0.61998162  1
  V  V26  1  0.00488332  0.13569407  0.13395549  1
  V  V27  1  0.24393935  0.88277356  0.12610615  1
  V  V28  1  0.50095134  0.50162995  0.49565965  1
  V  V29  1  0.87169114  0.60582081  0.25191859  1
  V  V30  1  0.50553885  0.74865675  0.75324252  1
  V  V31  1  0.62201403  0.25275704  0.37158399  1
  V  V32  1  0.87604233  0.37648457  0.49257583  1
  V  V33  1  -0.00359717  0.36263058  0.36659183  1
  V  V34  1  0.25089337  -0.00325584  0.75236892  1
  V  V35  1  0.37577123  0.36889742  0.49955754  1
  V  V36  1  0.63445096  0.38475223  0.24662151  1
  V  V37  1  0.62367721  0.37404713  0.74769270  1
  V  V38  1  0.37666132  0.62587763  0.75051792  1
  V  V39  1  0.12384393  0.74882429  0.87611331  1
  V  V40  1  0.24999657  0.36258702  0.62617692  1
  V  V41  1  0.24051884  0.75068754  0.49450417  1
  V  V42  1  0.74906996  0.87287947  0.12467836  1
  V  V43  1  0.49964394  0.87063574  0.87765411  1
  V  V44  1  0.62472176  0.87355586  0.25178327  1
  V  V45  1  0.62559737  0.87586811  0.75600739  1
  V  V46  1  0.75495114  0.50147841  0.75365636  1
  V  V47  1  0.49972845  0.00288002  -0.00944928  1
  V  V48  1  0.87370334  0.87073703  0.00280749  1
  V  V49  1  0.00051294  0.62368799  0.12979300  1
  V  V50  1  0.13005554  0.13960995  0.50052111  1
  V  V51  1  0.88276911  0.00286832  0.37908713  1
  V  V52  1  0.73433506  0.62900191  0.87731907  1
  V  V53  1  0.25225096  0.49888062  0.74974676  1
  V  V54  1  0.00022427  0.74810491  0.75133750  1
  V  V55  1  0.49910553  0.87583135  0.37717663  1
  V  V56  1  0.12667434  0.49788053  0.62442678  1
  V  V57  1  0.75279855  0.37899231  0.62403102  1
  V  V58  1  0.62732530  0.13007257  0.00425434  1
  V  V59  1  0.74717301  0.74647728  0.50246720  1
  V  V60  1  -0.00632915  0.50193134  0.49145176  1
  V  V61  1  0.24767345  0.39000754  0.12874550  1
  V  V62  1  0.49950809  0.12424285  0.12870953  1
  V  V63  1  0.86844749  0.26261933  0.12586530  1
  V  V64  1  0.87618330  0.74753216  0.13894123  1
  V  V65  1  0.00792507  0.00017488  0.01083711  1
  V  V66  1  0.75439887  0.13072604  0.88646679  1
  V  V67  1  0.74125537  0.00454593  0.75060978  1
  V  V68  1  0.11873145  -0.00311359  0.61611486  1
  V  V69  1  0.37798043  0.37657380  -0.00071787  1
  V  V70  1  0.62440943  0.00082574  0.12759842  1
  V  V71  1  0.74951587  0.24965456  0.49827493  1
  V  V72  1  0.88086805  0.88097664  0.50388585  1
  V  V73  1  0.25137609  0.62534048  0.87453914  1
  V  V74  1  0.63303376  0.50435149  0.12141037  1
  V  V75  1  0.62465128  0.24948094  0.88150858  1
  V  V76  1  -0.01389476  0.37392541  0.87847832  1
  V  V77  1  0.74022257  0.74235280  -0.00095760  1
  V  V78  1  0.62603126  0.50512492  0.62012921  1
  V  V79  1  0.24040508  0.00574999  0.24954585  1
  V  V80  1  0.75356892  0.61727282  0.37506412  1
  V  V81  1  0.37423069  0.88087472  -0.00108570  1
  V  V82  1  0.36832026  0.00354541  0.37663091  1
  V  V83  1  0.36179952  0.61409338  0.25465893  1
  V  V84  1  -0.00022576  0.87372209  0.87734476  1
  Zn  Zn85  1  0.87459598  0.74850971  0.62542278  1
  Zn  Zn86  1  0.11687729  0.74243113  0.37270206  1
  Zn  Zn87  1  0.00749188  0.24571633  0.75788967  1
  Zn  Zn88  1  0.12477190  0.87534667  0.74914929  1
  Zn  Zn89  1  0.75216833  0.00028286  0.25076170  1
  Zn  Zn90  1  0.24274544  0.25629565  -0.00713456  1
  Zn  Zn91  1  0.49709231  0.74727238  0.25315684  1
  Zn  Zn92  1  -0.00448925  0.11921057  0.61722971  1
  Zn  Zn93  1  0.49962610  0.00867785  0.51297427  1
  Zn  Zn94  1  0.87902940  0.12909320  0.25152136  1
  Zn  Zn95  1  0.37174298  0.74871234  0.62327745  1
  Zn  Zn96  1  0.49688342  0.37861896  0.37004766  1
  Zn  Zn97  1  0.36199043  0.50028280  0.37604290  1
  Zn  Zn98  1  0.50051579  0.25402279  0.24824203  1
  Zn  Zn99  1  0.76378917  0.29214108  0.00377631  1
  Zn  Zn100  1  0.61721831  0.12137740  0.51124225  1
  Zn  Zn101  1  0.37941066  0.49954491  0.87458427  1
  Zn  Zn102  1  0.50081517  0.50802869  -0.00338436  1
  Zn  Zn103  1  0.12396621  0.12875885  0.00132543  1
  Zn  Zn104  1  0.24711706  0.87163787  0.62671877  1
  Zn  Zn105  1  0.49727587  0.37573037  0.87368617  1
  Zn  Zn106  1  -0.00087893  0.87319589  0.37757618  1
  Zn  Zn107  1  0.18616375  0.18826295  0.18206748  1
  Zn  Zn108  1  0.18829761  0.18368984  0.68777367  1
  Zn  Zn109  1  0.18707857  0.68936040  0.18656629  1
  Zn  Zn110  1  0.18568917  0.68740405  0.68327298  1
  Zn  Zn111  1  0.69224588  0.19372147  0.18901544  1
  Zn  Zn112  1  0.69595788  0.19187210  0.69150569  1
  Zn  Zn113  1  0.68915249  0.68418909  0.18930437  1
  Zn  Zn114  1  0.68672123  0.68935345  0.68870339  1
  Zn  Zn115  1  0.31339372  0.31474858  0.30982102  1
  Zn  Zn116  1  0.31650278  0.30817175  0.81078363  1
  Zn  Zn117  1  0.30502884  0.81221996  0.31438893  1
  Zn  Zn118  1  0.31553406  0.81280394  0.81309209  1
  Zn  Zn119  1  0.81257510  0.31075611  0.30625059  1
  Zn  Zn120  1  0.81211466  0.31322350  0.81426828  1
  Zn  Zn121  1  0.81098565  0.81437359  0.31771594  1
  Zn  Zn122  1  0.81353730  0.80917133  0.81427491  1
  Zn  Zn123  1  0.18596288  0.40612672  0.44098802  1
  Zn  Zn124  1  0.19131445  0.43923823  0.94040185  1
  Zn  Zn125  1  0.18632587  0.93904364  0.43526734  1
  Zn  Zn126  1  0.18762712  0.94040820  0.93293262  1
  Zn  Zn127  1  0.68509489  0.43563868  0.43638036  1
  Zn  Zn128  1  0.67563951  0.44202354  0.93250119  1
  Zn  Zn129  1  0.68822762  0.94062247  0.44064016  1
  Zn  Zn130  1  0.68649721  0.93896872  0.93832220  1
  Zn  Zn131  1  0.31219034  0.06273400  0.06228914  1
  Zn  Zn132  1  0.30702823  0.06081455  0.56321777  1
  Zn  Zn133  1  0.31678398  0.56355600  0.06217727  1
  Zn  Zn134  1  0.32005440  0.55729387  0.56899114  1
  Zn  Zn135  1  0.81895701  0.06290145  0.06787436  1
  Zn  Zn136  1  0.80392457  0.06450196  0.56325446  1
  Zn  Zn137  1  0.79210629  0.50444544  0.03497831  1
  Zn  Zn138  1  0.81683145  0.56532220  0.56273999  1
  Zn  Zn139  1  0.44030806  0.43804871  0.18841089  1
  Zn  Zn140  1  0.43889546  0.43478606  0.68571319  1
  Zn  Zn141  1  0.43668854  0.93986885  0.18950506  1
  Zn  Zn142  1  0.43329893  0.93427369  0.68786684  1
  Zn  Zn143  1  0.94333878  0.43881793  0.18316954  1
  Zn  Zn144  1  0.94098517  0.43733741  0.68855913  1
  Zn  Zn145  1  0.93369391  0.94204793  0.18937530  1
  Zn  Zn146  1  0.93541364  0.93707473  0.68968293  1
  Zn  Zn147  1  0.06301233  0.06186149  0.31680688  1
  Zn  Zn148  1  0.06180465  0.05664738  0.81029626  1
  Zn  Zn149  1  0.05269384  0.55480050  0.30745663  1
  Zn  Zn150  1  0.06614422  0.55875594  0.81389126  1
  Zn  Zn151  1  0.56324804  0.05828441  0.32661491  1
  Zn  Zn152  1  0.56400605  0.06333860  0.67354238  1
  Zn  Zn153  1  0.55948983  0.56673551  0.30683629  1
  Zn  Zn154  1  0.56202297  0.55994137  0.80996365  1
  Zn  Zn155  1  0.44269534  0.18375458  0.43816514  1
  Zn  Zn156  1  0.43621802  0.18928475  0.93690811  1
  Zn  Zn157  1  0.43226804  0.68747123  0.43522405  1
  Zn  Zn158  1  0.43625912  0.69216228  0.93941882  1
  Zn  Zn159  1  0.94319841  0.18467252  0.43960128  1
  Zn  Zn160  1  0.94089504  0.19225754  0.94501546  1
  Zn  Zn161  1  0.93555557  0.69239254  0.43370600  1
  Zn  Zn162  1  0.93244299  0.68465444  0.94285872  1
  Zn  Zn163  1  0.06560340  0.31113135  0.05758524  1
  Zn  Zn164  1  0.06125837  0.31077195  0.56327834  1
  Zn  Zn165  1  0.06183309  0.80893403  0.06654069  1
  Zn  Zn166  1  0.06145681  0.81098185  0.56230230  1
  Zn  Zn167  1  0.56169343  0.31592395  0.06844355  1
  Zn  Zn168  1  0.56265331  0.31102556  0.55991538  1
  Zn  Zn169  1  0.56083423  0.80972248  0.06531767  1
  Zn  Zn170  1  0.56254849  0.82304351  0.56564028  1
  O  O171  1  0.10991975  0.12442609  0.12295929  1
  O  O172  1  0.12239232  0.11817209  0.61697757  1
  O  O173  1  0.11476303  0.63304707  0.11753365  1
  O  O174  1  0.11031314  0.61487046  0.63080785  1
  O  O175  1  0.62080074  0.12219005  0.12271869  1
  O  O176  1  0.64496346  0.12175692  0.62385376  1
  O  O177  1  0.61226538  0.61484445  0.13786586  1
  O  O178  1  0.61632964  0.61734406  0.62974185  1
  O  O179  1  0.37532044  0.37996245  0.38372346  1
  O  O180  1  0.37486841  0.37435061  0.88473013  1
  O  O181  1  0.37835513  0.87813665  0.38245518  1
  O  O182  1  0.38368543  0.87044800  0.88851681  1
  O  O183  1  0.88189128  0.36679161  0.38269789  1
  O  O184  1  0.88797599  0.38083239  0.86955278  1
  O  O185  1  0.87194335  0.88488621  0.38671322  1
  O  O186  1  0.88007369  0.87799117  0.88310236  1
  O  O187  1  0.26074456  -0.00488593  0.36532637  1
  O  O188  1  0.24754581  0.00816855  0.86061769  1
  O  O189  1  0.24072301  0.50389867  0.39246705  1
  O  O190  1  0.25303227  0.50843065  0.86748372  1
  O  O191  1  0.75871450  0.00996651  0.37387934  1
  O  O192  1  0.75591901  0.00862915  0.87091299  1
  O  O193  1  0.74281133  0.51891971  0.38630831  1
  O  O194  1  0.73984521  0.51306303  0.85960933  1
  O  O195  1  0.25203319  0.48821457  0.12306365  1
  O  O196  1  0.24658079  0.49055917  0.63199768  1
  O  O197  1  0.25434258  0.98974259  0.13243208  1
  O  O198  1  0.23750734  0.99813257  0.63479000  1
  O  O199  1  0.73148834  0.51740039  0.13029931  1
  O  O200  1  0.74404356  0.49959639  0.63101679  1
  O  O201  1  0.74243159  0.99244951  0.12620447  1
  O  O202  1  0.75723085  0.99085363  0.63927356  1
  O  O203  1  0.00902657  0.37893302  0.25706513  1
  O  O204  1  0.00903152  0.37780840  0.76440339  1
  O  O205  1  0.01569575  0.88172306  0.24436157  1
  O  O206  1  -0.00106418  0.86569535  0.75837927  1
  O  O207  1  0.50921517  0.37343313  0.25283433  1
  O  O208  1  0.50671378  0.36332983  0.74948155  1
  O  O209  1  0.50363439  0.87205040  0.26090668  1
  O  O210  1  0.50447980  0.86902871  0.75985569  1
  O  O211  1  0.49029769  0.12291573  0.24430135  1
  O  O212  1  0.49527505  0.13324752  0.74458505  1
  O  O213  1  0.48533556  0.62892748  0.24048328  1
  O  O214  1  0.49690930  0.63242306  0.74297386  1
  O  O215  1  1.00129295  0.11941317  0.23655351  1
  O  O216  1  0.98779484  0.12634690  0.75197444  1
  O  O217  1  0.98642398  0.61967781  0.24271824  1
  O  O218  1  0.99504407  0.62631075  0.74692962  1
  O  O219  1  0.36964230  0.25621057  0.00695953  1
  O  O220  1  0.38225169  0.26013969  0.50644312  1
  O  O221  1  0.36813624  0.76041746  0.01190450  1
  O  O222  1  0.36296464  0.75613360  0.49872898  1
  O  O223  1  0.87176672  0.24526178  0.01717922  1
  O  O224  1  0.87177980  0.25716912  0.50743560  1
  O  O225  1  0.86520048  0.75443096  0.00917628  1
  O  O226  1  0.86285317  0.76213461  0.50312079  1
  O  O227  1  0.12763785  0.24560198  0.49230457  1
  O  O228  1  0.13165147  0.24235575  1.00113988  1
  O  O229  1  0.13673296  0.74976083  0.50043834  1
  O  O230  1  0.13038887  0.74266032  0.99497566  1
  O  O231  1  0.63357093  0.25303124  0.48955718  1
  O  O232  1  0.62683855  0.24911446  0.99632536  1
  O  O233  1  0.63398731  0.75873947  0.49252564  1
  O  O234  1  0.64090851  0.75152992  1.00799635  1
  O  O235  1  0.48780269  0.24278347  0.12570627  1
  O  O236  1  0.49285066  0.25508316  0.63375159  1
  O  O237  1  0.48912708  0.74656340  0.12993020  1
  O  O238  1  0.50022219  0.74475012  0.63129383  1
  O  O239  1  0.99388849  0.23865752  0.12102907  1
  O  O240  1  0.98788829  0.24967336  0.62977217  1
  O  O241  1  0.98849544  0.73477696  0.11687930  1
  O  O242  1  0.99999016  0.73958149  0.63185912  1
  O  O243  1  0.00988700  0.25954222  0.37805578  1
  O  O244  1  -0.00332819  0.26788933  0.87649688  1
  O  O245  1  0.00577570  0.76009955  0.38304173  1
  O  O246  1  0.00353393  0.75260960  0.87253171  1
  O  O247  1  0.51275944  0.25203134  0.37237284  1
  O  O248  1  0.50930703  0.24905683  0.86653604  1
  O  O249  1  0.50634726  0.75604596  0.37513458  1
  O  O250  1  0.49923478  0.76093896  0.86989608  1
  O  O251  1  0.22944701  0.11876351  0.50067635  1
  O  O252  1  0.25134701  0.11686141  0.98174964  1
  O  O253  1  0.24859734  0.62857670  0.50254449  1
  O  O254  1  0.24482969  0.63101641  0.99752001  1
  O  O255  1  0.74878541  0.13412354  0.48773574  1
  O  O256  1  0.74735244  0.11705332  0.99148185  1
  O  O257  1  0.75899831  0.63927092  0.49484037  1
  O  O258  1  0.75319678  0.62423359  0.98166780  1
  O  O259  1  0.25957867  0.37580950  0.01061053  1
  O  O260  1  0.26289532  0.37557430  0.51493270  1
  O  O261  1  0.25567970  0.87610645  0.00588628  1
  O  O262  1  0.25392560  0.86540117  0.49943287  1
  O  O263  1  0.75669023  0.40286491  -0.00322519  1
  O  O264  1  0.75866416  0.37068093  0.50280085  1
  O  O265  1  0.75400332  0.86726235  0.00495977  1
  O  O266  1  0.75238569  0.87108349  0.51033846  1
  O  O267  1  0.12669465  0.48604394  0.25329503  1
  O  O268  1  0.13286019  0.48956597  0.74440734  1
  O  O269  1  0.13628039  0.99378440  0.25478370  1
  O  O270  1  0.13315197  0.99845842  0.74036658  1
  O  O271  1  0.61945959  0.49110681  0.24300156  1
  O  O272  1  0.63067389  0.49434942  0.73762373  1
  O  O273  1  0.62412766  0.98770986  0.24915342  1
  O  O274  1  0.63803090  0.99523039  0.75399302  1
  O  O275  1  0.36527239  0.00664810  0.25536160  1
  O  O276  1  0.36507356  0.00852053  0.74243390  1
  O  O277  1  0.37315296  0.50983059  0.25354670  1
  O  O278  1  0.37034503  0.50668605  0.74934049  1
  O  O279  1  0.87084329  0.00310199  0.26240217  1
  O  O280  1  0.86765555  0.00753436  0.75865095  1
  O  O281  1  0.87282304  0.50744606  0.24796105  1
  O  O282  1  0.86514342  0.50714767  0.74360014  1
  O  O283  1  0.11788962  0.36150164  0.36504154  1
  O  O284  1  0.12580540  0.37784328  0.86667993  1
  O  O285  1  0.12359289  0.87721553  0.36054686  1
  O  O286  1  0.11809832  0.86622469  0.87436371  1
  O  O287  1  0.62191391  0.37059990  0.36565430  1
  O  O288  1  0.62240286  0.36389901  0.86691576  1
  O  O289  1  0.61679314  0.86691443  0.36942266  1
  O  O290  1  0.61892794  0.87822610  0.86427393  1
  O  O291  1  0.37893594  0.13104420  0.13143581  1
  O  O292  1  0.36547093  0.13558056  0.63302070  1
  O  O293  1  0.37726775  0.63322263  0.13422001  1
  O  O294  1  0.38550836  0.62691148  0.63424978  1
  O  O295  1  0.88858886  0.12887640  0.12910901  1
  O  O296  1  0.87395713  0.13215291  0.63374006  1
  O  O297  1  0.87955896  0.63188310  0.14073592  1
  O  O298  1  0.88703181  0.62497497  0.63643830  1
  O  O299  1  0.26218089  0.25388205  0.12270565  1
  O  O300  1  0.26098816  0.25823527  0.63255103  1
  O  O301  1  0.25573263  0.76155843  0.11934315  1
  O  O302  1  0.25097407  0.75031939  0.61248233  1
  O  O303  1  0.76227215  0.25069700  0.11882791  1
  O  O304  1  0.76294225  0.25956777  0.62097603  1
  O  O305  1  0.75688427  0.75210910  0.11943324  1
  O  O306  1  0.75143673  0.75640206  0.61952873  1
  O  O307  1  0.23580863  0.25600131  0.37442000  1
  O  O308  1  0.25561071  0.23194153  0.87287682  1
  O  O309  1  0.24301516  0.74809635  0.38893781  1
  O  O310  1  0.24528697  0.74555928  0.88104908  1
  O  O311  1  0.74285890  0.24530533  0.37821588  1
  O  O312  1  0.74671085  0.24702873  0.88409888  1
  O  O313  1  0.74267806  0.74571585  0.38439563  1
  O  O314  1  0.75302350  0.73770118  0.88241499  1
  O  O315  1  -0.00031184  0.11216604  0.00736780  1
  O  O316  1  0.01888123  0.12636212  0.50284792  1
  O  O317  1  0.00904282  0.61784289  0.00244282  1
  O  O318  1  -0.01234493  0.61408566  0.50807381  1
  O  O319  1  0.50378530  0.11834995  0.00548242  1
  O  O320  1  0.50035977  0.12454844  0.51144671  1
  O  O321  1  0.49091768  0.62964159  0.01756147  1
  O  O322  1  0.49245171  0.62015344  0.51145757  1
  O  O323  1  0.49306488  0.38431117  0.49893837  1
  O  O324  1  0.48622236  0.37359811  1.00132104  1
  O  O325  1  0.49036470  0.87329266  0.48843446  1
  O  O326  1  0.49407188  0.87773752  0.99694322  1
  O  O327  1  0.99325402  0.37878956  0.49318716  1
  O  O328  1  1.00552486  0.38880084  0.99065147  1
  O  O329  1  0.98340566  0.87610581  0.50808439  1
  O  O330  1  0.99611858  0.88345024  0.99977387  1
  O  O331  1  0.50372022  0.50500268  0.38971069  1
  O  O332  1  0.49934156  0.49552716  0.87769063  1
  O  O333  1  0.48064986  0.98879188  0.36957615  1
  O  O334  1  0.50236656  0.98567351  0.89003590  1
  O  O335  1  1.00436848  0.48567474  0.38753132  1
  O  O336  1  1.00824097  0.49054758  0.88641628  1
  O  O337  1  0.98725755  0.99567172  0.37464279  1
  O  O338  1  0.99399478  0.99384529  0.88380880  1
  O  O339  1  -0.00501059  0.00669166  0.11340233  1
  O  O340  1  0.01500104  0.00169270  0.63479404  1
  O  O341  1  -0.00135358  0.51263037  0.11095806  1
  O  O342  1  0.00715848  0.50106255  0.61277271  1
  O  O343  1  0.50630210  0.00440479  0.11822363  1
  O  O344  1  0.51121696  -0.02081437  0.62378821  1
  O  O345  1  0.50443053  0.50990654  0.12361527  1
  O  O346  1  0.50692434  0.50726431  0.61748936  1
  O  O347  1  0.24532252  0.37323389  0.23569467  1
  O  O348  1  0.24590455  0.37804566  0.74614988  1
  O  O349  1  0.24233194  0.88263421  0.24261191  1
  O  O350  1  0.24978885  0.88196981  0.74878159  1
  O  O351  1  0.73348897  0.37842582  0.25572767  1
  O  O352  1  0.74646664  0.38444214  0.74587439  1
  O  O353  1  0.74014231  0.87533023  0.24426425  1
  O  O354  1  0.74409901  0.88088370  0.74951776  1
  O  O355  1  0.25865609  0.11626730  0.24148722  1
  O  O356  1  0.25721228  0.11862009  0.75836962  1
  O  O357  1  0.26323564  0.62627009  0.24381821  1
  O  O358  1  0.25708692  0.62118254  0.75225865  1
  O  O359  1  0.75174859  0.12428120  0.26207141  1
  O  O360  1  0.76057372  0.12099511  0.76426421  1
  O  O361  1  0.76439172  0.63042577  0.25972992  1
  O  O362  1  0.75723810  0.62166851  0.75564649  1
  O  O363  1  0.37691416  0.11853564  0.36427997  1
  O  O364  1  0.37150379  0.12518156  0.86175031  1
  O  O365  1  0.37462099  0.62159559  0.35992136  1
  O  O366  1  0.36988615  0.62710024  0.86719961  1
  O  O367  1  0.86981478  0.12041620  0.37569135  1
  O  O368  1  0.87116312  0.12371736  0.87229176  1
  O  O369  1  0.86903455  0.62760691  0.36079739  1
  O  O370  1  0.86852831  0.62739924  0.86265774  1
  O  O371  1  0.13928342  0.37048535  0.13055791  1
  O  O372  1  0.13410208  0.37867122  0.62817852  1
  O  O373  1  0.13369078  0.87126594  0.13479412  1
  O  O374  1  0.12536828  0.88548680  0.62647958  1
  O  O375  1  0.62162783  0.38980418  0.13614632  1
  O  O376  1  0.63385177  0.38040605  0.62910330  1
  O  O377  1  0.62706053  0.87957493  0.13361448  1
  O  O378  1  0.63877200  0.87112377  0.63939868  1
  O  O379  1  0.12876047  0.25462013  0.25920473  1
  O  O380  1  0.12307989  0.26265449  0.74192346  1
  O  O381  1  0.13065902  0.76521233  0.25269587  1
  O  O382  1  0.11655429  0.74910380  0.75704798  1
  O  O383  1  0.62404849  0.26336316  0.25383230  1
  O  O384  1  0.62159966  0.25325526  0.75792158  1
  O  O385  1  0.62351157  0.76109452  0.25648560  1
  O  O386  1  0.61309456  0.75877005  0.74861687  1
  O  O387  1  0.37623281  0.24142239  0.24444944  1
  O  O388  1  0.38660499  0.24134686  0.74322830  1
  O  O389  1  0.37068450  0.74726190  0.24136508  1
  O  O390  1  0.38725345  0.74542190  0.74752705  1
  O  O391  1  0.87299378  0.24604914  0.23469730  1
  O  O392  1  0.87494949  0.24233855  0.74430447  1
  O  O393  1  0.87252557  0.75433586  0.24041322  1
  O  O394  1  0.88414242  0.74167239  0.74840102  1
  O  O395  1  0.38402186  0.49003150  0.49988006  1
  O  O396  1  0.37844860  0.49174421  0.99730530  1
  O  O397  1  0.37196576  0.99227552  0.49282546  1
  O  O398  1  0.38471808  0.98830698  1.00859635  1
  O  O399  1  0.88178754  0.48611251  0.50567442  1
  O  O400  1  0.89496211  0.51467853  0.99167024  1
  O  O401  1  0.86596846  0.99269793  0.49384972  1
  O  O402  1  0.88315079  0.99113102  0.99631716  1
  O  O403  1  0.11021998  0.00166438  -0.00456425  1
  O  O404  1  0.12713654  0.00276901  0.51305749  1
  O  O405  1  0.12125844  0.51325358  -0.00182833  1
  O  O406  1  0.12386539  0.50440521  0.49962612  1
  O  O407  1  0.61776366  0.00812540  0.00617206  1
  O  O408  1  0.60845235  0.01196797  0.46676367  1
  O  O409  1  0.61794010  0.50154117  0.01658053  1
  O  O410  1  0.61822482  0.49424548  0.51328955  1
  O  O411  1  0.36616575  0.36922153  0.12195574  1
  O  O412  1  0.36983194  0.36445311  0.62061448  1
  O  O413  1  0.36848233  0.86919692  0.12171499  1
  O  O414  1  0.37048626  0.87135907  0.61047347  1
  O  O415  1  0.88202809  0.36198905  0.12622177  1
  O  O416  1  0.87226861  0.36918746  0.61935060  1
  O  O417  1  0.86941136  0.86871184  0.12142341  1
  O  O418  1  0.86373320  0.87345570  0.62257364  1
  O  O419  1  0.12173582  0.13844367  0.38239270  1
  O  O420  1  0.13747645  0.12246759  0.87067673  1
  O  O421  1  0.12439837  0.62092554  0.37451180  1
  O  O422  1  0.13201805  0.63085163  0.88196580  1
  O  O423  1  0.63394627  0.13949030  0.36794300  1
  O  O424  1  0.63673524  0.14066505  0.88368075  1
  O  O425  1  0.63114635  0.63951439  0.36563493  1
  O  O426  1  0.63567658  0.63017363  0.86637176  1
