# generated using pymatgen
data_V85Zn86O256
_symmetry_space_group_name_H-M   'P 1'
_cell_length_a   16.96076471
_cell_length_b   16.95690731
_cell_length_c   16.97449175
_cell_angle_alpha   90.05017200
_cell_angle_beta   89.95838657
_cell_angle_gamma   90.07309544
_symmetry_Int_Tables_number   1
_chemical_formula_structural   V85Zn86O256
_chemical_formula_sum   'V85 Zn86 O256'
_cell_volume   4881.89260327
_cell_formula_units_Z   1
loop_
 _symmetry_equiv_pos_site_id
 _symmetry_equiv_pos_as_xyz
  1  'x, y, z'
loop_
 _atom_site_type_symbol
 _atom_site_label
 _atom_site_symmetry_multiplicity
 _atom_site_fract_x
 _atom_site_fract_y
 _atom_site_fract_z
 _atom_site_occupancy
  V  V0  1  0.76637761  0.75130728  -0.00004492  1
  V  V1  1  0.38683855  0.12866860  0.24976170  1
  V  V2  1  0.12327267  0.75298664  0.37209160  1
  V  V3  1  0.25140391  0.49849814  0.74785986  1
  V  V4  1  0.38021946  0.49045432  0.87127860  1
  V  V5  1  0.37932967  0.23981225  0.62778300  1
  V  V6  1  0.87656444  0.50209024  0.86537623  1
  V  V7  1  0.32415728  0.69060929  0.18214180  1
  V  V8  1  0.50106200  0.62595835  0.62313820  1
  V  V9  1  0.50759631  0.01150736  0.49514074  1
  V  V10  1  0.12553233  0.24855120  0.87553202  1
  V  V11  1  0.12361433  -0.00123004  0.62552020  1
  V  V12  1  0.62401225  0.75050294  0.87700273  1
  V  V13  1  0.11957712  0.62648923  0.49736416  1
  V  V14  1  -0.00005503  0.37215917  0.87617615  1
  V  V15  1  0.00407028  0.25673560  0.24342284  1
  V  V16  1  0.49683195  0.36467569  0.37378761  1
  V  V17  1  -0.00384202  -0.00849983  0.48725096  1
  V  V18  1  0.00141751  0.37931311  0.38051600  1
  V  V19  1  0.76221691  0.87012736  0.12235795  1
  V  V20  1  0.64623476  0.25340934  0.37729800  1
  V  V21  1  0.74241641  0.37387194  0.61966314  1
  V  V22  1  -0.00116361  0.12243790  0.62376652  1
  V  V23  1  0.87537511  -0.00202251  0.88050839  1
  V  V24  1  0.12753625  0.12434048  0.00226572  1
  V  V25  1  0.62991156  0.62937741  0.50007596  1
  V  V26  1  0.82599447  0.20243902  0.17907600  1
  V  V27  1  0.88083985  0.73820965  0.63140655  1
  V  V28  1  0.75475292  0.62628607  0.36874423  1
  V  V29  1  0.50234523  0.49753126  -0.00474467  1
  V  V30  1  0.24868645  0.36821314  0.62068345  1
  V  V31  1  0.24570107  0.12456218  0.37483940  1
  V  V32  1  0.00468559  0.12813614  0.12780502  1
  V  V33  1  0.12151685  0.37267158  0.74941054  1
  V  V34  1  0.57337931  0.05122775  0.66705680  1
  V  V35  1  -0.00594313  -0.00533067  0.00378863  1
  V  V36  1  0.12541055  0.74990790  0.87734446  1
  V  V37  1  0.62812635  0.87496472  0.24561917  1
  V  V38  1  0.36956270  0.51244656  0.37023580  1
  V  V39  1  0.25255173  0.00167862  0.74905538  1
  V  V40  1  0.75552306  0.87042840  0.62307614  1
  V  V41  1  0.86889525  0.24924037  0.61922285  1
  V  V42  1  0.25367013  0.75724125  0.00231037  1
  V  V43  1  0.74573289  0.24756476  -0.00927864  1
  V  V44  1  0.11759086  0.50549737  0.62504554  1
  V  V45  1  0.37561256  0.62484788  0.74998497  1
  V  V46  1  0.87609791  0.12480655  0.75075100  1
  V  V47  1  -0.01617875  0.75225547  0.25348579  1
  V  V48  1  0.75323209  0.62584499  0.86564882  1
  V  V49  1  0.50130214  0.63198053  0.12958099  1
  V  V50  1  0.49981253  0.49976676  0.49774517  1
  V  V51  1  0.75208485  -0.00039296  0.74693419  1
  V  V52  1  0.62296905  0.50210023  0.12634535  1
  V  V53  1  0.24994127  0.74567107  0.49417273  1
  V  V54  1  0.12584844  0.24990007  0.38166816  1
  V  V55  1  0.86999933  0.37774024  0.50357515  1
  V  V56  1  0.49919470  0.75032572  0.75129137  1
  V  V57  1  0.12325801  0.12471819  0.49869195  1
  V  V58  1  0.61659172  0.37340354  0.24731193  1
  V  V59  1  0.13284845  0.38057415  0.25175205  1
  V  V60  1  0.62714204  0.75095466  0.37727723  1
  V  V61  1  0.50355239  0.87794745  0.37610813  1
  V  V62  1  -0.00531140  0.87181082  0.87855825  1
  V  V63  1  0.87482523  0.36971055  0.00341441  1
  V  V64  1  0.74804149  0.37765738  0.12132780  1
  V  V65  1  0.62515541  0.87303810  0.74324614  1
  V  V66  1  0.00023233  0.50107801  0.00379491  1
  V  V67  1  0.24635173  -0.00661680  0.24757836  1
  V  V68  1  0.62083528  0.37174959  0.76631123  1
  V  V69  1  0.37004839  0.36981138  0.49896449  1
  V  V70  1  0.12158816  0.87217794  0.74982284  1
  V  V71  1  0.62028428  0.12116044  -0.00247402  1
  V  V72  1  0.25361398  0.62530643  0.87883207  1
  V  V73  1  0.87446141  0.86835882  0.49156600  1
  V  V74  1  0.25232959  0.12413664  0.87249911  1
  V  V75  1  0.61562723  -0.00734998  0.11657941  1
  V  V76  1  0.37740407  -0.00304337  0.87797069  1
  V  V77  1  0.37132727  0.74981347  0.62370152  1
  V  V78  1  0.64578169  0.12744893  0.49525645  1
  V  V79  1  0.37581825  0.37366745  0.00160933  1
  V  V80  1  0.37699347  0.00160837  0.37584732  1
  V  V81  1  0.38224251  0.87612171  0.01289958  1
  V  V82  1  0.74767102  0.12604599  0.87621166  1
  V  V83  1  -0.01413194  0.62618727  0.13290180  1
  V  V84  1  0.12741236  -0.01201089  0.12675246  1
  Zn  Zn85  1  0.82203788  0.05065302  0.31602267  1
  Zn  Zn86  1  0.00002813  0.73041340  0.75064847  1
  Zn  Zn87  1  -0.00358699  0.50534192  0.50415524  1
  Zn  Zn88  1  0.49733383  0.25721119  0.75010001  1
  Zn  Zn89  1  0.49711878  0.12442338  0.11802667  1
  Zn  Zn90  1  0.25305900  0.51293901  0.24991593  1
  Zn  Zn91  1  0.38380055  0.25595357  0.13483060  1
  Zn  Zn92  1  0.12734211  0.50070365  0.12810832  1
  Zn  Zn93  1  0.87860354  0.50823631  0.37261933  1
  Zn  Zn94  1  0.37526535  0.87750173  0.50148024  1
  Zn  Zn95  1  0.25288910  0.37570940  0.12794847  1
  Zn  Zn96  1  0.75481065  0.50928194  0.24289341  1
  Zn  Zn97  1  0.12416789  0.62593276  0.00378851  1
  Zn  Zn98  1  0.50283766  0.88373937  0.87679959  1
  Zn  Zn99  1  0.62548588  0.62647659  -0.00124786  1
  Zn  Zn100  1  0.49524742  0.74730686  0.25016441  1
  Zn  Zn101  1  0.24718321  0.87321778  0.62302649  1
  Zn  Zn102  1  0.62539627  0.49875959  0.62611488  1
  Zn  Zn103  1  0.75072768  0.50030890  0.74553138  1
  Zn  Zn104  1  0.11839498  0.87723273  0.25631212  1
  Zn  Zn105  1  -0.00092285  0.24857558  0.74943168  1
  Zn  Zn106  1  0.25138855  0.25152684  0.00694368  1
  Zn  Zn107  1  0.19371687  0.18942592  0.18926551  1
  Zn  Zn108  1  0.18999290  0.18740940  0.68646890  1
  Zn  Zn109  1  0.16295086  0.68770823  0.18485001  1
  Zn  Zn110  1  0.18619180  0.68616702  0.68749038  1
  Zn  Zn111  1  0.65444300  0.19170491  0.18547139  1
  Zn  Zn112  1  0.69046553  0.19454956  0.69142709  1
  Zn  Zn113  1  0.68599795  0.69169165  0.18721263  1
  Zn  Zn114  1  0.69075319  0.69035862  0.68453851  1
  Zn  Zn115  1  0.31124264  0.30869307  0.31738327  1
  Zn  Zn116  1  0.31093972  0.30923449  0.80989998  1
  Zn  Zn117  1  0.30900731  0.81843030  0.32104424  1
  Zn  Zn118  1  0.31193629  0.81586223  0.81415361  1
  Zn  Zn119  1  0.81689301  0.34677571  0.30532957  1
  Zn  Zn120  1  0.81147385  0.31454516  0.80712405  1
  Zn  Zn121  1  0.80666571  0.81147996  0.31212191  1
  Zn  Zn122  1  0.81403061  0.81092486  0.80988984  1
  Zn  Zn123  1  0.19003503  0.44146439  0.43763763  1
  Zn  Zn124  1  0.18949701  0.43709224  0.93856506  1
  Zn  Zn125  1  0.18675159  0.93443569  0.43856616  1
  Zn  Zn126  1  0.18695701  0.93633502  0.93943676  1
  Zn  Zn127  1  0.68649708  0.44111417  0.43709359  1
  Zn  Zn128  1  0.68892116  0.44047647  0.93746838  1
  Zn  Zn129  1  0.69673138  0.94070641  0.43950489  1
  Zn  Zn130  1  0.68909819  0.93660880  0.93787001  1
  Zn  Zn131  1  0.31222568  0.05948290  0.06447786  1
  Zn  Zn132  1  0.31015948  0.06008589  0.55769867  1
  Zn  Zn133  1  0.30896747  0.55428254  0.05893459  1
  Zn  Zn134  1  0.30801504  0.56108380  0.55850979  1
  Zn  Zn135  1  0.83155341  0.03599871  0.10715877  1
  Zn  Zn136  1  0.81563090  0.05477816  0.56143034  1
  Zn  Zn137  1  0.81161167  0.56307149  0.05354797  1
  Zn  Zn138  1  0.80700926  0.55988848  0.55620162  1
  Zn  Zn139  1  0.43769503  0.44256404  0.18781676  1
  Zn  Zn140  1  0.44032218  0.43430114  0.68372161  1
  Zn  Zn141  1  0.44098491  0.94204262  0.19273901  1
  Zn  Zn142  1  0.43293399  0.93416974  0.69003680  1
  Zn  Zn143  1  0.93593171  0.43901501  0.18878020  1
  Zn  Zn144  1  0.93825052  0.55856953  0.68814978  1
  Zn  Zn145  1  0.93708842  0.93576730  0.19776121  1
  Zn  Zn146  1  0.93649111  0.93508355  0.68772061  1
  Zn  Zn147  1  0.01520354  0.08272178  0.33086163  1
  Zn  Zn148  1  0.06300818  0.06018546  0.81319531  1
  Zn  Zn149  1  0.06434565  0.56683622  0.31510545  1
  Zn  Zn150  1  0.06944868  0.55751298  0.81981818  1
  Zn  Zn151  1  0.62314267  0.04756118  0.32637696  1
  Zn  Zn152  1  0.53507277  0.10493479  0.83958970  1
  Zn  Zn153  1  0.55954904  0.56191640  0.31219124  1
  Zn  Zn154  1  0.56629202  0.56061347  0.80983308  1
  Zn  Zn155  1  0.43552031  0.18644984  0.44102336  1
  Zn  Zn156  1  0.43324045  0.19314358  0.93604495  1
  Zn  Zn157  1  0.44151464  0.69054421  0.43830362  1
  Zn  Zn158  1  0.43821712  0.68826049  0.94157960  1
  Zn  Zn159  1  0.92488760  0.19116600  0.43291461  1
  Zn  Zn160  1  0.93516314  0.18693026  0.94165163  1
  Zn  Zn161  1  0.93855258  0.69197716  0.43967253  1
  Zn  Zn162  1  0.93970673  0.68241148  0.93384634  1
  Zn  Zn163  1  0.06703867  0.31470085  0.06351087  1
  Zn  Zn164  1  0.05845001  0.31216005  0.56375527  1
  Zn  Zn165  1  0.05618776  0.80764829  0.06405522  1
  Zn  Zn166  1  0.05921025  0.80953551  0.56353606  1
  Zn  Zn167  1  0.55616627  0.30835591  0.05928417  1
  Zn  Zn168  1  0.56053254  0.30708625  0.55853970  1
  Zn  Zn169  1  0.55960549  0.81121729  0.05865174  1
  Zn  Zn170  1  0.56196335  0.81449145  0.56109020  1
  O  O171  1  0.12046113  0.12122805  0.11772188  1
  O  O172  1  0.11818062  0.12113374  0.61917916  1
  O  O173  1  0.10736942  0.61712363  0.11914354  1
  O  O174  1  0.13099831  0.61422441  0.61753923  1
  O  O175  1  0.62677739  0.11072365  0.11431065  1
  O  O176  1  0.63123209  0.12250503  0.61717633  1
  O  O177  1  0.61893871  0.61842669  0.12181175  1
  O  O178  1  0.62058367  0.62584378  0.61716172  1
  O  O179  1  0.37974078  0.37957320  0.38218180  1
  O  O180  1  0.37019742  0.38617627  0.87759758  1
  O  O181  1  0.38670654  0.88342570  0.37808920  1
  O  O182  1  0.37664114  0.88308473  0.88129332  1
  O  O183  1  0.88683420  0.36740402  0.39250711  1
  O  O184  1  0.87911065  0.37971114  0.88244471  1
  O  O185  1  0.86735472  0.86777173  0.39208677  1
  O  O186  1  0.88808113  0.87959479  0.86909669  1
  O  O187  1  0.25369350  0.00475115  0.37017624  1
  O  O188  1  0.25209270  0.00399248  0.86778393  1
  O  O189  1  0.26543513  0.50189897  0.37428928  1
  O  O190  1  0.25810762  0.50758472  0.87009466  1
  O  O191  1  0.72920286  0.00966501  0.35924773  1
  O  O192  1  0.75914735  0.00262934  0.86913205  1
  O  O193  1  0.74545551  0.51734631  0.37228917  1
  O  O194  1  0.75895313  0.50955312  0.87621672  1
  O  O195  1  0.24685220  0.49596246  0.13213744  1
  O  O196  1  0.24377253  0.48926992  0.62985242  1
  O  O197  1  0.23830908  1.00627615  0.13460751  1
  O  O198  1  0.24380715  0.99735741  0.63180559  1
  O  O199  1  0.73723249  0.49848573  0.12022106  1
  O  O200  1  0.74789633  0.48982572  0.62637957  1
  O  O201  1  0.73584191  0.97361569  0.11097343  1
  O  O202  1  0.75998650  0.98394312  0.63508951  1
  O  O203  1  0.01180386  0.37222185  0.25707828  1
  O  O204  1  0.01626187  0.37160273  0.75769711  1
  O  O205  1  -0.00006083  0.85733550  0.24440308  1
  O  O206  1  0.01151268  0.87786332  0.75888557  1
  O  O207  1  0.50888708  0.38340874  0.25934184  1
  O  O208  1  0.51588553  0.37735260  0.74675577  1
  O  O209  1  0.50637713  0.87331206  0.26173441  1
  O  O210  1  0.50868139  0.86873794  0.75106251  1
  O  O211  1  0.48374944  0.11840576  0.25530328  1
  O  O212  1  0.51271077  0.10487574  0.72337033  1
  O  O213  1  0.50110897  0.62661070  0.23839289  1
  O  O214  1  0.49488494  0.62964061  0.74257952  1
  O  O215  1  1.00807618  0.13927626  0.23330980  1
  O  O216  1  0.99491313  0.12395194  0.74224080  1
  O  O217  1  0.99951940  0.63110071  0.24009714  1
  O  O218  1  1.00241440  0.61816404  0.75713311  1
  O  O219  1  0.37488699  0.26538659  -0.00155144  1
  O  O220  1  0.37727794  0.26296733  0.50854146  1
  O  O221  1  0.36846479  0.76454353  -0.00378901  1
  O  O222  1  0.36832494  0.74987101  0.50681261  1
  O  O223  1  0.86283755  0.25960837  -0.00450977  1
  O  O224  1  0.88178348  0.25586142  0.51266852  1
  O  O225  1  0.86443682  0.74896826  -0.00547579  1
  O  O226  1  0.88121163  0.76207157  0.51281638  1
  O  O227  1  0.11492809  0.24300646  0.48856782  1
  O  O228  1  0.12696309  0.24145374  0.99427449  1
  O  O229  1  0.12917976  0.74460726  0.49684724  1
  O  O230  1  0.13377179  0.74919771  0.99521749  1
  O  O231  1  0.62579708  0.24443632  0.48612014  1
  O  O232  1  0.63940440  0.24212213  1.00535564  1
  O  O233  1  0.61801897  0.74146635  0.49042664  1
  O  O234  1  0.62644011  0.74977340  0.98468213  1
  O  O235  1  0.49887960  0.23922826  0.12524344  1
  O  O236  1  0.48404396  0.25277578  0.62631695  1
  O  O237  1  0.50204993  0.73584330  0.12407839  1
  O  O238  1  0.49178089  0.74547716  0.62971514  1
  O  O239  1  1.00615666  0.24691510  0.13564744  1
  O  O240  1  0.99497964  0.23570962  0.62635800  1
  O  O241  1  1.00029560  0.73555968  0.13614330  1
  O  O242  1  0.98544672  0.75076978  0.63068157  1
  O  O243  1  0.00559067  0.26058374  0.36298344  1
  O  O244  1  0.00597856  0.25462736  0.87485178  1
  O  O245  1  0.00493917  0.74233835  0.36004152  1
  O  O246  1  0.00610887  0.75616833  0.87411523  1
  O  O247  1  0.49911048  0.26382206  0.38140973  1
  O  O248  1  0.50071458  0.21221249  0.85229810  1
  O  O249  1  0.50871936  0.75858048  0.37352206  1
  O  O250  1  0.50804519  0.74895437  0.86763027  1
  O  O251  1  0.23741666  0.11476906  0.48469494  1
  O  O252  1  0.23800804  0.12350373  0.99568395  1
  O  O253  1  0.24010346  0.63813117  0.50563117  1
  O  O254  1  0.25363835  0.63480559  0.99321423  1
  O  O255  1  0.74541953  0.12103871  0.50092286  1
  O  O256  1  0.74498982  0.13372520  0.99087970  1
  O  O257  1  0.73528229  0.62321375  0.49000506  1
  O  O258  1  0.74717135  0.63741182  0.99013802  1
  O  O259  1  0.26118628  0.37536961  0.00169009  1
  O  O260  1  0.25783757  0.37928359  0.50852700  1
  O  O261  1  0.25692481  0.86284878  -0.00260549  1
  O  O262  1  0.25262755  0.86239392  0.50360135  1
  O  O263  1  0.75395707  0.36819990  0.00277783  1
  O  O264  1  0.75787969  0.38074374  0.50535665  1
  O  O265  1  0.74652309  0.85794097  0.00464108  1
  O  O266  1  0.76428747  0.88012090  0.51010972  1
  O  O267  1  0.13145266  0.49414375  0.25499717  1
  O  O268  1  0.13352303  0.49181683  0.74371138  1
  O  O269  1  0.12991099  0.99656736  0.23951111  1
  O  O270  1  0.13217098  0.99282026  0.74550453  1
  O  O271  1  0.62588448  0.49410569  0.24051107  1
  O  O272  1  0.62810318  0.48761221  0.74598436  1
  O  O273  1  0.62275472  0.98191219  0.23496544  1
  O  O274  1  0.62928512  0.99305629  0.73632806  1
  O  O275  1  0.36677471  0.00783848  0.25732034  1
  O  O276  1  0.35891127  -0.00754990  0.75668893  1
  O  O277  1  0.37437148  0.49854918  0.26637196  1
  O  O278  1  0.37273723  0.50377816  0.75481091  1
  O  O279  1  0.86677039  0.01613376  0.21634885  1
  O  O280  1  0.87217640  0.00629249  0.75774716  1
  O  O281  1  0.85923766  0.46467556  0.26664582  1
  O  O282  1  0.87295536  0.49330294  0.76239813  1
  O  O283  1  0.11996626  0.36937269  0.37411307  1
  O  O284  1  0.12251502  0.36982186  0.86884044  1
  O  O285  1  0.12530714  0.85812967  0.37817220  1
  O  O286  1  0.11599102  0.87049387  0.87004055  1
  O  O287  1  0.61820155  0.36916803  0.37048675  1
  O  O288  1  0.62812162  0.37572913  0.86501616  1
  O  O289  1  0.62338865  0.86830793  0.36806151  1
  O  O290  1  0.62406160  0.86985176  0.86276375  1
  O  O291  1  0.37570164  0.12052696  0.14001172  1
  O  O292  1  0.36489405  0.14211385  0.61625953  1
  O  O293  1  0.38064031  0.62470839  0.12466344  1
  O  O294  1  0.37848063  0.63325396  0.62786851  1
  O  O295  1  0.88377327  0.14307532  0.11633967  1
  O  O296  1  0.88127795  0.12870841  0.62795089  1
  O  O297  1  0.88661170  0.61621195  0.12343708  1
  O  O298  1  0.87196862  0.63295121  0.62155502  1
  O  O299  1  0.26019071  0.25505195  0.12448258  1
  O  O300  1  0.25653919  0.26246948  0.62762503  1
  O  O301  1  0.25650484  0.74116026  0.12139685  1
  O  O302  1  0.25780812  0.75057578  0.62068411  1
  O  O303  1  0.75418059  0.25424923  0.11998461  1
  O  O304  1  0.75943541  0.25797686  0.62551985  1
  O  O305  1  0.74426764  0.75473180  0.10755682  1
  O  O306  1  0.76508896  0.75994808  0.62971470  1
  O  O307  1  0.23676606  0.23883630  0.37342593  1
  O  O308  1  0.24436758  0.24013098  0.87733184  1
  O  O309  1  0.24203741  0.75036779  0.38418358  1
  O  O310  1  0.24685633  0.74383452  0.88271966  1
  O  O311  1  0.74294360  0.26539573  0.36987134  1
  O  O312  1  0.75487605  0.23960830  0.87923953  1
  O  O313  1  0.73607816  0.74026231  0.37284096  1
  O  O314  1  0.74617400  0.74593485  0.88134161  1
  O  O315  1  0.00903401  0.12134781  0.00879062  1
  O  O316  1  0.00370989  0.10990573  0.50650974  1
  O  O317  1  -0.00125563  0.61652269  0.00853116  1
  O  O318  1  0.01330688  0.62443165  0.49863460  1
  O  O319  1  0.51673465  0.12801028  -0.00596596  1
  O  O320  1  0.50782464  0.11543106  0.49671370  1
  O  O321  1  0.49953497  0.61407520  0.00787990  1
  O  O322  1  0.50774036  0.61891167  0.50406373  1
  O  O323  1  0.49275383  0.38329086  0.49418941  1
  O  O324  1  0.49410126  0.38936606  1.00004321  1
  O  O325  1  0.50359589  0.88377841  0.48846327  1
  O  O326  1  0.48617581  0.87273069  0.99427392  1
  O  O327  1  0.99495588  0.37869704  0.49429600  1
  O  O328  1  0.99227576  0.37859224  0.99753409  1
  O  O329  1  0.98884460  0.88393766  0.50794385  1
  O  O330  1  1.00398231  0.88285015  0.99170495  1
  O  O331  1  0.49274079  0.49263489  0.38402550  1
  O  O332  1  0.48993312  0.50955456  0.88222247  1
  O  O333  1  0.50335156  0.99427658  0.38085150  1
  O  O334  1  0.48006292  1.00519517  0.86677949  1
  O  O335  1  0.99973639  0.48917554  0.37628669  1
  O  O336  1  0.99417239  0.49110553  0.88402622  1
  O  O337  1  1.01305560  0.98507393  0.38996725  1
  O  O338  1  0.99610029  0.99356422  0.88489444  1
  O  O339  1  0.00842459  0.00948036  0.11981084  1
  O  O340  1  0.00378056  0.00899748  0.62302667  1
  O  O341  1  -0.00100054  0.50688359  0.12014267  1
  O  O342  1  0.01446910  0.49490230  0.62460829  1
  O  O343  1  0.51136077  0.00292724  0.12355543  1
  O  O344  1  0.50632429  -0.00958521  0.61460320  1
  O  O345  1  0.50836197  0.50784925  0.11791946  1
  O  O346  1  0.49901777  0.50619067  0.61161255  1
  O  O347  1  0.23901852  0.37473875  0.25603363  1
  O  O348  1  0.24063627  0.37928763  0.74413187  1
  O  O349  1  0.24661834  0.88970777  0.25567627  1
  O  O350  1  0.23639029  0.88043201  0.75032319  1
  O  O351  1  0.73041126  0.37519594  0.23574579  1
  O  O352  1  0.73836499  0.37625198  0.74048426  1
  O  O353  1  0.74203843  0.86091919  0.23077309  1
  O  O354  1  0.74309782  0.87907404  0.74565863  1
  O  O355  1  0.25012512  0.11435494  0.26208795  1
  O  O356  1  0.24207899  0.11418969  0.76030267  1
  O  O357  1  0.25878234  0.63592545  0.23792792  1
  O  O358  1  0.25646428  0.61956529  0.75771012  1
  O  O359  1  0.76143073  0.14775884  0.23281624  1
  O  O360  1  0.75578675  0.12026245  0.75592008  1
  O  O361  1  0.74467766  0.62660301  0.26340473  1
  O  O362  1  0.74603270  0.62336989  0.76173675  1
  O  O363  1  0.36473559  0.12103988  0.37065276  1
  O  O364  1  0.35659222  0.11416108  0.88800922  1
  O  O365  1  0.38181550  0.61040371  0.38112042  1
  O  O366  1  0.36704424  0.61871655  0.87148498  1
  O  O367  1  0.90616676  0.10998142  0.36412557  1
  O  O368  1  0.86805661  0.11793306  0.87211751  1
  O  O369  1  0.85752568  0.62784803  0.38385027  1
  O  O370  1  0.86634445  0.61398566  0.87896404  1
  O  O371  1  0.12625664  0.37894964  0.13822862  1
  O  O372  1  0.13081309  0.37752707  0.63113714  1
  O  O373  1  0.12018357  0.88594559  0.12282116  1
  O  O374  1  0.12356263  0.87870008  0.63434055  1
  O  O375  1  0.62386856  0.38209498  0.12994919  1
  O  O376  1  0.63526532  0.37408209  0.61776171  1
  O  O377  1  0.62380538  0.87517045  0.12906482  1
  O  O378  1  0.63574116  0.86308460  0.63587167  1
  O  O379  1  0.11901064  0.25772215  0.25928451  1
  O  O380  1  0.12491426  0.25602908  0.75635868  1
  O  O381  1  0.11506345  0.75551140  0.25834381  1
  O  O382  1  0.12328597  0.75660417  0.75718585  1
  O  O383  1  0.61988993  0.26029514  0.26648685  1
  O  O384  1  0.62216005  0.26806176  0.74435943  1
  O  O385  1  0.61917931  0.75922516  0.25641076  1
  O  O386  1  0.62242363  0.75583301  0.75829487  1
  O  O387  1  0.37112983  0.23247254  0.25525582  1
  O  O388  1  0.37502707  0.25489442  0.73266480  1
  O  O389  1  0.37400444  0.75398954  0.24598661  1
  O  O390  1  0.37736575  0.74455242  0.74405432  1
  O  O391  1  0.88133804  0.26376819  0.24255678  1
  O  O392  1  0.87756400  0.24392927  0.73835606  1
  O  O393  1  0.88519618  0.74915604  0.25468896  1
  O  O394  1  0.87915919  0.75093435  0.73595680  1
  O  O395  1  0.37978603  0.49186885  0.49303388  1
  O  O396  1  0.38135083  0.49180236  0.99064837  1
  O  O397  1  0.38584400  0.99948930  0.49352589  1
  O  O398  1  0.36392328  0.98462508  0.99183438  1
  O  O399  1  0.87840166  0.49227146  0.49515023  1
  O  O400  1  0.88418647  0.49207647  0.99070063  1
  O  O401  1  0.88855364  0.98638968  0.50259458  1
  O  O402  1  0.88981715  1.00617661  1.00359720  1
  O  O403  1  0.11707813  0.00673050  0.00535054  1
  O  O404  1  0.11474634  0.00011195  0.50842410  1
  O  O405  1  0.10970098  0.49798630  -0.00143711  1
  O  O406  1  0.12637038  0.50911431  0.50785780  1
  O  O407  1  0.62700172  0.00689656  0.00396722  1
  O  O408  1  0.62114165  0.01366537  0.49715421  1
  O  O409  1  0.61756585  0.50234531  0.00569897  1
  O  O410  1  0.61412951  0.50850111  0.50010623  1
  O  O411  1  0.37707546  0.37741242  0.11547957  1
  O  O412  1  0.36650993  0.37175436  0.61704266  1
  O  O413  1  0.38064460  0.88169976  0.11186636  1
  O  O414  1  0.37341674  0.86107933  0.62339698  1
  O  O415  1  0.86649462  0.38185368  0.10995332  1
  O  O416  1  0.86468512  0.36539737  0.61383385  1
  O  O417  1  0.86046168  0.87275329  0.12310769  1
  O  O418  1  0.87072474  0.86607226  0.62035107  1
  O  O419  1  0.12233514  0.13239647  0.37863398  1
  O  O420  1  0.13107360  0.12641712  0.88339423  1
  O  O421  1  0.12544770  0.63697529  0.38451348  1
  O  O422  1  0.14019666  0.62813496  0.88104777  1
  O  O423  1  0.62718499  0.14591404  0.38116311  1
  O  O424  1  0.64245161  0.11195422  0.88155065  1
  O  O425  1  0.62748793  0.63237636  0.38038456  1
  O  O426  1  0.63285666  0.63347651  0.87520657  1
