# generated using pymatgen
data_V85Zn86O256
_symmetry_space_group_name_H-M   'P 1'
_cell_length_a   16.94593328
_cell_length_b   16.92354846
_cell_length_c   16.94249808
_cell_angle_alpha   90.07548446
_cell_angle_beta   90.02916550
_cell_angle_gamma   90.05384100
_symmetry_Int_Tables_number   1
_chemical_formula_structural   V85Zn86O256
_chemical_formula_sum   'V85 Zn86 O256'
_cell_volume   4858.85279159
_cell_formula_units_Z   1
loop_
 _symmetry_equiv_pos_site_id
 _symmetry_equiv_pos_as_xyz
  1  'x, y, z'
loop_
 _atom_site_type_symbol
 _atom_site_label
 _atom_site_symmetry_multiplicity
 _atom_site_fract_x
 _atom_site_fract_y
 _atom_site_fract_z
 _atom_site_occupancy
  V  V0  1  0.62006284  0.86550372  0.24984103  1
  V  V1  1  0.62638831  0.37645463  0.75322063  1
  V  V2  1  0.77018980  0.25040991  0.48682380  1
  V  V3  1  0.11833954  0.11683532  -0.00533919  1
  V  V4  1  0.13182394  0.12351246  0.49404867  1
  V  V5  1  0.00084236  0.87655281  0.88199294  1
  V  V6  1  0.75412603  0.50084771  0.74957677  1
  V  V7  1  0.11604510  0.62121845  -0.00151937  1
  V  V8  1  0.37791906  0.49251788  0.38792438  1
  V  V9  1  0.87531463  0.87371613  0.50461187  1
  V  V10  1  0.50326504  0.62722086  0.12991286  1
  V  V11  1  0.11794455  0.49760748  0.12073450  1
  V  V12  1  0.75068087  0.13026979  0.87500552  1
  V  V13  1  0.49674090  0.12795605  0.12524351  1
  V  V14  1  0.49965624  0.25265483  0.74848951  1
  V  V15  1  0.49799900  0.86914545  0.37050769  1
  V  V16  1  0.36736143  0.00290067  0.37544099  1
  V  V17  1  0.62655860  0.87483613  0.75059493  1
  V  V18  1  0.00135117  0.62998179  0.13119119  1
  V  V19  1  0.25161023  0.37034005  0.61817558  1
  V  V20  1  0.25046960  0.87805464  0.12914658  1
  V  V21  1  -0.00527567  0.86997426  0.37149083  1
  V  V22  1  0.12565150  0.87363953  0.74896032  1
  V  V23  1  0.87896941  0.62817155  0.73680338  1
  V  V24  1  0.37379116  0.13089515  0.74880520  1
  V  V25  1  0.12224410  0.74869896  0.87375559  1
  V  V26  1  0.63128724  0.48860710  0.13380253  1
  V  V27  1  0.74666582  0.00431167  0.25701784  1
  V  V28  1  0.87244873  0.01214683  0.37723927  1
  V  V29  1  0.11691554  0.36626411  0.74971678  1
  V  V30  1  0.87863358  -0.00014669  0.88478932  1
  V  V31  1  0.62559294  0.12759778  0.00074068  1
  V  V32  1  0.12006314  0.37508233  0.25726444  1
  V  V33  1  0.37598434  0.87564660  0.00087308  1
  V  V34  1  0.37420976  0.25925683  0.11861863  1
  V  V35  1  0.12754149  0.24373377  0.37214614  1
  V  V36  1  0.37259596  0.86196697  0.50160096  1
  V  V37  1  0.75155888  0.61514787  0.37506448  1
  V  V38  1  0.61574183  0.50780601  0.62394879  1
  V  V39  1  0.24842912  0.37633679  0.11564437  1
  V  V40  1  0.25119258  0.62367303  0.87408500  1
  V  V41  1  0.62833487  0.00231819  0.62416578  1
  V  V42  1  0.50013966  -0.00039007  0.49873760  1
  V  V43  1  0.63311590  0.12976671  0.48382817  1
  V  V44  1  0.75375075  0.25822012  0.01608479  1
  V  V45  1  0.24993041  0.24256873  -0.01174114  1
  V  V46  1  0.62233675  -0.00078087  0.12632785  1
  V  V47  1  0.11014976  0.62549892  0.50198627  1
  V  V48  1  0.62500014  0.62270818  0.00113039  1
  V  V49  1  0.75456115  0.87050098  0.62720180  1
  V  V50  1  0.87703801  0.24636357  0.63552757  1
  V  V51  1  -0.00096293  0.24912755  0.24283003  1
  V  V52  1  0.74984793  0.74857087  0.49779670  1
  V  V53  1  -0.01067465  0.47937123  0.48560821  1
  V  V54  1  0.12599840  0.75067492  0.37824670  1
  V  V55  1  0.24846003  0.62724035  0.38221514  1
  V  V56  1  0.37497065  0.49199438  0.87882083  1
  V  V57  1  0.50218372  0.87247029  0.87558238  1
  V  V58  1  0.74974278  0.87304492  0.12541809  1
  V  V59  1  -0.00355567  0.74879357  0.73690317  1
  V  V60  1  0.75367077  0.00283690  0.75148847  1
  V  V61  1  0.87715420  0.74884228  0.13252938  1
  V  V62  1  0.25526920  0.86261708  0.62211345  1
  V  V63  1  0.37751303  0.62686663  0.25173117  1
  V  V64  1  0.75683820  0.37424415  0.62170340  1
  V  V65  1  0.37510767  0.00461895  0.87449353  1
  V  V66  1  0.12865059  0.00018773  0.62459435  1
  V  V67  1  0.12007776  0.87274136  0.25050070  1
  V  V68  1  0.49611924  0.26395554  0.25431038  1
  V  V69  1  -0.00062205  0.00352621  0.50104475  1
  V  V70  1  0.75510002  0.62481802  0.87788953  1
  V  V71  1  0.88663224  0.49896095  0.87904113  1
  V  V72  1  0.36525188  0.12737311  0.25149756  1
  V  V73  1  0.00396170  0.12744841  0.63432439  1
  V  V74  1  0.87805819  0.61671986  0.25689859  1
  V  V75  1  0.37756523  0.74850231  0.12878653  1
  V  V76  1  0.11454029  0.50009694  0.62408727  1
  V  V77  1  0.49507204  0.74627114  0.74041589  1
  V  V78  1  0.24851506  0.50067798  0.24912014  1
  V  V79  1  0.25302086  0.00223734  0.74968360  1
  V  V80  1  0.88148284  0.37684626  0.01416251  1
  V  V81  1  0.66948088  0.31512590  0.31384302  1
  V  V82  1  0.24956203  0.75021504  0.00032280  1
  V  V83  1  0.50087545  0.13024692  0.62260870  1
  V  V84  1  0.87304696  0.12770809  0.23997776  1
  Zn  Zn85  1  0.24399488  0.00525292  0.25313522  1
  Zn  Zn86  1  0.75151624  0.48904685  0.25218299  1
  Zn  Zn87  1  0.49560890  0.49276852  0.00435980  1
  Zn  Zn88  1  0.49997891  0.00176853  -0.00021729  1
  Zn  Zn89  1  0.62106963  0.74334474  0.37279100  1
  Zn  Zn90  1  -0.00259711  0.36750121  0.87447427  1
  Zn  Zn91  1  0.11643925  0.24048996  0.86875452  1
  Zn  Zn92  1  0.46952877  0.62215786  0.60249597  1
  Zn  Zn93  1  0.41348440  0.31523068  0.55709761  1
  Zn  Zn94  1  0.25698501  0.24838681  0.49179018  1
  Zn  Zn95  1  0.49504510  0.37179683  0.88003099  1
  Zn  Zn96  1  0.62158178  0.62145113  0.49680630  1
  Zn  Zn97  1  0.37075307  0.62852516  0.74752093  1
  Zn  Zn98  1  0.89191531  0.12855496  0.76355127  1
  Zn  Zn99  1  0.49838806  0.37439417  0.39557991  1
  Zn  Zn100  1  0.88378175  0.87700870  0.00899484  1
  Zn  Zn101  1  0.24783878  0.49962062  0.74653934  1
  Zn  Zn102  1  0.75302083  0.74964019  0.00128996  1
  Zn  Zn103  1  0.11528575  -0.00383764  0.12098963  1
  Zn  Zn104  1  0.62712442  0.74793492  0.87606689  1
  Zn  Zn105  1  0.62583195  0.25371796  0.87725038  1
  Zn  Zn106  1  -0.00235839  0.11722915  0.11998782  1
  Zn  Zn107  1  0.18436476  0.18859130  0.17923583  1
  Zn  Zn108  1  0.19001896  0.18804636  0.68469806  1
  Zn  Zn109  1  0.18728567  0.69054669  0.19226481  1
  Zn  Zn110  1  0.18389411  0.68400103  0.68536978  1
  Zn  Zn111  1  0.68761525  0.18309496  0.18802535  1
  Zn  Zn112  1  0.68865987  0.18932293  0.68649212  1
  Zn  Zn113  1  0.69111731  0.68305645  0.18978321  1
  Zn  Zn114  1  0.69025932  0.69026836  0.69183136  1
  Zn  Zn115  1  0.30757790  0.31448092  0.30966922  1
  Zn  Zn116  1  0.30709946  0.31520783  0.80366774  1
  Zn  Zn117  1  0.31038698  0.81084610  0.31450348  1
  Zn  Zn118  1  0.31333522  0.81399030  0.81226802  1
  Zn  Zn119  1  0.83596505  0.31324427  0.31939755  1
  Zn  Zn120  1  0.81472916  0.31395876  0.81509897  1
  Zn  Zn121  1  0.81187135  0.80998874  0.31254396  1
  Zn  Zn122  1  0.81634603  0.81102718  0.81426266  1
  Zn  Zn123  1  0.18513053  0.44056875  0.43888692  1
  Zn  Zn124  1  0.18603639  0.43671715  0.93516560  1
  Zn  Zn125  1  0.18889603  0.93614848  0.43886838  1
  Zn  Zn126  1  0.19103992  0.93822889  0.93445827  1
  Zn  Zn127  1  0.69187329  0.44065963  0.44593580  1
  Zn  Zn128  1  0.68984886  0.44072069  0.94049078  1
  Zn  Zn129  1  0.68625464  0.93738674  0.43740981  1
  Zn  Zn130  1  0.68846314  0.94006661  0.93999621  1
  Zn  Zn131  1  0.30976748  0.06436850  0.06259960  1
  Zn  Zn132  1  0.31673892  0.06429963  0.56316841  1
  Zn  Zn133  1  0.30968593  0.56279839  0.06017061  1
  Zn  Zn134  1  0.30023485  0.56252863  0.56460403  1
  Zn  Zn135  1  0.80877237  0.06118919  0.06260332  1
  Zn  Zn136  1  0.81653397  0.07112306  0.56475231  1
  Zn  Zn137  1  0.81269953  0.55825700  0.06470977  1
  Zn  Zn138  1  0.81539364  0.55924378  0.55871374  1
  Zn  Zn139  1  0.43607628  0.44340905  0.18588620  1
  Zn  Zn140  1  0.43445663  0.44406003  0.69525759  1
  Zn  Zn141  1  0.43596316  0.94026346  0.18900828  1
  Zn  Zn142  1  0.43900240  0.93673511  0.68500280  1
  Zn  Zn143  1  0.94128815  0.44052628  0.18964474  1
  Zn  Zn144  1  0.93706222  0.43865965  0.68245755  1
  Zn  Zn145  1  0.93769225  0.94161987  0.18928058  1
  Zn  Zn146  1  0.93843668  0.94040408  0.69213044  1
  Zn  Zn147  1  0.05866011  0.06036048  0.31083225  1
  Zn  Zn148  1  0.06770467  0.05953067  0.81903399  1
  Zn  Zn149  1  0.05925005  0.56042317  0.31409810  1
  Zn  Zn150  1  0.06112258  0.56180911  0.80753930  1
  Zn  Zn151  1  0.55307757  0.06014109  0.30844346  1
  Zn  Zn152  1  0.56390881  0.06299457  0.81269210  1
  Zn  Zn153  1  0.56090247  0.55851804  0.31450971  1
  Zn  Zn154  1  0.56251593  0.56244624  0.81307280  1
  Zn  Zn155  1  0.44098305  0.18747238  0.43303833  1
  Zn  Zn156  1  0.43695000  0.19110896  0.93596512  1
  Zn  Zn157  1  0.43868999  0.68560808  0.43285023  1
  Zn  Zn158  1  0.43876161  0.68525744  0.93856376  1
  Zn  Zn159  1  0.93842237  0.20420054  0.43744925  1
  Zn  Zn160  1  0.93814213  0.19530516  0.93938305  1
  Zn  Zn161  1  0.93462010  0.68998564  0.43838318  1
  Zn  Zn162  1  0.93643785  0.69185597  0.93928213  1
  Zn  Zn163  1  0.06247346  0.30670303  0.06107813  1
  Zn  Zn164  1  0.06289422  0.30928752  0.56169212  1
  Zn  Zn165  1  0.06343187  0.80980128  0.06434023  1
  Zn  Zn166  1  0.06561514  0.81470174  0.55923342  1
  Zn  Zn167  1  0.56183058  0.31457321  0.05929609  1
  Zn  Zn168  1  0.58199287  0.31293317  0.56053198  1
  Zn  Zn169  1  0.56279576  0.80775077  0.06159985  1
  Zn  Zn170  1  0.56379403  0.81125506  0.55980806  1
  O  O171  1  0.12777923  0.11823458  0.10989289  1
  O  O172  1  0.12070172  0.11921454  0.61902937  1
  O  O173  1  0.12013182  0.62142594  0.12077447  1
  O  O174  1  0.12791546  0.61493136  0.61295334  1
  O  O175  1  0.61574520  0.12076901  0.12112606  1
  O  O176  1  0.61707435  0.11942371  0.62199371  1
  O  O177  1  0.61832021  0.62269355  0.12082475  1
  O  O178  1  0.63531805  0.61003722  0.62923114  1
  O  O179  1  0.37007177  0.38923690  0.37204385  1
  O  O180  1  0.37103480  0.38905496  0.86891592  1
  O  O181  1  0.37989477  0.88163824  0.37875007  1
  O  O182  1  0.38267896  0.88402894  0.87932659  1
  O  O183  1  0.85352273  0.29291833  0.42658089  1
  O  O184  1  0.87537883  0.38478115  0.88159322  1
  O  O185  1  0.87970753  0.88177367  0.38097238  1
  O  O186  1  0.88347392  0.88065842  0.87989086  1
  O  O187  1  0.26346951  -0.00387363  0.37342938  1
  O  O188  1  0.26188109  -0.00694933  0.85939223  1
  O  O189  1  0.25456743  0.50632621  0.36763652  1
  O  O190  1  0.25697366  0.50791994  0.87574541  1
  O  O191  1  0.75764906  -0.00755339  0.36470217  1
  O  O192  1  0.75511909  0.01004710  0.87255290  1
  O  O193  1  0.75126866  0.51069677  0.37675002  1
  O  O194  1  0.75774554  0.50993731  0.86939856  1
  O  O195  1  0.24054552  0.49498646  0.12753544  1
  O  O196  1  0.23232881  0.48769831  0.62273117  1
  O  O197  1  0.25080122  0.98606127  0.12701655  1
  O  O198  1  0.24811766  0.99407051  0.63533784  1
  O  O199  1  0.73572439  0.50323440  0.13058624  1
  O  O200  1  0.74977481  0.49064861  0.63119007  1
  O  O201  1  0.74334783  0.99295975  0.13504818  1
  O  O202  1  0.74731716  0.99448958  0.63121778  1
  O  O203  1  0.00852911  0.36580918  0.24400207  1
  O  O204  1  0.01411311  0.37954515  0.74706377  1
  O  O205  1  0.00636424  0.87759535  0.26071087  1
  O  O206  1  0.00563702  0.86941935  0.75933136  1
  O  O207  1  0.49249101  0.36529836  0.24829470  1
  O  O208  1  0.50697863  0.36867516  0.75229077  1
  O  O209  1  0.50912841  0.88197111  0.25656392  1
  O  O210  1  0.50553393  0.86841553  0.75637085  1
  O  O211  1  0.49208701  0.13402640  0.23809604  1
  O  O212  1  0.49777710  0.13221800  0.74336977  1
  O  O213  1  0.48921481  0.62189265  0.24364952  1
  O  O214  1  0.50165129  0.64211409  0.75361292  1
  O  O215  1  0.98952998  0.12882408  0.24805979  1
  O  O216  1  1.01005133  0.11829899  0.73869813  1
  O  O217  1  0.99271490  0.62264618  0.24273111  1
  O  O218  1  0.99156429  0.63620116  0.75312398  1
  O  O219  1  0.36232207  0.24543824  0.00657830  1
  O  O220  1  0.36776618  0.22885876  0.50556529  1
  O  O221  1  0.36937454  0.75526572  0.00662840  1
  O  O222  1  0.37334423  0.76339146  0.49144995  1
  O  O223  1  0.86284969  0.26252771  0.00058067  1
  O  O224  1  0.86170079  0.20240447  0.52936688  1
  O  O225  1  0.87334133  0.75343352  0.01570885  1
  O  O226  1  0.86537449  0.76485855  0.49787647  1
  O  O227  1  0.12479250  0.23986832  0.48911867  1
  O  O228  1  0.13652250  0.23982341  0.99854660  1
  O  O229  1  0.12025019  0.74325882  0.48758021  1
  O  O230  1  0.13108521  0.74249190  0.99421568  1
  O  O231  1  0.64224586  0.23374749  0.50385160  1
  O  O232  1  0.63758675  0.24601996  0.99889230  1
  O  O233  1  0.64085049  0.75399542  0.49661945  1
  O  O234  1  0.62903648  0.73626974  0.99856417  1
  O  O235  1  0.49081446  0.24650891  0.12802782  1
  O  O236  1  0.50405738  0.24391652  0.63523738  1
  O  O237  1  0.49298185  0.73654898  0.12192623  1
  O  O238  1  0.50448542  0.75170055  0.63876645  1
  O  O239  1  1.00841048  0.23939030  0.13804642  1
  O  O240  1  0.99144022  0.23834689  0.62082897  1
  O  O241  1  0.99492296  0.73856222  0.12538322  1
  O  O242  1  1.00359514  0.75942869  0.63774849  1
  O  O243  1  0.01524233  0.24562994  0.35950021  1
  O  O244  1  0.00320197  0.25317591  0.87146021  1
  O  O245  1  0.00470511  0.76413799  0.38005697  1
  O  O246  1  0.00568871  0.75719167  0.86873872  1
  O  O247  1  0.49820170  0.25662476  0.36204842  1
  O  O248  1  0.50430823  0.25020335  0.86219358  1
  O  O249  1  0.50102551  0.76509045  0.37265563  1
  O  O250  1  0.50170309  0.76190101  0.87124624  1
  O  O251  1  0.23443474  0.12147900  0.50758575  1
  O  O252  1  0.24475711  0.13785924  1.00140966  1
  O  O253  1  0.23373369  0.61846621  0.48526601  1
  O  O254  1  0.24040610  0.63119151  0.99182038  1
  O  O255  1  0.73848336  0.12534273  0.49550123  1
  O  O256  1  0.74741356  0.13616085  0.99544412  1
  O  O257  1  0.75119548  0.63323525  0.49374638  1
  O  O258  1  0.74517480  0.62473979  0.99415534  1
  O  O259  1  0.24122983  0.36475730  0.01014859  1
  O  O260  1  0.24193561  0.37259518  0.51347456  1
  O  O261  1  0.25599739  0.86987487  0.00678349  1
  O  O262  1  0.26044768  0.88101784  0.51000308  1
  O  O263  1  0.75617155  0.36287756  -0.00318309  1
  O  O264  1  0.74189094  0.36185764  0.51339766  1
  O  O265  1  0.74771332  0.87441021  0.01646188  1
  O  O266  1  0.75678044  0.87235204  0.50720417  1
  O  O267  1  0.12863366  0.49327962  0.24252628  1
  O  O268  1  0.12479764  0.49420623  0.73936260  1
  O  O269  1  0.12738144  0.98643488  0.25145584  1
  O  O270  1  0.13596580  0.99339517  0.74704840  1
  O  O271  1  0.62794044  0.50256383  0.23796602  1
  O  O272  1  0.63327199  0.49593571  0.74446740  1
  O  O273  1  0.63031202  0.99477931  0.24553888  1
  O  O274  1  0.63284700  0.99384028  0.74556359  1
  O  O275  1  0.37269691  0.00978965  0.25655626  1
  O  O276  1  0.37231019  0.00618398  0.75507902  1
  O  O277  1  0.36553752  0.51112007  0.25211271  1
  O  O278  1  0.36732889  0.50722738  0.76445042  1
  O  O279  1  0.86518518  0.00600433  0.25864066  1
  O  O280  1  0.86736814  0.00024002  0.76531199  1
  O  O281  1  0.87033261  0.51122248  0.24578499  1
  O  O282  1  0.87233303  0.50695012  0.75726062  1
  O  O283  1  0.13067816  0.37058617  0.36051140  1
  O  O284  1  0.12299226  0.37826810  0.85876842  1
  O  O285  1  0.11805005  0.86975695  0.37206277  1
  O  O286  1  0.12015862  0.87083292  0.86860916  1
  O  O287  1  0.61913373  0.38253038  0.37362764  1
  O  O288  1  0.62853277  0.37795451  0.86207777  1
  O  O289  1  0.61591945  0.87661411  0.36634219  1
  O  O290  1  0.61867405  0.87521495  0.87089292  1
  O  O291  1  0.38030194  0.13448544  0.12894318  1
  O  O292  1  0.39338253  0.11512832  0.63565355  1
  O  O293  1  0.38045261  0.62673581  0.13157402  1
  O  O294  1  0.36371592  0.62108299  0.63392145  1
  O  O295  1  0.87275283  0.12073783  0.13685100  1
  O  O296  1  0.88905789  0.11926124  0.64389562  1
  O  O297  1  0.88362190  0.62868004  0.13023030  1
  O  O298  1  0.86901747  0.62360872  0.63814583  1
  O  O299  1  0.25623647  0.25814212  0.11562671  1
  O  O300  1  0.24400492  0.26647144  0.62081817  1
  O  O301  1  0.25497827  0.75921136  0.12119763  1
  O  O302  1  0.24403867  0.76393183  0.62979363  1
  O  O303  1  0.74810542  0.24914516  0.11423514  1
  O  O304  1  0.75732109  0.25588727  0.61855747  1
  O  O305  1  0.75713008  0.75682216  0.12613441  1
  O  O306  1  0.74684045  0.76454366  0.62013780  1
  O  O307  1  0.23471797  0.25225281  0.37269304  1
  O  O308  1  0.24872693  0.25654076  0.88726417  1
  O  O309  1  0.23879370  0.74071332  0.37222559  1
  O  O310  1  0.24324242  0.74525049  0.87949415  1
  O  O311  1  0.72071681  0.25104698  0.37149610  1
  O  O312  1  0.74977933  0.23889203  0.87964854  1
  O  O313  1  0.74769383  0.74330321  0.38324932  1
  O  O314  1  0.75092838  0.73785255  0.87800936  1
  O  O315  1  0.01493126  0.12939752  0.00001899  1
  O  O316  1  0.00948506  0.11881016  0.50907272  1
  O  O317  1  0.01182716  0.63001127  0.00726648  1
  O  O318  1  0.00786373  0.62185980  0.49420315  1
  O  O319  1  0.50415539  0.12806174  0.01060318  1
  O  O320  1  0.51266971  0.12185654  0.50713138  1
  O  O321  1  0.50848010  0.62063271  0.00776617  1
  O  O322  1  0.51044853  0.63879403  0.50201065  1
  O  O323  1  0.50003420  0.36628494  0.50920361  1
  O  O324  1  0.50211468  0.37926885  0.99247664  1
  O  O325  1  0.49392732  0.88036113  0.49316371  1
  O  O326  1  0.49470869  0.87605630  0.99290960  1
  O  O327  1  1.00194209  0.37970321  0.49557426  1
  O  O328  1  0.98529092  0.36958299  1.00084030  1
  O  O329  1  0.99158962  0.88236773  0.49577029  1
  O  O330  1  1.00323202  0.86924632  0.98664321  1
  O  O331  1  0.48178047  0.49671777  0.37227789  1
  O  O332  1  0.48458280  0.50187551  0.87369871  1
  O  O333  1  0.49022045  0.99030375  0.37907281  1
  O  O334  1  0.49457009  0.98870927  0.87438213  1
  O  O335  1  1.00150149  0.49529323  0.38586078  1
  O  O336  1  0.98885229  0.49838675  0.87429744  1
  O  O337  1  0.99086352  0.99074048  0.38147344  1
  O  O338  1  0.99083800  0.99007956  0.87080863  1
  O  O339  1  0.00131773  0.00196340  0.12332009  1
  O  O340  1  0.00870123  0.00404225  0.62052872  1
  O  O341  1  0.01219181  0.51169488  0.12680690  1
  O  O342  1  0.00987434  0.49413292  0.61239265  1
  O  O343  1  0.50331231  0.01037397  0.12365832  1
  O  O344  1  0.50929938  0.00519857  0.61853798  1
  O  O345  1  0.50844396  0.51140084  0.12478303  1
  O  O346  1  0.51300549  0.50837440  0.63716548  1
  O  O347  1  0.24064669  0.38013949  0.23537354  1
  O  O348  1  0.23647367  0.37873306  0.73864283  1
  O  O349  1  0.24293434  0.87580055  0.24329860  1
  O  O350  1  0.24720238  0.88122979  0.74298211  1
  O  O351  1  0.74796254  0.36856220  0.26894760  1
  O  O352  1  0.74491861  0.37873277  0.74288936  1
  O  O353  1  0.74284366  0.88185178  0.24197298  1
  O  O354  1  0.74770288  0.87937408  0.74478762  1
  O  O355  1  0.26185298  0.12518341  0.24103616  1
  O  O356  1  0.26288241  0.11714488  0.74160799  1
  O  O357  1  0.25245584  0.61903145  0.25847916  1
  O  O358  1  0.24237986  0.62496871  0.76581331  1
  O  O359  1  0.75573549  0.11477126  0.24990515  1
  O  O360  1  0.74761521  0.11917688  0.76063157  1
  O  O361  1  0.75898184  0.62255574  0.25994813  1
  O  O362  1  0.75915431  0.62274214  0.75925025  1
  O  O363  1  0.38339795  0.11508047  0.36161160  1
  O  O364  1  0.38429046  0.11170175  0.86531373  1
  O  O365  1  0.36612712  0.61915452  0.36833494  1
  O  O366  1  0.36435839  0.62227151  0.87357670  1
  O  O367  1  0.88107130  0.11396186  0.36993229  1
  O  O368  1  0.86889301  0.11838164  0.87842343  1
  O  O369  1  0.86737923  0.63291004  0.36540170  1
  O  O370  1  0.87027801  0.61788209  0.87542489  1
  O  O371  1  0.12805582  0.38251908  0.12847778  1
  O  O372  1  0.12767318  0.37851272  0.63258973  1
  O  O373  1  0.13239758  0.87279091  0.13344133  1
  O  O374  1  0.13317885  0.88283952  0.62842841  1
  O  O375  1  0.62228869  0.39041867  0.12427060  1
  O  O376  1  0.63446720  0.38645772  0.63766503  1
  O  O377  1  0.62806313  0.87851387  0.13151730  1
  O  O378  1  0.63364572  0.88316137  0.62941797  1
  O  O379  1  0.12188283  0.25584059  0.25193491  1
  O  O380  1  0.12996238  0.26238982  0.75031829  1
  O  O381  1  0.12625018  0.76280007  0.26162382  1
  O  O382  1  0.11759813  0.75461833  0.75567666  1
  O  O383  1  0.61565022  0.25561705  0.24533068  1
  O  O384  1  0.61885576  0.25965296  0.75057450  1
  O  O385  1  0.62976725  0.76276917  0.25075609  1
  O  O386  1  0.61704305  0.75816411  0.75457927  1
  O  O387  1  0.37860595  0.24550839  0.24144128  1
  O  O388  1  0.38122168  0.23888782  0.75437333  1
  O  O389  1  0.36726538  0.73567843  0.24458345  1
  O  O390  1  0.39159949  0.75223441  0.75502324  1
  O  O391  1  0.88518606  0.23982796  0.25068818  1
  O  O392  1  0.86866920  0.24397190  0.74005328  1
  O  O393  1  0.87093254  0.73988846  0.23879712  1
  O  O394  1  0.88471581  0.74097483  0.75401520  1
  O  O395  1  0.36675008  0.50451577  0.48536456  1
  O  O396  1  0.37422798  0.50691188  0.98405085  1
  O  O397  1  0.38306983  0.99838450  0.49169045  1
  O  O398  1  0.37538303  0.99589420  0.99105891  1
  O  O399  1  0.89063081  0.49722763  0.50196699  1
  O  O400  1  0.86783078  0.48585482  0.99264687  1
  O  O401  1  0.87721689  0.99453635  0.49401853  1
  O  O402  1  0.86730177  0.99475252  0.98914314  1
  O  O403  1  0.13483219  0.01326676  -0.00084718  1
  O  O404  1  0.11907823  0.00413731  0.50374120  1
  O  O405  1  0.13047586  0.50930909  0.00865250  1
  O  O406  1  0.11290549  0.50622877  0.50344991  1
  O  O407  1  0.62312184  0.00873125  0.00857633  1
  O  O408  1  0.62197214  0.00888637  0.50483421  1
  O  O409  1  0.62670518  0.51070407  0.01069370  1
  O  O410  1  0.62886914  0.50117186  0.52077320  1
  O  O411  1  0.36515944  0.36692410  0.12771896  1
  O  O412  1  0.35698924  0.38202361  0.63276344  1
  O  O413  1  0.36994359  0.86984237  0.12230005  1
  O  O414  1  0.36830165  0.87965018  0.61401793  1
  O  O415  1  0.87496502  0.38340183  0.11282045  1
  O  O416  1  0.86677335  0.36203661  0.62898127  1
  O  O417  1  0.86656995  0.86746932  0.12983269  1
  O  O418  1  0.86695475  0.88485688  0.61632953  1
  O  O419  1  0.12181479  0.12847223  0.38246252  1
  O  O420  1  0.13111616  0.12394260  0.88825475  1
  O  O421  1  0.12793424  0.63329365  0.37694608  1
  O  O422  1  0.12814476  0.62680525  0.88290848  1
  O  O423  1  0.61660834  0.11825965  0.38655024  1
  O  O424  1  0.63273883  0.12554033  0.88383124  1
  O  O425  1  0.63462491  0.62526128  0.37517332  1
  O  O426  1  0.63442893  0.62262804  0.88389697  1
