# generated using pymatgen
data_V85Zn86O256
_symmetry_space_group_name_H-M   'P 1'
_cell_length_a   16.96206819
_cell_length_b   16.97835015
_cell_length_c   16.95870052
_cell_angle_alpha   90.06484275
_cell_angle_beta   89.92075337
_cell_angle_gamma   90.02800442
_symmetry_Int_Tables_number   1
_chemical_formula_structural   V85Zn86O256
_chemical_formula_sum   'V85 Zn86 O256'
_cell_volume   4883.89273146
_cell_formula_units_Z   1
loop_
 _symmetry_equiv_pos_site_id
 _symmetry_equiv_pos_as_xyz
  1  'x, y, z'
loop_
 _atom_site_type_symbol
 _atom_site_label
 _atom_site_symmetry_multiplicity
 _atom_site_fract_x
 _atom_site_fract_y
 _atom_site_fract_z
 _atom_site_occupancy
  V  V0  1  0.24961853  0.12697847  0.87114965  1
  V  V1  1  0.13255480  0.50475995  0.62014804  1
  V  V2  1  0.89641567  0.50294142  0.87424404  1
  V  V3  1  0.00354926  0.62825197  0.62837234  1
  V  V4  1  0.74946674  0.25666983  0.49784882  1
  V  V5  1  0.25199634  0.37948867  0.12318591  1
  V  V6  1  0.24820246  0.87560908  0.12718747  1
  V  V7  1  0.24620157  0.00607820  0.26227945  1
  V  V8  1  0.12287583  0.49764801  0.12200707  1
  V  V9  1  0.37038689  0.49319344  0.87669695  1
  V  V10  1  0.87453116  0.00417037  0.37704813  1
  V  V11  1  0.60522566  0.90374378  0.27109442  1
  V  V12  1  0.87894793  0.13263135  0.24617370  1
  V  V13  1  0.37523201  -0.00404919  0.88107770  1
  V  V14  1  0.11870961  0.00332184  0.62318361  1
  V  V15  1  0.76078710  0.50311324  0.24724738  1
  V  V16  1  -0.00162256  0.01289043  0.50495440  1
  V  V17  1  0.00152635  -0.00737819  -0.00038431  1
  V  V18  1  0.76037361  0.62450344  0.37067815  1
  V  V19  1  0.87871668  -0.00519492  0.87623948  1
  V  V20  1  0.49407706  0.49180387  0.00083689  1
  V  V21  1  0.49600140  0.62006525  0.12405728  1
  V  V22  1  0.62335313  0.37929835  0.25006457  1
  V  V23  1  0.87891793  0.38172261  0.50606423  1
  V  V24  1  0.13039650  0.24488239  0.39021850  1
  V  V25  1  0.87086102  0.74276936  0.62915268  1
  V  V26  1  0.12419615  0.00007791  0.12639066  1
  V  V27  1  0.00840865  0.50900701  0.50015142  1
  V  V28  1  0.61974269  0.49871112  0.62824303  1
  V  V29  1  0.37404947  0.37753225  0.51929804  1
  V  V30  1  0.49655368  0.37262072  0.87331923  1
  V  V31  1  0.24985316  0.62637357  0.86978722  1
  V  V32  1  0.62776144  0.49822936  0.12195306  1
  V  V33  1  -0.00190738  0.87584798  0.37862230  1
  V  V34  1  0.62840329  0.00129873  0.12049529  1
  V  V35  1  0.11834299  0.61900921  -0.00297068  1
  V  V36  1  0.37451340  0.25576682  0.11977897  1
  V  V37  1  0.74612519  0.61650781  0.86410363  1
  V  V38  1  0.74905520  0.74980045  0.49921895  1
  V  V39  1  0.74354859  0.74025072  0.00100891  1
  V  V40  1  -0.00699125  0.61961282  0.12600640  1
  V  V41  1  0.61508984  0.62361427  0.49768416  1
  V  V42  1  0.00424702  0.37773796  0.37858703  1
  V  V43  1  0.35906485  0.61991739  0.25057579  1
  V  V44  1  0.12085835  0.87350842  0.25314992  1
  V  V45  1  0.27073238  0.74844356  0.50471496  1
  V  V46  1  0.50090464  0.74618724  0.25122401  1
  V  V47  1  0.24781891  -0.00199612  0.75099175  1
  V  V48  1  0.25293573  0.25757855  -0.00834772  1
  V  V49  1  0.62658163  0.74698237  0.36844642  1
  V  V50  1  0.62364837  0.25963477  0.37557803  1
  V  V51  1  0.76147195  0.25593877  0.00453267  1
  V  V52  1  0.75099776  0.87230945  0.12799911  1
  V  V53  1  0.87417548  0.23477468  0.62723346  1
  V  V54  1  0.24611701  0.74835594  0.00042461  1
  V  V55  1  0.51045848  0.86095831  0.88147700  1
  V  V56  1  0.74835150  0.12955257  0.36941437  1
  V  V57  1  0.74683607  -0.00446037  0.75330233  1
  V  V58  1  0.87623436  0.86757427  -0.00468245  1
  V  V59  1  0.75277284  0.12583017  0.87723628  1
  V  V60  1  0.36695386  0.12814902  0.25864657  1
  V  V61  1  0.11962579  0.86992127  0.75480117  1
  V  V62  1  0.49760033  0.00027539  0.00762257  1
  V  V63  1  0.25040097  0.49246741  0.74304088  1
  V  V64  1  0.01126307  0.34665808  0.86530794  1
  V  V65  1  0.13086644  0.38006981  0.25310658  1
  V  V66  1  0.37200415  0.74681234  0.12598050  1
  V  V67  1  0.38855553  0.63671395  0.74014632  1
  V  V68  1  0.74579582  0.87690904  0.62954069  1
  V  V69  1  0.12150382  0.74314031  0.39105350  1
  V  V70  1  -0.00630033  0.74274837  0.25184583  1
  V  V71  1  0.62710310  0.25236330  0.87644628  1
  V  V72  1  -0.00204705  0.13145622  0.12269453  1
  V  V73  1  -0.01074740  0.75040458  0.76012368  1
  V  V74  1  0.38965358  0.11749666  0.75053014  1
  V  V75  1  0.26194157  0.87051944  0.62425305  1
  V  V76  1  0.37424042  0.48752794  0.36822113  1
  V  V77  1  0.75650888  0.00445206  0.24556103  1
  V  V78  1  0.87146132  0.87859096  0.50287462  1
  V  V79  1  0.49815017  0.12574196  0.12957002  1
  V  V80  1  0.37947039  0.23085690  0.61992826  1
  V  V81  1  0.37383401  0.87301350  0.00757888  1
  V  V82  1  0.49750712  0.25640918  0.25386349  1
  V  V83  1  -0.00035969  0.25519366  0.24745231  1
  V  V84  1  0.12872746  0.12881292  -0.00299110  1
  Zn  Zn85  1  0.58485858  0.82566144  0.72616167  1
  Zn  Zn86  1  0.62936805  0.37635039  0.75099236  1
  Zn  Zn87  1  0.50109422  0.49330410  0.49281078  1
  Zn  Zn88  1  0.88112782  0.50400502  0.37332564  1
  Zn  Zn89  1  0.46858745  0.01220950  0.52490965  1
  Zn  Zn90  1  0.89860842  0.37570398  0.00352241  1
  Zn  Zn91  1  0.62480528  0.12937571  0.00197382  1
  Zn  Zn92  1  0.11724553  0.75261603  0.87777711  1
  Zn  Zn93  1  0.24410814  0.61564629  0.38340447  1
  Zn  Zn94  1  0.50639899  0.24679148  0.74573355  1
  Zn  Zn95  1  0.24812274  0.12514319  0.40522068  1
  Zn  Zn96  1  0.87147899  0.74046451  0.13112041  1
  Zn  Zn97  1  0.62148167  0.62579393  -0.00390241  1
  Zn  Zn98  1  0.61268271  0.00808663  0.62984323  1
  Zn  Zn99  1  0.12984393  0.35095313  0.73858546  1
  Zn  Zn100  1  0.75190786  0.37736493  0.62989747  1
  Zn  Zn101  1  0.88280082  0.12558186  0.75172640  1
  Zn  Zn102  1  0.76355133  0.37111543  0.12678132  1
  Zn  Zn103  1  0.39885797  0.88614133  0.45182377  1
  Zn  Zn104  1  0.60546215  0.13035012  0.51345858  1
  Zn  Zn105  1  0.76239594  0.49783042  0.74511875  1
  Zn  Zn106  1  0.04651926  0.18149463  0.68553031  1
  Zn  Zn107  1  0.18403693  0.19321310  0.18669244  1
  Zn  Zn108  1  0.19459127  0.20493236  0.58918947  1
  Zn  Zn109  1  0.17910145  0.68800981  0.18749104  1
  Zn  Zn110  1  0.18745221  0.68752196  0.68662539  1
  Zn  Zn111  1  0.68505472  0.18955983  0.18598220  1
  Zn  Zn112  1  0.69531230  0.19086213  0.69299263  1
  Zn  Zn113  1  0.68608713  0.68240940  0.18555620  1
  Zn  Zn114  1  0.64630680  0.69258171  0.67874255  1
  Zn  Zn115  1  0.30741539  0.31184261  0.31238072  1
  Zn  Zn116  1  0.31500066  0.30705055  0.80036261  1
  Zn  Zn117  1  0.30179487  0.80264497  0.31215587  1
  Zn  Zn118  1  0.31493501  0.81290506  0.81604101  1
  Zn  Zn119  1  0.81618676  0.32064030  0.31291484  1
  Zn  Zn120  1  0.81968096  0.31959627  0.81172039  1
  Zn  Zn121  1  0.80925812  0.81682932  0.31252504  1
  Zn  Zn122  1  0.77225919  0.78427602  0.79368972  1
  Zn  Zn123  1  0.19525732  0.43422381  0.44252041  1
  Zn  Zn124  1  0.17583383  0.43420313  0.92988073  1
  Zn  Zn125  1  0.18845858  0.93453984  0.44316784  1
  Zn  Zn126  1  0.18565570  0.93591976  0.93631970  1
  Zn  Zn127  1  0.68920587  0.44078141  0.43644964  1
  Zn  Zn128  1  0.68820309  0.43773632  0.93625173  1
  Zn  Zn129  1  0.60581210  0.93856490  0.44366615  1
  Zn  Zn130  1  0.69176346  0.93467109  0.94171660  1
  Zn  Zn131  1  0.31145763  0.06516545  0.06986376  1
  Zn  Zn132  1  0.30526831  0.05417892  0.56164779  1
  Zn  Zn133  1  0.30914609  0.56015057  0.05789131  1
  Zn  Zn134  1  0.32166819  0.56518332  0.56235550  1
  Zn  Zn135  1  0.81635848  0.06571257  0.05898017  1
  Zn  Zn136  1  0.75359866  0.06416166  0.55934584  1
  Zn  Zn137  1  0.81634118  0.55152812  0.05361692  1
  Zn  Zn138  1  0.80804391  0.56299754  0.56140591  1
  Zn  Zn139  1  0.43552507  0.43642984  0.19037767  1
  Zn  Zn140  1  0.44338092  0.44653633  0.69221513  1
  Zn  Zn141  1  0.42104822  0.92250375  0.24942628  1
  Zn  Zn142  1  0.43880414  0.93480748  0.69255756  1
  Zn  Zn143  1  0.93990001  0.43417099  0.18372912  1
  Zn  Zn144  1  0.94433094  0.43656631  0.69193081  1
  Zn  Zn145  1  0.93719770  0.93729442  0.18562794  1
  Zn  Zn146  1  0.93466827  0.93488188  0.68950961  1
  Zn  Zn147  1  0.06186078  0.06579785  0.31702836  1
  Zn  Zn148  1  0.06372507  0.05716313  0.81718381  1
  Zn  Zn149  1  0.06679460  0.56180882  0.31041425  1
  Zn  Zn150  1  0.06523384  0.56752409  0.80481995  1
  Zn  Zn151  1  0.54202506  0.08145512  0.34384171  1
  Zn  Zn152  1  0.56770405  0.05461678  0.82281117  1
  Zn  Zn153  1  0.55948125  0.56221820  0.31184131  1
  Zn  Zn154  1  0.56376140  0.56193201  0.81510119  1
  Zn  Zn155  1  0.43509289  0.19154760  0.43780158  1
  Zn  Zn156  1  0.43677397  0.18644700  0.93695835  1
  Zn  Zn157  1  0.43572771  0.68479441  0.42893701  1
  Zn  Zn158  1  0.43363108  0.68073451  0.93722812  1
  Zn  Zn159  1  0.93635993  0.19394240  0.43770059  1
  Zn  Zn160  1  0.93989885  0.18452288  0.93487825  1
  Zn  Zn161  1  0.93707577  0.68766807  0.44197239  1
  Zn  Zn162  1  0.92959590  0.68257375  0.94028444  1
  Zn  Zn163  1  0.06579443  0.31157938  0.05825400  1
  Zn  Zn164  1  0.06167876  0.31728355  0.57491446  1
  Zn  Zn165  1  0.06069213  0.80737998  0.06516384  1
  Zn  Zn166  1  0.05871673  0.81990375  0.57072673  1
  Zn  Zn167  1  0.56522334  0.31465236  0.06085208  1
  Zn  Zn168  1  0.55419144  0.31843945  0.56173629  1
  Zn  Zn169  1  0.56333590  0.81311437  0.06915140  1
  Zn  Zn170  1  0.54436025  0.81031529  0.55611251  1
  O  O171  1  0.11752158  0.11964083  0.11818514  1
  O  O172  1  0.12542130  0.10348469  0.62957375  1
  O  O173  1  0.12069345  0.61520802  0.11795040  1
  O  O174  1  0.11384985  0.62088323  0.62609446  1
  O  O175  1  0.61655462  0.11921194  0.12333887  1
  O  O176  1  0.65511995  0.11907862  0.61787435  1
  O  O177  1  0.61554445  0.61031985  0.12501486  1
  O  O178  1  0.63550332  0.60804722  0.60808851  1
  O  O179  1  0.37689595  0.38691556  0.36340655  1
  O  O180  1  0.38005984  0.38503831  0.86719408  1
  O  O181  1  0.38089438  0.87245919  0.34279600  1
  O  O182  1  0.38066978  0.87960063  0.88981590  1
  O  O183  1  0.88657136  0.37825506  0.38714250  1
  O  O184  1  0.89819308  0.37711023  0.87537322  1
  O  O185  1  0.87797809  0.88177082  0.38192437  1
  O  O186  1  0.86908733  0.88103471  0.89357961  1
  O  O187  1  0.23464310  0.00868270  0.36534195  1
  O  O188  1  0.25703395  0.00282384  0.87223697  1
  O  O189  1  0.26639873  0.50211053  0.37928649  1
  O  O190  1  0.25385475  0.50479293  0.86746635  1
  O  O191  1  0.75837828  0.01820468  0.36248170  1
  O  O192  1  0.75823579  0.00464348  0.87543250  1
  O  O193  1  0.75207315  0.50846203  0.36519669  1
  O  O194  1  0.75474433  0.50781224  0.87495503  1
  O  O195  1  0.24313271  0.48552574  0.11752323  1
  O  O196  1  0.24734313  0.51073360  0.63511865  1
  O  O197  1  0.24066994  0.99425148  0.13317521  1
  O  O198  1  0.24094286  0.98781468  0.63617777  1
  O  O199  1  0.74255837  0.49921280  0.13071377  1
  O  O200  1  0.74073261  0.49592180  0.62474488  1
  O  O201  1  0.74684517  0.99539932  0.12282753  1
  O  O202  1  0.77072791  0.98827106  0.64177527  1
  O  O203  1  0.00864853  0.37115727  0.25706484  1
  O  O204  1  0.00937001  0.37104545  0.75970911  1
  O  O205  1  0.00731291  0.87093988  0.25561423  1
  O  O206  1  0.00713878  0.86257952  0.74637783  1
  O  O207  1  0.51349941  0.36922337  0.24432356  1
  O  O208  1  0.50495486  0.37615095  0.76415259  1
  O  O209  1  0.51479892  0.86045696  0.22910884  1
  O  O210  1  0.49821487  0.87938074  0.77638648  1
  O  O211  1  0.48823533  0.13365853  0.24926351  1
  O  O212  1  0.49091631  0.11802254  0.76457035  1
  O  O213  1  0.49133467  0.63008529  0.24149504  1
  O  O214  1  0.48644306  0.62162508  0.75981791  1
  O  O215  1  0.99949918  0.13458267  0.24213825  1
  O  O216  1  0.99503289  0.11446162  0.75274712  1
  O  O217  1  1.00656495  0.63248523  0.24073452  1
  O  O218  1  0.99893292  0.63510215  0.73728058  1
  O  O219  1  0.36541652  0.24469802  0.00861513  1
  O  O220  1  0.38251465  0.25594004  0.51506570  1
  O  O221  1  0.36580299  0.75092311  0.00803334  1
  O  O222  1  0.37149241  0.76371611  0.48843980  1
  O  O223  1  0.86355171  0.25081596  -0.00651315  1
  O  O224  1  0.86721259  0.26128843  0.50367074  1
  O  O225  1  0.86862829  0.75471546  0.01012726  1
  O  O226  1  0.86858005  0.75741531  0.50449999  1
  O  O227  1  0.12262535  0.25872717  0.49097401  1
  O  O228  1  0.13670605  0.23393543  1.00362091  1
  O  O229  1  0.11690619  0.75317775  0.49066900  1
  O  O230  1  0.13030920  0.74224754  0.99889824  1
  O  O231  1  0.62868592  0.25079314  0.49095511  1
  O  O232  1  0.63284505  0.24934630  0.98971519  1
  O  O233  1  0.63151229  0.74278710  0.48620835  1
  O  O234  1  0.63946063  0.74699371  1.01091921  1
  O  O235  1  0.49392668  0.24874985  0.13215224  1
  O  O236  1  0.48735630  0.25374410  0.63128535  1
  O  O237  1  0.49389362  0.73966428  0.13028146  1
  O  O238  1  0.54732081  0.75211180  0.64556451  1
  O  O239  1  1.00964300  0.24198634  0.13334683  1
  O  O240  1  0.97647135  0.24354924  0.60957631  1
  O  O241  1  0.99910712  0.73847460  0.13568874  1
  O  O242  1  0.99105865  0.74438906  0.63113738  1
  O  O243  1  0.01142213  0.25803913  0.37005431  1
  O  O244  1  0.00453367  0.24712693  0.86495554  1
  O  O245  1  0.00682536  0.75252716  0.37121959  1
  O  O246  1  -0.00517719  0.74158028  0.86335967  1
  O  O247  1  0.50795019  0.24897145  0.36101406  1
  O  O248  1  0.50768017  0.25714850  0.87737048  1
  O  O249  1  0.50925404  0.74482178  0.35859780  1
  O  O250  1  0.49855445  0.76237285  0.89110979  1
  O  O251  1  0.24724237  0.13709156  0.51622582  1
  O  O252  1  0.24608489  0.12986182  0.99439705  1
  O  O253  1  0.26057549  0.64400255  0.49992567  1
  O  O254  1  0.24008020  0.62813795  0.99099118  1
  O  O255  1  0.75978939  0.14686637  0.48046966  1
  O  O256  1  0.75062004  0.13497522  0.99239450  1
  O  O257  1  0.74278913  0.63070552  0.48772694  1
  O  O258  1  0.74679189  0.62876531  1.00373098  1
  O  O259  1  0.24040311  0.36143707  0.00177393  1
  O  O260  1  0.27620912  0.37003364  0.49179961  1
  O  O261  1  0.25320658  0.86952874  0.00685474  1
  O  O262  1  0.24450920  0.85995132  0.51025164  1
  O  O263  1  0.74959649  0.36010111  -0.00175777  1
  O  O264  1  0.75963201  0.36859447  0.49540228  1
  O  O265  1  0.75664039  0.86444659  0.00898560  1
  O  O266  1  0.76304581  0.86918257  0.50957312  1
  O  O267  1  0.12615223  0.48722746  0.24239926  1
  O  O268  1  0.14246180  0.50883729  0.74205768  1
  O  O269  1  0.12504534  0.99399848  0.24648660  1
  O  O270  1  0.13142774  0.98961301  0.74765829  1
  O  O271  1  0.62972942  0.49407387  0.24398828  1
  O  O272  1  0.62453619  0.50138441  0.73548539  1
  O  O273  1  0.63978257  1.00465407  0.23147191  1
  O  O274  1  0.64326490  1.00161610  0.75418179  1
  O  O275  1  0.35816826  0.01594084  0.24362319  1
  O  O276  1  0.36652829  0.00085568  0.76034807  1
  O  O277  1  0.37520837  0.50728693  0.25742021  1
  O  O278  1  0.36484256  0.50854988  0.75638153  1
  O  O279  1  0.87459434  0.00896431  0.25454771  1
  O  O280  1  0.87374008  -0.00390184  0.76844232  1
  O  O281  1  0.86348761  0.49348412  0.25244759  1
  O  O282  1  0.87793739  0.49317105  0.76795604  1
  O  O283  1  0.12374002  0.37035667  0.36899693  1
  O  O284  1  0.11784999  0.36652851  0.85974295  1
  O  O285  1  0.11822368  0.86506195  0.37040322  1
  O  O286  1  0.12812073  0.87126777  0.86154058  1
  O  O287  1  0.62910530  0.36699225  0.36637759  1
  O  O288  1  0.61648866  0.36758352  0.87559172  1
  O  O289  1  0.64143913  0.85611427  0.36605287  1
  O  O290  1  0.60946784  0.87626804  0.88957040  1
  O  O291  1  0.37841732  0.13847472  0.13433908  1
  O  O292  1  0.37578460  0.12543276  0.63500654  1
  O  O293  1  0.37595583  0.62579241  0.13002663  1
  O  O294  1  0.37859947  0.62550057  0.64045141  1
  O  O295  1  0.89065313  0.12281838  0.12803974  1
  O  O296  1  0.85946215  0.13612410  0.62252539  1
  O  O297  1  0.89006924  0.61799005  0.11896632  1
  O  O298  1  0.88055169  0.63788331  0.61613165  1
  O  O299  1  0.25612956  0.25829545  0.11564567  1
  O  O300  1  0.28622232  0.26036725  0.63971247  1
  O  O301  1  0.24992612  0.75496170  0.12056680  1
  O  O302  1  0.24743067  0.75415181  0.61067239  1
  O  O303  1  0.74475535  0.24982414  0.10757259  1
  O  O304  1  0.75814982  0.25861626  0.61273319  1
  O  O305  1  0.75277430  0.75637651  0.12473881  1
  O  O306  1  0.75599817  0.75760356  0.61763756  1
  O  O307  1  0.23223690  0.24844483  0.37023099  1
  O  O308  1  0.25868111  0.23864341  0.87922135  1
  O  O309  1  0.23661088  0.74994799  0.39112790  1
  O  O310  1  0.24816847  0.74086696  0.88319151  1
  O  O311  1  0.74420639  0.25194337  0.37643076  1
  O  O312  1  0.74689348  0.24382158  0.88159404  1
  O  O313  1  0.74599804  0.74120627  0.37498167  1
  O  O314  1  0.76581650  0.72491476  0.89168056  1
  O  O315  1  0.00916012  0.11927250  0.00538797  1
  O  O316  1  -0.00725683  0.11157487  0.49424195  1
  O  O317  1  0.01274634  0.63170452  0.00863042  1
  O  O318  1  -0.00279223  0.61523553  0.50805804  1
  O  O319  1  0.49900818  0.11716404  0.00980908  1
  O  O320  1  0.50635795  0.10398119  0.45838379  1
  O  O321  1  0.50009054  0.61141651  0.00565290  1
  O  O322  1  0.51275802  0.62733064  0.49237610  1
  O  O323  1  0.48099196  0.37510644  0.49368522  1
  O  O324  1  0.50151141  0.38414105  0.99078709  1
  O  O325  1  0.50970790  0.89142156  0.49212293  1
  O  O326  1  0.49295731  0.88107096  1.00255127  1
  O  O327  1  0.99639454  0.38809856  0.49849768  1
  O  O328  1  1.01227308  0.36450380  0.97542141  1
  O  O329  1  0.98707919  0.87723385  0.49511405  1
  O  O330  1  0.99059031  0.88169602  1.01193148  1
  O  O331  1  0.48056823  0.50901924  0.37531445  1
  O  O332  1  0.49206702  0.49268660  0.88202669  1
  O  O333  1  0.54735796  0.96828384  0.33955615  1
  O  O334  1  0.49577944  0.99417081  0.89402827  1
  O  O335  1  1.00301585  0.49727538  0.38262056  1
  O  O336  1  0.99726756  0.50553763  0.87318932  1
  O  O337  1  0.99484669  0.99435351  0.38136969  1
  O  O338  1  0.99452162  0.99868312  0.89230673  1
  O  O339  1  0.00494633  0.00731981  0.11705059  1
  O  O340  1  0.00516494  -0.00941463  0.61607773  1
  O  O341  1  0.01491667  0.50572565  0.12983757  1
  O  O342  1  0.00553645  0.51211029  0.62018481  1
  O  O343  1  0.51021389  0.00315268  0.11686550  1
  O  O344  1  0.50058803  0.00319636  0.63156194  1
  O  O345  1  0.50357401  0.49971232  0.11811466  1
  O  O346  1  0.51578993  0.49929121  0.61769446  1
  O  O347  1  0.24100112  0.36759086  0.23543428  1
  O  O348  1  0.24809118  0.38975552  0.75266432  1
  O  O349  1  0.23423885  0.88230676  0.24850470  1
  O  O350  1  0.24497521  0.88114970  0.74883933  1
  O  O351  1  0.74016774  0.38233825  0.24716544  1
  O  O352  1  0.74663379  0.37953990  0.74948060  1
  O  O353  1  0.74389089  0.88593141  0.24364276  1
  O  O354  1  0.76434784  0.88552741  0.74174588  1
  O  O355  1  0.25211067  0.11851442  0.24290737  1
  O  O356  1  0.25951989  0.10773030  0.76015986  1
  O  O357  1  0.25716809  0.63042164  0.24998113  1
  O  O358  1  0.25470587  0.62095812  0.76064705  1
  O  O359  1  0.76027824  0.12750833  0.24955794  1
  O  O360  1  0.75977620  0.11707576  0.76600301  1
  O  O361  1  0.74662262  0.61451443  0.25684438  1
  O  O362  1  0.75148649  0.61840854  0.76457766  1
  O  O363  1  0.36144587  0.13952384  0.36173779  1
  O  O364  1  0.36801699  0.11532257  0.87192108  1
  O  O365  1  0.36732151  0.61978885  0.36358107  1
  O  O366  1  0.36494390  0.61192258  0.87331353  1
  O  O367  1  0.86921978  0.12723887  0.36475580  1
  O  O368  1  0.86862509  0.11207101  0.88030588  1
  O  O369  1  0.86421810  0.62479253  0.37692665  1
  O  O370  1  0.86749271  0.60708202  0.88101325  1
  O  O371  1  0.13052942  0.38064860  0.12963712  1
  O  O372  1  0.12073594  0.40291520  0.62641416  1
  O  O373  1  0.12702530  0.87846330  0.13475684  1
  O  O374  1  0.13241494  0.87837535  0.63900746  1
  O  O375  1  0.62870303  0.38532271  0.13089676  1
  O  O376  1  0.62706962  0.38738142  0.62290961  1
  O  O377  1  0.63686654  0.88522766  0.12828855  1
  O  O378  1  0.64311331  0.88683100  0.62912584  1
  O  O379  1  0.11578866  0.26092909  0.25499678  1
  O  O380  1  0.12509484  0.25764657  0.66758112  1
  O  O381  1  0.11521257  0.75835506  0.25804398  1
  O  O382  1  0.11484370  0.75464702  0.75261468  1
  O  O383  1  0.61804671  0.26005608  0.25230197  1
  O  O384  1  0.62534367  0.24974795  0.76418484  1
  O  O385  1  0.61654232  0.74760682  0.25331678  1
  O  O386  1  0.66381856  0.75726753  0.76653531  1
  O  O387  1  0.38092284  0.24867026  0.24268428  1
  O  O388  1  0.38567903  0.23274575  0.74764971  1
  O  O389  1  0.38019441  0.73788796  0.24287302  1
  O  O390  1  0.37265346  0.73464194  0.75893778  1
  O  O391  1  0.89193603  0.25080748  0.25554582  1
  O  O392  1  0.86814035  0.24713812  0.73147934  1
  O  O393  1  0.88995805  0.75762711  0.25049203  1
  O  O394  1  0.87744819  0.75405156  0.73961916  1
  O  O395  1  0.37832371  0.49067953  0.49251080  1
  O  O396  1  0.38162564  0.50032349  0.99010210  1
  O  O397  1  0.36287712  0.98601095  0.49496338  1
  O  O398  1  0.38144625  0.99485755  1.00452774  1
  O  O399  1  0.88377390  0.49570419  0.49773775  1
  O  O400  1  0.87504609  0.48885783  0.97952229  1
  O  O401  1  0.87871036  0.99225584  0.49255857  1
  O  O402  1  0.88309972  0.99252076  0.99594533  1
  O  O403  1  0.11933236  0.00522441  0.00560753  1
  O  O404  1  0.11086656  -0.01138709  0.51069051  1
  O  O405  1  0.12977986  0.50805197  0.00779152  1
  O  O406  1  0.12070747  0.50185849  0.50411120  1
  O  O407  1  0.62129804  0.00294547  0.00877975  1
  O  O408  1  0.65051474  0.01601760  0.50965790  1
  O  O409  1  0.61642821  0.49812156  0.00850318  1
  O  O410  1  0.62189915  0.50655316  0.50166728  1
  O  O411  1  0.36732201  0.36463850  0.12806313  1
  O  O412  1  0.37841592  0.38335473  0.62022455  1
  O  O413  1  0.36457667  0.86557164  0.12674415  1
  O  O414  1  0.36099260  0.87116348  0.63605024  1
  O  O415  1  0.87617015  0.37690821  0.11499937  1
  O  O416  1  0.87718618  0.37514627  0.61361788  1
  O  O417  1  0.86210165  0.87643527  0.12021689  1
  O  O418  1  0.87307243  0.86355537  0.61730967  1
  O  O419  1  0.12396186  0.14210591  0.37553828  1
  O  O420  1  0.14047157  0.11479684  0.88450100  1
  O  O421  1  0.12788159  0.63993786  0.37058166  1
  O  O422  1  0.13223342  0.62652467  0.88177873  1
  O  O423  1  0.64002507  0.14432802  0.36318699  1
  O  O424  1  0.63539053  0.13137047  0.88041000  1
  O  O425  1  0.63324042  0.63174209  0.37626765  1
  O  O426  1  0.64081221  0.61680488  0.88041365  1
