# generated using pymatgen
data_V85Zn86O256
_symmetry_space_group_name_H-M   'P 1'
_cell_length_a   16.93745524
_cell_length_b   16.93399249
_cell_length_c   16.93114799
_cell_angle_alpha   90.02512141
_cell_angle_beta   89.92263321
_cell_angle_gamma   90.00759167
_symmetry_Int_Tables_number   1
_chemical_formula_structural   V85Zn86O256
_chemical_formula_sum   'V85 Zn86 O256'
_cell_volume   4856.16559096
_cell_formula_units_Z   1
loop_
 _symmetry_equiv_pos_site_id
 _symmetry_equiv_pos_as_xyz
  1  'x, y, z'
loop_
 _atom_site_type_symbol
 _atom_site_label
 _atom_site_symmetry_multiplicity
 _atom_site_fract_x
 _atom_site_fract_y
 _atom_site_fract_z
 _atom_site_occupancy
  V  V0  1  0.63240912  0.12121021  -0.00038106  1
  V  V1  1  0.13330222  0.61991995  0.50017016  1
  V  V2  1  0.12338320  -0.00127596  0.62582629  1
  V  V3  1  0.62325077  -0.01305494  0.62994418  1
  V  V4  1  0.86798918  0.87634706  0.00298669  1
  V  V5  1  0.37308931  0.37571079  0.00821687  1
  V  V6  1  0.74109039  -0.00008202  0.75540527  1
  V  V7  1  0.75388335  0.24839027  0.50142176  1
  V  V8  1  -0.00658864  0.61974354  0.63054396  1
  V  V9  1  0.11978373  0.87524416  0.25720615  1
  V  V10  1  0.87811962  -0.00157390  0.37271626  1
  V  V11  1  0.13319315  0.49568288  0.12352222  1
  V  V12  1  0.87728705  0.26022625  0.12307898  1
  V  V13  1  0.50039014  0.50143996  -0.00284018  1
  V  V14  1  0.55767433  0.55883268  0.56292859  1
  V  V15  1  0.36964063  0.49960014  0.86875868  1
  V  V16  1  0.63164144  0.24592624  0.87221039  1
  V  V17  1  0.00213788  0.86906017  0.87659741  1
  V  V18  1  0.87734458  0.24551718  0.62832250  1
  V  V19  1  -0.00859394  0.49374894  0.00096922  1
  V  V20  1  0.87141816  0.00567569  0.87379975  1
  V  V21  1  -0.00545969  0.37221682  0.87530928  1
  V  V22  1  0.50571478  0.87436238  0.86608266  1
  V  V23  1  0.24990400  0.38226314  0.63407833  1
  V  V24  1  0.24522646  0.87446137  0.12119223  1
  V  V25  1  -0.00432006  0.75353592  0.25110650  1
  V  V26  1  0.12358310  0.00155775  0.12443369  1
  V  V27  1  0.24329057  0.75100722  -0.00840106  1
  V  V28  1  0.87771129  0.13368500  0.24982396  1
  V  V29  1  0.62716014  0.62401195  -0.00858010  1
  V  V30  1  0.37866091  0.13496663  0.75393500  1
  V  V31  1  0.25205189  0.25255617  0.50226636  1
  V  V32  1  0.50591754  0.13055784  0.12326174  1
  V  V33  1  0.75448869  0.25673038  -0.00273019  1
  V  V34  1  0.24552157  0.62298534  0.86573917  1
  V  V35  1  0.74873271  0.37652978  0.62792253  1
  V  V36  1  0.12132385  0.25103904  0.36838026  1
  V  V37  1  0.50124040  0.63099711  0.13156858  1
  V  V38  1  0.74684840  0.50070815  0.25578420  1
  V  V39  1  0.01111901  0.24983674  0.75435968  1
  V  V40  1  0.62666639  0.25409412  0.37455899  1
  V  V41  1  0.37558036  0.12813365  0.24898023  1
  V  V42  1  0.24669815  0.00114462  0.25032932  1
  V  V43  1  0.58014087  -0.05743339  0.18081247  1
  V  V44  1  0.86612428  0.75228582  0.12666056  1
  V  V45  1  0.49999225  0.25640990  0.25109177  1
  V  V46  1  0.25296681  0.87331950  0.62464674  1
  V  V47  1  -0.01014587  0.74725913  0.75059900  1
  V  V48  1  0.12094160  0.62889110  -0.00533978  1
  V  V49  1  0.75183243  0.51095748  0.75052331  1
  V  V50  1  -0.00091793  0.00037101  0.00013870  1
  V  V51  1  -0.00206474  0.62548667  0.12567603  1
  V  V52  1  0.63247904  0.75032425  0.86363146  1
  V  V53  1  0.87899103  0.38183525  0.49877233  1
  V  V54  1  0.75165576  0.12384715  0.37276494  1
  V  V55  1  0.74226323  0.63098973  0.39010258  1
  V  V56  1  0.37475305  0.50446058  0.37566551  1
  V  V57  1  0.00157699  0.13212518  0.12773622  1
  V  V58  1  0.49937466  0.36642925  0.87268012  1
  V  V59  1  0.75468002  -0.00757534  0.23605332  1
  V  V60  1  -0.00045561  0.00189647  0.49508134  1
  V  V61  1  0.36442287  0.63211190  0.25353826  1
  V  V62  1  0.75166610  0.74510279  -0.00632521  1
  V  V63  1  0.38149096  0.74277477  0.62410028  1
  V  V64  1  0.38003810  0.87230074  0.49817779  1
  V  V65  1  0.37632798  0.00288108  0.87359184  1
  V  V66  1  0.25003077  0.12704747  0.37636508  1
  V  V67  1  0.62504674  0.12636642  0.50388180  1
  V  V68  1  0.37495942  0.00117593  0.37659224  1
  V  V69  1  0.62554314  0.37320194  0.74984520  1
  V  V70  1  0.50160504  0.13311632  0.63153014  1
  V  V71  1  0.37421954  0.87296757  -0.00697256  1
  V  V72  1  0.13467034  0.74479990  0.37586029  1
  V  V73  1  0.50274897  0.74025353  0.74696640  1
  V  V74  1  0.24229222  0.25649758  0.00229694  1
  V  V75  1  -0.05834774  0.82510945  0.43348434  1
  V  V76  1  0.00076772  0.38003647  0.36774806  1
  V  V77  1  0.24033249  0.12911187  0.87484477  1
  V  V78  1  0.12564301  0.86657317  0.75428708  1
  V  V79  1  -0.00039977  0.12524442  0.62661223  1
  V  V80  1  0.87137045  0.61760818  0.25505321  1
  V  V81  1  0.86951738  0.51310236  0.87576479  1
  V  V82  1  0.49967295  0.00141978  0.50098520  1
  V  V83  1  0.61803774  0.75832788  0.37149438  1
  V  V84  1  0.38161023  0.37988783  0.50016995  1
  Zn  Zn85  1  0.62744892  0.37667055  0.24703271  1
  Zn  Zn86  1  0.76109089  0.86761458  0.61145076  1
  Zn  Zn87  1  0.12238331  0.12866451  -0.00351724  1
  Zn  Zn88  1  0.62690036  0.49850310  0.12440920  1
  Zn  Zn89  1  0.13076758  0.36808279  0.24268317  1
  Zn  Zn90  1  0.00696794  0.49480734  0.50299913  1
  Zn  Zn91  1  0.50203895  0.87552970  0.35648205  1
  Zn  Zn92  1  0.13046251  0.50369626  0.63495695  1
  Zn  Zn93  1  0.50554099  0.38562195  0.38170841  1
  Zn  Zn94  1  0.50661869  -0.00137770  -0.00108138  1
  Zn  Zn95  1  0.37086655  0.25740210  0.12839399  1
  Zn  Zn96  1  0.37432988  0.61758865  0.74437234  1
  Zn  Zn97  1  0.25629686  0.74499036  0.49542305  1
  Zn  Zn98  1  0.75062473  0.37971072  0.12399116  1
  Zn  Zn99  1  0.37659928  0.75117442  0.12394819  1
  Zn  Zn100  1  0.13101072  0.38080957  0.76271370  1
  Zn  Zn101  1  0.86934401  0.12817920  0.75679796  1
  Zn  Zn102  1  0.37780619  0.25250603  0.62902520  1
  Zn  Zn103  1  0.12829663  0.12668831  0.50190675  1
  Zn  Zn104  1  0.87098841  0.75232530  0.61746044  1
  Zn  Zn105  1  0.25025425  0.00078163  0.75050669  1
  Zn  Zn106  1  0.25176037  0.49275718  0.24966645  1
  Zn  Zn107  1  0.18901244  0.18995679  0.18544126  1
  Zn  Zn108  1  0.19028260  0.18897924  0.68753455  1
  Zn  Zn109  1  0.18601750  0.68892236  0.18162014  1
  Zn  Zn110  1  0.18504469  0.68913411  0.68402221  1
  Zn  Zn111  1  0.69092778  0.18846631  0.18541123  1
  Zn  Zn112  1  0.69114504  0.18268151  0.69153077  1
  Zn  Zn113  1  0.68508007  0.68768334  0.18739345  1
  Zn  Zn114  1  0.68758759  0.68744618  0.67310315  1
  Zn  Zn115  1  0.31003369  0.31967335  0.31307819  1
  Zn  Zn116  1  0.31280674  0.31116504  0.81879879  1
  Zn  Zn117  1  0.31361489  0.81288723  0.30994176  1
  Zn  Zn118  1  0.31310929  0.80866304  0.81004019  1
  Zn  Zn119  1  0.81576181  0.31561071  0.31261158  1
  Zn  Zn120  1  0.81687845  0.31617709  0.81484566  1
  Zn  Zn121  1  0.79597853  0.80538525  0.30631062  1
  Zn  Zn122  1  0.81006345  0.82040506  0.80749854  1
  Zn  Zn123  1  0.19309178  0.43892859  0.43650305  1
  Zn  Zn124  1  0.18280473  0.43940013  0.93709395  1
  Zn  Zn125  1  0.18790992  0.93514364  0.43907289  1
  Zn  Zn126  1  0.18641970  0.94219365  0.93478211  1
  Zn  Zn127  1  0.68873244  0.44312951  0.43999618  1
  Zn  Zn128  1  0.68950207  0.43538440  0.93582287  1
  Zn  Zn129  1  0.68601481  0.93038601  0.43152660  1
  Zn  Zn130  1  0.68817806  0.93448720  0.93905845  1
  Zn  Zn131  1  0.31356642  0.06625688  0.05968288  1
  Zn  Zn132  1  0.31331271  0.06406641  0.56608972  1
  Zn  Zn133  1  0.31461781  0.56711902  0.05779004  1
  Zn  Zn134  1  0.31726475  0.56084853  0.55878613  1
  Zn  Zn135  1  0.81436655  0.07023033  0.06002025  1
  Zn  Zn136  1  0.79571660  0.02889493  0.54575418  1
  Zn  Zn137  1  0.81062623  0.56351876  0.06483221  1
  Zn  Zn138  1  0.81180041  0.56055080  0.56771208  1
  Zn  Zn139  1  0.44002068  0.44519627  0.18951278  1
  Zn  Zn140  1  0.43887615  0.43392336  0.68837476  1
  Zn  Zn141  1  0.41806702  0.94355537  0.17937592  1
  Zn  Zn142  1  0.43842127  0.93766111  0.68919145  1
  Zn  Zn143  1  0.94141886  0.43972840  0.19092570  1
  Zn  Zn144  1  0.93498904  0.43639455  0.69216923  1
  Zn  Zn145  1  0.93682446  0.93865269  0.18657458  1
  Zn  Zn146  1  0.93134466  0.93441893  0.68766771  1
  Zn  Zn147  1  0.06157113  0.06634383  0.31303070  1
  Zn  Zn148  1  0.05886161  0.05770240  0.80933263  1
  Zn  Zn149  1  0.06348846  0.56189986  0.31163167  1
  Zn  Zn150  1  0.06250612  0.55693408  0.81119130  1
  Zn  Zn151  1  0.56233950  0.06891129  0.31675323  1
  Zn  Zn152  1  0.56345095  0.06444725  0.81420730  1
  Zn  Zn153  1  0.56386115  0.56487947  0.31649160  1
  Zn  Zn154  1  0.56526164  0.55945640  0.80835069  1
  Zn  Zn155  1  0.43780057  0.19098025  0.43830839  1
  Zn  Zn156  1  0.43737412  0.18916482  0.94146308  1
  Zn  Zn157  1  0.44863629  0.68753531  0.43275353  1
  Zn  Zn158  1  0.43694785  0.68687742  0.93319262  1
  Zn  Zn159  1  0.94042141  0.18887818  0.43913181  1
  Zn  Zn160  1  0.93830384  0.18911115  0.94013166  1
  Zn  Zn161  1  0.93854543  0.65725424  0.43774824  1
  Zn  Zn162  1  0.93793521  0.68757617  0.93563504  1
  Zn  Zn163  1  0.06036105  0.31483514  0.05862104  1
  Zn  Zn164  1  0.06663233  0.31258941  0.56170242  1
  Zn  Zn165  1  0.05894117  0.81201224  0.06439122  1
  Zn  Zn166  1  0.06498221  0.80592697  0.56825240  1
  Zn  Zn167  1  0.56639777  0.31390529  0.06151468  1
  Zn  Zn168  1  0.56571106  0.31620105  0.56444230  1
  Zn  Zn169  1  0.56078780  0.80740406  0.05182326  1
  Zn  Zn170  1  0.56642237  0.80324526  0.55610731  1
  O  O171  1  0.11694315  0.12001357  0.12543671  1
  O  O172  1  0.12204937  0.11427754  0.62617650  1
  O  O173  1  0.11763708  0.61949201  0.11443873  1
  O  O174  1  0.11656666  0.62524041  0.61712605  1
  O  O175  1  0.61454965  0.13243023  0.11621477  1
  O  O176  1  0.61725597  0.12029725  0.62144191  1
  O  O177  1  0.61445803  0.62620633  0.11306706  1
  O  O178  1  0.61711459  0.61644524  0.62244649  1
  O  O179  1  0.37906935  0.38217595  0.38435124  1
  O  O180  1  0.38231379  0.38023375  0.88309579  1
  O  O181  1  0.37913978  0.88129890  0.38018149  1
  O  O182  1  0.37824435  0.88174762  0.87888936  1
  O  O183  1  0.89246929  0.36620052  0.38333654  1
  O  O184  1  0.88707432  0.38808894  0.87322960  1
  O  O185  1  0.87572461  0.87566810  0.37183745  1
  O  O186  1  0.88264135  0.88372780  0.88313804  1
  O  O187  1  0.25431729  0.00615875  0.37170832  1
  O  O188  1  0.25964920  0.00932405  0.87378324  1
  O  O189  1  0.26623267  0.49872657  0.37024055  1
  O  O190  1  0.25813514  0.50999237  0.88461219  1
  O  O191  1  0.75836534  0.00862001  0.36200108  1
  O  O192  1  0.75674984  -0.00632712  0.86625594  1
  O  O193  1  0.74454643  0.51179486  0.36440350  1
  O  O194  1  0.76205038  0.49516998  0.86754315  1
  O  O195  1  0.23437597  0.50534319  0.11610160  1
  O  O196  1  0.25561168  0.48463846  0.62481829  1
  O  O197  1  0.24456684  0.99588180  0.12838941  1
  O  O198  1  0.24365902  0.98961558  0.62590400  1
  O  O199  1  0.74903440  0.50062860  0.13739977  1
  O  O200  1  0.75861758  0.48924961  0.64051327  1
  O  O201  1  0.75469259  1.00838543  0.13709194  1
  O  O202  1  0.73360239  1.00992089  0.64061641  1
  O  O203  1  0.00666665  0.37652077  0.26408230  1
  O  O204  1  0.00016134  0.36548990  0.75719658  1
  O  O205  1  0.00880323  0.86791495  0.24455777  1
  O  O206  1  0.00637512  0.86979274  0.75837964  1
  O  O207  1  0.50046778  0.36389212  0.25018317  1
  O  O208  1  0.51163557  0.37808051  0.76022846  1
  O  O209  1  0.50869263  0.89113876  0.23481060  1
  O  O210  1  0.49484554  0.86613876  0.76175167  1
  O  O211  1  0.49818373  0.13550105  0.24379527  1
  O  O212  1  0.49167606  0.11980878  0.74271006  1
  O  O213  1  0.49455316  0.62188191  0.23358675  1
  O  O214  1  0.49500685  0.63671925  0.75837881  1
  O  O215  1  0.99037650  0.12085994  0.23977191  1
  O  O216  1  0.99676517  0.13147493  0.74443829  1
  O  O217  1  0.99037831  0.63261647  0.24895257  1
  O  O218  1  1.00632416  0.63284917  0.73922752  1
  O  O219  1  0.36721937  0.25992964  0.00243166  1
  O  O220  1  0.36437805  0.25565415  0.50012946  1
  O  O221  1  0.36664870  0.75953900  -0.00337105  1
  O  O222  1  0.37780979  0.75732242  0.50402150  1
  O  O223  1  0.86635398  0.24483347  0.01011318  1
  O  O224  1  0.87100823  0.25697797  0.50737630  1
  O  O225  1  0.86917562  0.75457594  0.00392704  1
  O  O226  1  0.89284369  0.75580265  0.48792110  1
  O  O227  1  0.13866279  0.24987987  0.49255961  1
  O  O228  1  0.13806774  0.24964939  1.00181401  1
  O  O229  1  0.12720007  0.74400957  0.49116735  1
  O  O230  1  0.13015910  0.74207500  1.00369402  1
  O  O231  1  0.63284347  0.24588379  0.49461584  1
  O  O232  1  0.63235790  0.24303421  0.99253539  1
  O  O233  1  0.62661251  0.75458203  0.47619160  1
  O  O234  1  0.63368136  0.74346770  0.98850978  1
  O  O235  1  0.49685463  0.24457356  0.13179687  1
  O  O236  1  0.49892962  0.23666653  0.62106120  1
  O  O237  1  0.49614898  0.73480455  0.11386267  1
  O  O238  1  0.49288447  0.75905426  0.63466814  1
  O  O239  1  0.99483973  0.24001133  0.11812915  1
  O  O240  1  0.99652566  0.24650712  0.63202740  1
  O  O241  1  0.98966986  0.74407824  0.13069394  1
  O  O242  1  0.99854383  0.73842805  0.63370002  1
  O  O243  1  0.01268786  0.26019319  0.38295602  1
  O  O244  1  -0.00719093  0.25807293  0.86685575  1
  O  O245  1  0.00121556  0.75859497  0.37413126  1
  O  O246  1  -0.00107411  0.76176765  0.87066879  1
  O  O247  1  0.50955501  0.25001761  0.36715986  1
  O  O248  1  0.50726777  0.26189289  0.88170311  1
  O  O249  1  0.51035315  0.75639297  0.36553899  1
  O  O250  1  0.50687207  0.75622859  0.86782631  1
  O  O251  1  0.25084620  0.13249221  0.49596287  1
  O  O252  1  0.24843707  0.13444820  0.99176896  1
  O  O253  1  0.23807177  0.62803988  0.50551287  1
  O  O254  1  0.24150460  0.63385701  0.99300488  1
  O  O255  1  0.74493053  0.12688690  0.49314559  1
  O  O256  1  0.74108249  0.13832811  1.00424251  1
  O  O257  1  0.75359255  0.61552230  0.48738902  1
  O  O258  1  0.74174671  0.63586862  1.00143775  1
  O  O259  1  0.25645930  0.36368858  -0.00737002  1
  O  O260  1  0.26008346  0.36885475  0.50846138  1
  O  O261  1  0.25364640  0.86985873  -0.00169908  1
  O  O262  1  0.26343305  0.87451673  0.50626975  1
  O  O263  1  0.74736978  0.36214161  0.00323402  1
  O  O264  1  0.75798250  0.36990365  0.50728494  1
  O  O265  1  0.76155909  0.86500610  -0.00237639  1
  O  O266  1  0.75854303  0.92360683  0.51105259  1
  O  O267  1  0.12629428  0.50655112  0.23225888  1
  O  O268  1  0.12780341  0.49380779  0.74827748  1
  O  O269  1  0.12764212  0.99287078  0.24600549  1
  O  O270  1  0.12456092  0.98886987  0.73832610  1
  O  O271  1  0.63270264  0.49995284  0.24743375  1
  O  O272  1  0.64063423  0.48421432  0.76269086  1
  O  O273  1  0.63530591  1.00421933  0.24631274  1
  O  O274  1  0.63152273  1.00046573  0.74683567  1
  O  O275  1  0.36631641  0.00764323  0.25673050  1
  O  O276  1  0.37357697  0.00611458  0.76159277  1
  O  O277  1  0.37166760  0.51437015  0.25102543  1
  O  O278  1  0.37736932  0.49888807  0.76466275  1
  O  O279  1  0.86908481  0.00913937  0.25199429  1
  O  O280  1  0.86912702  0.00395826  0.75912325  1
  O  O281  1  0.87031726  0.51230849  0.24658156  1
  O  O282  1  0.86245450  0.49868560  0.76114210  1
  O  O283  1  0.11650799  0.36808855  0.37682872  1
  O  O284  1  0.10364125  0.38202599  0.87911447  1
  O  O285  1  0.12926517  0.86901225  0.36253060  1
  O  O286  1  0.11578240  0.88249807  0.86562985  1
  O  O287  1  0.62478411  0.36377298  0.37488623  1
  O  O288  1  0.61849921  0.36521285  0.87168085  1
  O  O289  1  0.61937039  0.86926458  0.36849613  1
  O  O290  1  0.61579445  0.86385188  0.88083084  1
  O  O291  1  0.38894413  0.12233315  0.13103112  1
  O  O292  1  0.38220005  0.12510446  0.63676920  1
  O  O293  1  0.38498824  0.62650995  0.13005665  1
  O  O294  1  0.36599044  0.63961565  0.62683030  1
  O  O295  1  0.88349411  0.13372712  0.13140125  1
  O  O296  1  0.88087068  0.13858683  0.62365352  1
  O  O297  1  0.88003667  0.63342517  0.13168922  1
  O  O298  1  0.89078738  0.62969805  0.61813506  1
  O  O299  1  0.25495860  0.24368609  0.10780067  1
  O  O300  1  0.25429920  0.25619875  0.61721405  1
  O  O301  1  0.25037748  0.75739580  0.11079348  1
  O  O302  1  0.25738533  0.76231128  0.62282218  1
  O  O303  1  0.76068231  0.25304903  0.11873454  1
  O  O304  1  0.75862272  0.25437811  0.62188053  1
  O  O305  1  0.76078983  0.74553340  0.11505647  1
  O  O306  1  0.75674679  0.75425999  0.62291995  1
  O  O307  1  0.24544457  0.24523121  0.38299648  1
  O  O308  1  0.25424742  0.24055654  0.88864140  1
  O  O309  1  0.23805476  0.75265405  0.37496976  1
  O  O310  1  0.25156339  0.74316736  0.88482565  1
  O  O311  1  0.74500890  0.24500453  0.37959225  1
  O  O312  1  0.74340562  0.25395964  0.88217903  1
  O  O313  1  0.74688896  0.73653058  0.38084562  1
  O  O314  1  0.74381507  0.75588778  0.87955204  1
  O  O315  1  0.00286953  0.11838913  0.00769260  1
  O  O316  1  0.00733457  0.11872429  0.50788935  1
  O  O317  1  0.00513060  0.61875240  0.00315465  1
  O  O318  1  0.01127347  0.61754572  0.51286107  1
  O  O319  1  0.50593525  0.12216829  0.00858601  1
  O  O320  1  0.50214149  0.11867050  0.50722696  1
  O  O321  1  0.50487294  0.61810437  0.00249478  1
  O  O322  1  0.49860076  0.61928097  0.50474594  1
  O  O323  1  0.48540083  0.36444491  0.50039147  1
  O  O324  1  0.49444046  0.38264073  0.99327511  1
  O  O325  1  0.48916988  0.88377603  0.50172285  1
  O  O326  1  0.48985384  0.87628720  0.98850502  1
  O  O327  1  0.99488772  0.37478393  0.49487840  1
  O  O328  1  0.99661031  0.38815183  0.99587594  1
  O  O329  1  1.00538044  0.88029956  0.49478366  1
  O  O330  1  0.99197934  0.87883577  0.99416419  1
  O  O331  1  0.48389495  0.49818855  0.36333792  1
  O  O332  1  0.49471026  0.49325079  0.88355542  1
  O  O333  1  0.49439418  0.99976453  0.38288082  1
  O  O334  1  0.49373478  0.99212772  0.87563371  1
  O  O335  1  1.00605136  0.48444857  0.37933192  1
  O  O336  1  0.98665720  0.49837194  0.88177302  1
  O  O337  1  0.99541173  1.00172941  0.38209933  1
  O  O338  1  0.99330232  0.99001443  0.88044305  1
  O  O339  1  0.00316917  0.00960674  0.11921274  1
  O  O340  1  0.00703094  0.00453043  0.61890309  1
  O  O341  1  0.00281782  0.50733695  0.11744076  1
  O  O342  1  0.00029471  0.50968045  0.62823656  1
  O  O343  1  0.51012910  0.00419529  0.12618597  1
  O  O344  1  0.50442414  0.00787430  0.62048497  1
  O  O345  1  0.50140544  0.51168287  0.11174339  1
  O  O346  1  0.49688488  0.50553938  0.62603960  1
  O  O347  1  0.24422505  0.37799578  0.24608953  1
  O  O348  1  0.25126459  0.36434979  0.73754195  1
  O  O349  1  0.24323506  0.88128456  0.24262148  1
  O  O350  1  0.24361949  0.87615374  0.74356414  1
  O  O351  1  0.75132700  0.38669740  0.25125848  1
  O  O352  1  0.74676507  0.37863942  0.74336246  1
  O  O353  1  0.75636262  0.89300456  0.24545563  1
  O  O354  1  0.75532145  0.89580320  0.74106148  1
  O  O355  1  0.25503724  0.11986537  0.25455468  1
  O  O356  1  0.25855484  0.12406626  0.75782846  1
  O  O357  1  0.26277267  0.62348435  0.24060707  1
  O  O358  1  0.24971188  0.63427934  0.76301141  1
  O  O359  1  0.75840782  0.12030494  0.25418485  1
  O  O360  1  0.75310496  0.10940889  0.75419439  1
  O  O361  1  0.75665604  0.61875378  0.25311496  1
  O  O362  1  0.74110327  0.60821359  0.74725939  1
  O  O363  1  0.37057258  0.12035443  0.36948687  1
  O  O364  1  0.37129387  0.11925653  0.87174207  1
  O  O365  1  0.37917875  0.62406350  0.35900610  1
  O  O366  1  0.36459499  0.61639804  0.87498733  1
  O  O367  1  0.87366245  0.12254978  0.36643613  1
  O  O368  1  0.88052355  0.10881841  0.87945511  1
  O  O369  1  0.86016930  0.62709763  0.36467750  1
  O  O370  1  0.87673654  0.61238873  0.87369434  1
  O  O371  1  0.11606093  0.39210486  0.12388420  1
  O  O372  1  0.14304968  0.37467184  0.62384101  1
  O  O373  1  0.12765773  0.87966951  0.13397443  1
  O  O374  1  0.13338828  0.87940894  0.62950721  1
  O  O375  1  0.62896995  0.37924654  0.12839656  1
  O  O376  1  0.63969909  0.36748913  0.63477043  1
  O  O377  1  0.62434669  0.88097586  0.11649708  1
  O  O378  1  0.62246399  0.88638683  0.61946012  1
  O  O379  1  0.12892372  0.24849851  0.26363365  1
  O  O380  1  0.11398911  0.25314503  0.74834354  1
  O  O381  1  0.11829898  0.75417849  0.25644123  1
  O  O382  1  0.11588624  0.76303229  0.74450906  1
  O  O383  1  0.61929566  0.24951557  0.25868267  1
  O  O384  1  0.63326872  0.26004018  0.75956666  1
  O  O385  1  0.64362778  0.75229788  0.26889433  1
  O  O386  1  0.62006183  0.74430289  0.75826503  1
  O  O387  1  0.38303023  0.24528986  0.24968951  1
  O  O388  1  0.37643979  0.23838160  0.75299316  1
  O  O389  1  0.37168914  0.73823788  0.24395593  1
  O  O390  1  0.38381468  0.74843742  0.74113621  1
  O  O391  1  0.87124034  0.23956265  0.24261732  1
  O  O392  1  0.88222780  0.24796455  0.74325931  1
  O  O393  1  0.87508312  0.74430379  0.24216737  1
  O  O394  1  0.88828714  0.75347969  0.75414609  1
  O  O395  1  0.37387087  0.49152017  0.49018959  1
  O  O396  1  0.38178076  0.49517295  0.99171529  1
  O  O397  1  0.38350636  0.99597841  0.49800907  1
  O  O398  1  0.37696578  0.99310082  0.98901294  1
  O  O399  1  0.87793994  0.48443562  0.50556456  1
  O  O400  1  0.87871300  0.50629014  0.98935085  1
  O  O401  1  0.89410576  1.01018495  0.48934374  1
  O  O402  1  0.87703171  0.99272650  0.99640043  1
  O  O403  1  0.11839963  0.00145139  0.00829485  1
  O  O404  1  0.11792926  -0.00184062  0.50959716  1
  O  O405  1  0.11440982  0.50750813  0.00882985  1
  O  O406  1  0.12729397  0.50639123  0.50647632  1
  O  O407  1  0.62633863  0.01590682  -0.00737287  1
  O  O408  1  0.61071905  0.00698822  0.50615449  1
  O  O409  1  0.61899904  0.50769144  -0.00310922  1
  O  O410  1  0.61275286  0.49219137  0.50538127  1
  O  O411  1  0.38146134  0.37939504  0.11114175  1
  O  O412  1  0.36707083  0.37143253  0.62035237  1
  O  O413  1  0.36553644  0.87365659  0.10887229  1
  O  O414  1  0.36964502  0.87041087  0.61870260  1
  O  O415  1  0.87896924  0.36279925  0.13176121  1
  O  O416  1  0.86957547  0.36434989  0.62046134  1
  O  O417  1  0.88174944  0.86542370  0.11435011  1
  O  O418  1  0.88028008  0.86769710  0.61798210  1
  O  O419  1  0.13177551  0.13253621  0.37804841  1
  O  O420  1  0.13717797  0.11625511  0.87365296  1
  O  O421  1  0.11580748  0.63480914  0.38494003  1
  O  O422  1  0.12972886  0.61906502  0.88761065  1
  O  O423  1  0.63006857  0.13592759  0.38246370  1
  O  O424  1  0.61764431  0.13933327  0.88299489  1
  O  O425  1  0.63641973  0.63366312  0.37251803  1
  O  O426  1  0.61961393  0.63336275  0.88493950  1
