# generated using pymatgen
data_V85Zn86O256
_symmetry_space_group_name_H-M   'P 1'
_cell_length_a   16.92863627
_cell_length_b   16.93783363
_cell_length_c   16.93205674
_cell_angle_alpha   90.06443035
_cell_angle_beta   89.92000596
_cell_angle_gamma   89.98835882
_symmetry_Int_Tables_number   1
_chemical_formula_structural   V85Zn86O256
_chemical_formula_sum   'V85 Zn86 O256'
_cell_volume   4854.99564484
_cell_formula_units_Z   1
loop_
 _symmetry_equiv_pos_site_id
 _symmetry_equiv_pos_as_xyz
  1  'x, y, z'
loop_
 _atom_site_type_symbol
 _atom_site_label
 _atom_site_symmetry_multiplicity
 _atom_site_fract_x
 _atom_site_fract_y
 _atom_site_fract_z
 _atom_site_occupancy
  V  V0  1  0.74819478  0.23794516  -0.00341029  1
  V  V1  1  0.37403450  0.76044014  0.62188475  1
  V  V2  1  0.49756315  0.62966623  0.12889122  1
  V  V3  1  0.25914444  -0.00320254  0.75342159  1
  V  V4  1  0.19396120  0.92806107  0.57036282  1
  V  V5  1  0.74762198  0.74777136  0.00262269  1
  V  V6  1  0.12642636  0.24802734  0.37299970  1
  V  V7  1  0.87549342  0.87495877  0.00251971  1
  V  V8  1  0.12700833  0.87751511  0.25499405  1
  V  V9  1  0.88098883  0.88270969  0.49240860  1
  V  V10  1  0.37657594  0.62505986  0.74853230  1
  V  V11  1  0.50099565  0.12259988  0.62297022  1
  V  V12  1  0.62358792  0.76638745  0.38149422  1
  V  V13  1  0.25095689  0.37382210  0.62353499  1
  V  V14  1  -0.00472309  0.74677857  0.75230552  1
  V  V15  1  0.87398770  0.37485911  0.00186364  1
  V  V16  1  0.49821454  -0.01474846  0.49522371  1
  V  V17  1  0.62333619  0.50061048  0.12291299  1
  V  V18  1  0.87461490  0.75076551  0.12855928  1
  V  V19  1  0.37482104  0.50030159  0.87443288  1
  V  V20  1  0.87454983  0.50082791  0.37647804  1
  V  V21  1  0.24618581  0.24595006  0.49960690  1
  V  V22  1  0.87573317  0.37078297  0.50242729  1
  V  V23  1  0.00384549  0.49896390  0.00509147  1
  V  V24  1  0.12712063  -0.00111416  0.12532402  1
  V  V25  1  0.36826768  0.75678396  0.12353669  1
  V  V26  1  0.62964189  0.24192566  0.87789213  1
  V  V27  1  0.75482321  -0.00213064  0.24906566  1
  V  V28  1  0.69171335  0.57475093  0.43189590  1
  V  V29  1  0.12970477  0.74668810  0.37693052  1
  V  V30  1  0.38422824  0.37798380  0.49790887  1
  V  V31  1  0.86928860  0.00544058  0.87852968  1
  V  V32  1  0.49789326  0.50111291  -0.00131493  1
  V  V33  1  0.12686083  0.13202761  0.00295939  1
  V  V34  1  0.37217323  0.25198014  0.12961352  1
  V  V35  1  0.87830275  0.23685000  0.12731898  1
  V  V36  1  0.49991095  0.88302118  0.87596973  1
  V  V37  1  0.87248325  0.12562243  0.75297179  1
  V  V38  1  0.12576743  0.62482987  0.00277018  1
  V  V39  1  -0.00265366  0.75832820  0.26026929  1
  V  V40  1  0.36826445  0.36870303  -0.00177273  1
  V  V41  1  0.25794704  0.12750572  0.87946876  1
  V  V42  1  0.00398283  0.62331845  0.13003014  1
  V  V43  1  0.25495894  0.74589554  0.50006790  1
  V  V44  1  0.00229465  0.49823732  0.50066856  1
  V  V45  1  0.87364695  0.25048880  0.62574937  1
  V  V46  1  0.12810694  0.38785999  0.24740171  1
  V  V47  1  0.25531517  -0.00109868  0.24341139  1
  V  V48  1  -0.00016487  0.87771276  0.87638715  1
  V  V49  1  0.12565516  0.37360092  0.75206050  1
  V  V50  1  0.61377115  0.36988351  0.24444779  1
  V  V51  1  0.62414767  0.12087930  0.49604199  1
  V  V52  1  0.50595874  0.61792110  0.61260067  1
  V  V53  1  0.35712271  0.62271756  0.25164944  1
  V  V54  1  0.12808654  0.88279203  0.74890859  1
  V  V55  1  0.38797147  0.13098504  0.25032202  1
  V  V56  1  0.00030712  0.00722947  0.00666673  1
  V  V57  1  0.74989102  0.37336372  0.12360551  1
  V  V58  1  0.36790544  0.88512832  -0.00237508  1
  V  V59  1  0.87586141  0.50525277  0.87224309  1
  V  V60  1  0.12539522  0.50071004  0.62478045  1
  V  V61  1  0.87227084  0.62539246  0.25567846  1
  V  V62  1  0.62108974  0.00531016  0.11642337  1
  V  V63  1  0.74999312  0.49413290  0.74405880  1
  V  V64  1  0.25049421  0.50068117  0.75001070  1
  V  V65  1  0.74987215  0.24631470  0.50401399  1
  V  V66  1  0.37944625  -0.01385179  0.37502623  1
  V  V67  1  -0.00062232  0.62243501  0.62976435  1
  V  V68  1  0.00100834  0.37301999  0.37301837  1
  V  V69  1  0.50214984  0.25172987  0.75067041  1
  V  V70  1  0.25296666  0.12261395  0.37330511  1
  V  V71  1  0.37596121  0.24929648  0.62438972  1
  V  V72  1  0.00260856  0.24696997  0.75067644  1
  V  V73  1  0.74939494  0.00014962  0.74943594  1
  V  V74  1  0.50403743  0.74901968  0.75175986  1
  V  V75  1  0.01300483  0.11200294  0.61548925  1
  V  V76  1  0.36815268  0.50777421  0.37887139  1
  V  V77  1  0.75050145  0.62540397  0.87010718  1
  V  V78  1  0.74665990  0.50335915  0.24806422  1
  V  V79  1  0.87182976  0.75017280  0.62502658  1
  V  V80  1  0.61573569  0.24412677  0.36635823  1
  V  V81  1  0.24538250  0.38799585  0.12501234  1
  V  V82  1  0.76119920  0.12470922  0.36893568  1
  V  V83  1  0.12675991  0.75157641  0.87556985  1
  V  V84  1  -0.00111500  0.24167029  0.24415391  1
  Zn  Zn85  1  0.25057306  0.62672396  0.87663768  1
  Zn  Zn86  1  0.63187140  0.37181691  0.74181546  1
  Zn  Zn87  1  0.62464845  0.62535198  0.00074491  1
  Zn  Zn88  1  0.50383516  0.37615076  0.87307949  1
  Zn  Zn89  1  0.37875101  0.11992078  0.75368117  1
  Zn  Zn90  1  0.49954696  0.00985610  -0.00701809  1
  Zn  Zn91  1  0.75128290  0.74808959  0.49368397  1
  Zn  Zn92  1  0.49612046  0.37655999  0.37081934  1
  Zn  Zn93  1  0.74992395  0.87431634  0.62411181  1
  Zn  Zn94  1  0.62738095  -0.00510335  0.62317715  1
  Zn  Zn95  1  0.62883220  0.87329437  0.75015144  1
  Zn  Zn96  1  0.62516998  0.49680564  0.61307580  1
  Zn  Zn97  1  0.00177955  0.37455684  0.87642917  1
  Zn  Zn98  1  0.24563016  0.75783650  0.00426107  1
  Zn  Zn99  1  0.49517644  0.75746405  0.25985487  1
  Zn  Zn100  1  0.13072380  0.62154400  0.49463349  1
  Zn  Zn101  1  0.12832705  0.25004815  0.87912891  1
  Zn  Zn102  1  0.62395730  0.75028366  0.87761056  1
  Zn  Zn103  1  0.88857405  0.00119293  0.36816138  1
  Zn  Zn104  1  0.74533864  0.87248803  0.12768028  1
  Zn  Zn105  1  0.61334640  0.87878115  0.24976329  1
  Zn  Zn106  1  0.50953567  0.14007878  0.11781490  1
  Zn  Zn107  1  0.19259425  0.19149415  0.18534462  1
  Zn  Zn108  1  0.18936848  0.18311972  0.69038024  1
  Zn  Zn109  1  0.18537406  0.69166261  0.18607054  1
  Zn  Zn110  1  0.18792620  0.68996732  0.68721970  1
  Zn  Zn111  1  0.69224325  0.18434474  0.18643558  1
  Zn  Zn112  1  0.68730692  0.18373690  0.68835255  1
  Zn  Zn113  1  0.68234253  0.68947705  0.19435849  1
  Zn  Zn114  1  0.68661532  0.68006016  0.68798209  1
  Zn  Zn115  1  0.31138500  0.31639946  0.31005887  1
  Zn  Zn116  1  0.31419487  0.30838202  0.81314228  1
  Zn  Zn117  1  0.30956909  0.81150957  0.31057709  1
  Zn  Zn118  1  0.31400499  0.81360222  0.81425040  1
  Zn  Zn119  1  0.81011694  0.31164055  0.31103079  1
  Zn  Zn120  1  0.81341399  0.31444807  0.81628477  1
  Zn  Zn121  1  0.80471061  0.81283754  0.31690789  1
  Zn  Zn122  1  0.81322585  0.81447036  0.81440936  1
  Zn  Zn123  1  0.19213893  0.43523007  0.43569128  1
  Zn  Zn124  1  0.18838051  0.43880245  0.93806988  1
  Zn  Zn125  1  0.05728163  0.93630021  0.43456329  1
  Zn  Zn126  1  0.18920211  0.94360251  0.93435317  1
  Zn  Zn127  1  0.68599697  0.41331615  0.43706247  1
  Zn  Zn128  1  0.68518900  0.43199592  0.93223076  1
  Zn  Zn129  1  0.69703807  0.93712572  0.44015062  1
  Zn  Zn130  1  0.68761290  0.93397245  0.93689746  1
  Zn  Zn131  1  0.31454937  0.06667081  0.06362002  1
  Zn  Zn132  1  0.31631136  0.06382974  0.55786868  1
  Zn  Zn133  1  0.31189530  0.56423224  0.06333197  1
  Zn  Zn134  1  0.31581510  0.56503822  0.56276772  1
  Zn  Zn135  1  0.80974157  0.06142246  0.06576090  1
  Zn  Zn136  1  0.81771237  0.06352713  0.56497561  1
  Zn  Zn137  1  0.81494792  0.56435676  0.06300688  1
  Zn  Zn138  1  0.82190915  0.56222800  0.56818543  1
  Zn  Zn139  1  0.43116021  0.44239109  0.18670737  1
  Zn  Zn140  1  0.44039054  0.43694245  0.68503394  1
  Zn  Zn141  1  0.43979424  0.93663212  0.18451055  1
  Zn  Zn142  1  0.44291228  0.93734634  0.68737262  1
  Zn  Zn143  1  0.93871466  0.43450330  0.18844061  1
  Zn  Zn144  1  0.93507789  0.43509868  0.69067514  1
  Zn  Zn145  1  0.93853247  0.93970817  0.18721276  1
  Zn  Zn146  1  0.93722462  0.93548361  0.68676914  1
  Zn  Zn147  1  0.06607541  0.06855511  0.30861085  1
  Zn  Zn148  1  0.06306937  0.06361905  0.81450830  1
  Zn  Zn149  1  0.06208014  0.56566994  0.31482603  1
  Zn  Zn150  1  0.06196833  0.56266253  0.81532394  1
  Zn  Zn151  1  0.56442760  0.05698369  0.30866299  1
  Zn  Zn152  1  0.56424253  0.06547694  0.81340430  1
  Zn  Zn153  1  0.54876481  0.55842069  0.30924736  1
  Zn  Zn154  1  0.56610277  0.56452189  0.81280733  1
  Zn  Zn155  1  0.43673783  0.18636303  0.43879856  1
  Zn  Zn156  1  0.44013336  0.18831609  0.93905822  1
  Zn  Zn157  1  0.43876990  0.68965609  0.43650094  1
  Zn  Zn158  1  0.43578980  0.69177474  0.93836233  1
  Zn  Zn159  1  0.94402902  0.18232468  0.43809618  1
  Zn  Zn160  1  0.93918592  0.18744741  0.93795441  1
  Zn  Zn161  1  0.93739151  0.68593130  0.44122499  1
  Zn  Zn162  1  0.93728730  0.68660603  0.93930366  1
  Zn  Zn163  1  0.06364832  0.31406934  0.06550833  1
  Zn  Zn164  1  0.06252163  0.30713129  0.56418835  1
  Zn  Zn165  1  0.06234067  0.81623401  0.06825547  1
  Zn  Zn166  1  0.05882123  0.80507967  0.56239608  1
  Zn  Zn167  1  0.55856367  0.31237411  0.05802598  1
  Zn  Zn168  1  0.56693748  0.31355760  0.56542625  1
  Zn  Zn169  1  0.55931200  0.81852699  0.06550332  1
  Zn  Zn170  1  0.56748070  0.80807304  0.56519612  1
  O  O171  1  0.13559201  0.11292196  0.11591241  1
  O  O172  1  0.11188419  0.12642343  0.63076836  1
  O  O173  1  0.11211245  0.63130420  0.11905603  1
  O  O174  1  0.11598572  0.61920067  0.62491401  1
  O  O175  1  0.62576647  0.11137041  0.12913839  1
  O  O176  1  0.61603965  0.12278045  0.61516178  1
  O  O177  1  0.61501210  0.61926751  0.12329682  1
  O  O178  1  0.61133276  0.61896717  0.62560110  1
  O  O179  1  0.37535857  0.38021928  0.38195618  1
  O  O180  1  0.37505111  0.38088199  0.88187803  1
  O  O181  1  0.37236055  0.88837362  0.37226667  1
  O  O182  1  0.38383839  0.86856893  0.88877385  1
  O  O183  1  0.87950252  0.37954956  0.38089083  1
  O  O184  1  0.87702365  0.38409655  0.88754306  1
  O  O185  1  0.87310952  0.87514223  0.38876607  1
  O  O186  1  0.88213322  0.88253345  0.88281098  1
  O  O187  1  0.26577928  0.01245489  0.36459480  1
  O  O188  1  0.24795521  0.01300079  0.86405311  1
  O  O189  1  0.26691128  0.49369504  0.37208757  1
  O  O190  1  0.25631497  0.50383250  0.86767231  1
  O  O191  1  0.75340215  0.00767465  0.36465597  1
  O  O192  1  0.76367805  -0.00443105  0.87129627  1
  O  O193  1  0.74839563  0.50286837  0.37174485  1
  O  O194  1  0.75754054  0.50604944  0.87159658  1
  O  O195  1  0.25229794  0.48741002  0.12504921  1
  O  O196  1  0.24555479  0.49444848  0.63027702  1
  O  O197  1  0.24711353  1.00305291  0.13689844  1
  O  O198  1  0.25050869  0.99702072  0.62694130  1
  O  O199  1  0.74525557  0.49464769  0.13023782  1
  O  O200  1  0.75207037  0.51022948  0.64203068  1
  O  O201  1  0.74348185  0.99912195  0.13418704  1
  O  O202  1  0.75134363  1.00039447  0.63550956  1
  O  O203  1  0.00774978  0.36959023  0.25601495  1
  O  O204  1  0.00890470  0.36723408  0.75121516  1
  O  O205  1  0.00757798  0.86546940  0.24319906  1
  O  O206  1  0.00778257  0.86896088  0.75604933  1
  O  O207  1  0.51110777  0.37891523  0.24438041  1
  O  O208  1  0.49809916  0.36018738  0.74909883  1
  O  O209  1  0.49884519  0.87060079  0.24997438  1
  O  O210  1  0.50036427  0.86596621  0.75800348  1
  O  O211  1  0.49023094  0.12313483  0.24528479  1
  O  O212  1  0.50001414  0.13276511  0.74140144  1
  O  O213  1  0.49151924  0.62946876  0.23687142  1
  O  O214  1  0.49335139  0.63142669  0.74752572  1
  O  O215  1  1.00563572  0.14249003  0.24587532  1
  O  O216  1  0.99220158  0.13096978  0.74640633  1
  O  O217  1  0.99463113  0.63212686  0.24397498  1
  O  O218  1  1.00678375  0.63525617  0.74421847  1
  O  O219  1  0.37468010  0.26565357  0.00240444  1
  O  O220  1  0.36809016  0.25699600  0.50481668  1
  O  O221  1  0.36935331  0.75776030  0.00697466  1
  O  O222  1  0.37114903  0.74624288  0.51272074  1
  O  O223  1  0.87124023  0.25805061  0.00409853  1
  O  O224  1  0.87007729  0.24876759  0.50746475  1
  O  O225  1  0.86758957  0.75251439  0.00696668  1
  O  O226  1  0.87455998  0.75597438  0.50890132  1
  O  O227  1  0.13513796  0.25744964  0.48859272  1
  O  O228  1  0.11834966  0.23595523  1.00051288  1
  O  O229  1  0.13274742  0.74922677  0.49295391  1
  O  O230  1  0.12335938  0.74544548  0.99416285  1
  O  O231  1  0.63200689  0.23932015  0.49260036  1
  O  O232  1  0.63331346  0.25739286  0.98748434  1
  O  O233  1  0.63020840  0.74972807  0.48796211  1
  O  O234  1  0.63823002  0.75001780  1.00364651  1
  O  O235  1  0.48139491  0.25619783  0.12000938  1
  O  O236  1  0.49774682  0.24145208  0.63008777  1
  O  O237  1  0.48764965  0.74212208  0.12072444  1
  O  O238  1  0.49218344  0.73960926  0.63120016  1
  O  O239  1  0.98951928  0.25848106  0.13238625  1
  O  O240  1  0.99492372  0.24332168  0.63650025  1
  O  O241  1  0.99355178  0.74340101  0.13402601  1
  O  O242  1  0.99382812  0.74163340  0.63390791  1
  O  O243  1  0.00818854  0.25371019  0.36904615  1
  O  O244  1  0.00213497  0.25219848  0.86256862  1
  O  O245  1  0.00485633  0.74510987  0.36426061  1
  O  O246  1  0.00744152  0.75388506  0.87043397  1
  O  O247  1  0.51317185  0.24932722  0.37703876  1
  O  O248  1  0.50915351  0.25167116  0.86686249  1
  O  O249  1  0.51830979  0.74239829  0.37642992  1
  O  O250  1  0.50082777  0.75695340  0.86725271  1
  O  O251  1  0.25669478  0.13777638  0.48990965  1
  O  O252  1  0.24339381  0.11809933  0.98674747  1
  O  O253  1  0.24776428  0.63958344  0.50666620  1
  O  O254  1  0.23503414  0.62538356  1.00067134  1
  O  O255  1  0.74432214  0.12892551  0.49289661  1
  O  O256  1  0.75585015  0.13905292  0.99997051  1
  O  O257  1  0.75462268  0.62550817  0.49584924  1
  O  O258  1  0.75097850  0.63154503  0.99228787  1
  O  O259  1  0.25496979  0.37998480  0.01094894  1
  O  O260  1  0.25790868  0.36428931  0.50579889  1
  O  O261  1  0.26299328  0.87649721  -0.00716109  1
  O  O262  1  0.24904130  0.86180905  0.51736766  1
  O  O263  1  0.75839677  0.37038460  0.00445253  1
  O  O264  1  0.75976355  0.35469322  0.49703397  1
  O  O265  1  0.75843282  0.86429006  0.00105332  1
  O  O266  1  0.76425755  0.86938760  0.50523367  1
  O  O267  1  0.11856394  0.48710145  0.25446622  1
  O  O268  1  0.12916681  0.49269128  0.74606441  1
  O  O269  1  0.13407974  0.99620045  0.24448850  1
  O  O270  1  0.13063408  0.98730181  0.75437805  1
  O  O271  1  0.62918497  0.49306557  0.24335590  1
  O  O272  1  0.64248501  0.49911566  0.75459636  1
  O  O273  1  0.63648092  0.99837368  0.24154422  1
  O  O274  1  0.64101921  1.00425508  0.75171666  1
  O  O275  1  0.37211376  0.00760103  0.25581377  1
  O  O276  1  0.36357040  0.00032409  0.74322025  1
  O  O277  1  0.37380383  0.51676234  0.25478816  1
  O  O278  1  0.37181846  0.50622933  0.75448496  1
  O  O279  1  0.86080726  -0.00265190  0.24876887  1
  O  O280  1  0.86962934  0.00605744  0.75824890  1
  O  O281  1  0.86547924  0.50060101  0.25709968  1
  O  O282  1  0.86657446  0.49692970  0.76121017  1
  O  O283  1  0.12346176  0.36603896  0.36685243  1
  O  O284  1  0.12580273  0.37280424  0.86390042  1
  O  O285  1  0.11763704  0.86320299  0.36168975  1
  O  O286  1  0.11950385  0.86938800  0.87029457  1
  O  O287  1  0.61925290  0.36312833  0.36275679  1
  O  O288  1  0.62169044  0.36398903  0.86540502  1
  O  O289  1  0.62655653  0.86892801  0.37643246  1
  O  O290  1  0.61668900  0.86959037  0.87162783  1
  O  O291  1  0.37197604  0.13611232  0.13479568  1
  O  O292  1  0.38770140  0.13055861  0.62298982  1
  O  O293  1  0.37773846  0.63083568  0.13376326  1
  O  O294  1  0.38442818  0.62839416  0.63609891  1
  O  O295  1  0.87572764  0.13777146  0.12116589  1
  O  O296  1  0.88522136  0.13440574  0.63243110  1
  O  O297  1  0.88448455  0.63067179  0.13287397  1
  O  O298  1  0.89146415  0.63285747  0.62464284  1
  O  O299  1  0.26330221  0.26282102  0.12481761  1
  O  O300  1  0.25427002  0.25199008  0.61830495  1
  O  O301  1  0.26260312  0.74924874  0.12318599  1
  O  O302  1  0.26736995  0.74555939  0.62379148  1
  O  O303  1  0.75723252  0.25584898  0.11789256  1
  O  O304  1  0.75982450  0.23926687  0.61544491  1
  O  O305  1  0.75679958  0.74733777  0.12018663  1
  O  O306  1  0.76507172  0.74344173  0.63017713  1
  O  O307  1  0.24498994  0.24708521  0.38058426  1
  O  O308  1  0.24531523  0.23281387  0.86760134  1
  O  O309  1  0.24290835  0.75639218  0.38733686  1
  O  O310  1  0.23652768  0.74784361  0.87570136  1
  O  O311  1  0.74212368  0.24163963  0.37945539  1
  O  O312  1  0.73972223  0.25445914  0.88168877  1
  O  O313  1  0.73217073  0.74574535  0.37475934  1
  O  O314  1  0.75263113  0.74164932  0.88306125  1
  O  O315  1  0.00931748  0.11361886  -0.00513443  1
  O  O316  1  0.00260294  0.12748950  0.51593602  1
  O  O317  1  0.00730111  0.62038801  0.00799690  1
  O  O318  1  0.00487850  0.61562561  0.50931776  1
  O  O319  1  0.49460470  0.12141064  0.00606008  1
  O  O320  1  0.50817252  0.12057958  0.50500025  1
  O  O321  1  0.49643580  0.61594681  0.00855821  1
  O  O322  1  0.49444720  0.62392520  0.51490195  1
  O  O323  1  0.48666851  0.36786384  0.49842066  1
  O  O324  1  0.48935672  0.38869987  0.99878099  1
  O  O325  1  0.50458532  0.88708296  0.50527173  1
  O  O326  1  0.49144951  0.87951196  0.99098643  1
  O  O327  1  0.99578304  0.37719377  0.49433157  1
  O  O328  1  0.99501541  0.38346050  0.99985840  1
  O  O329  1  0.98712636  0.87087780  0.50186700  1
  O  O330  1  0.99587798  0.88490725  0.99657790  1
  O  O331  1  0.47839321  0.49355117  0.36975498  1
  O  O332  1  0.49404380  0.50042315  0.88169388  1
  O  O333  1  0.48697976  1.00662159  0.37999799  1
  O  O334  1  0.50331570  0.98788846  0.87183608  1
  O  O335  1  0.99591566  0.49238311  0.38145450  1
  O  O336  1  0.99192036  0.49884257  0.88294733  1
  O  O337  1  1.00083014  1.00673186  0.37137149  1
  O  O338  1  0.99100333  0.99578211  0.88208459  1
  O  O339  1  0.00932588  -0.00036660  0.11623525  1
  O  O340  1  -0.00236914  0.01316188  0.63029373  1
  O  O341  1  -0.00657581  0.51007409  0.11698807  1
  O  O342  1  0.00357202  0.50491300  0.62331607  1
  O  O343  1  0.51475449  0.00278693  0.12263613  1
  O  O344  1  0.50212931  0.00766531  0.61624639  1
  O  O345  1  0.50145706  0.50789271  0.11741799  1
  O  O346  1  0.50095258  0.51383123  0.62800663  1
  O  O347  1  0.24164173  0.37359500  0.23655911  1
  O  O348  1  0.24441632  0.37797134  0.74385431  1
  O  O349  1  0.24074055  0.88644949  0.25418863  1
  O  O350  1  0.24238453  0.88296488  0.75627237  1
  O  O351  1  0.74167697  0.38536106  0.24504554  1
  O  O352  1  0.75441810  0.39030869  0.75241419  1
  O  O353  1  0.74629562  0.88782439  0.24950504  1
  O  O354  1  0.75204218  0.88532962  0.74840882  1
  O  O355  1  0.25820795  0.11943526  0.25590280  1
  O  O356  1  0.25180023  0.11516068  0.75861580  1
  O  O357  1  0.25868581  0.62634005  0.24706288  1
  O  O358  1  0.25859496  0.61916996  0.74990492  1
  O  O359  1  0.74873438  0.11333943  0.25835587  1
  O  O360  1  0.76543449  0.11928729  0.74643964  1
  O  O361  1  0.75479068  0.61040547  0.24334193  1
  O  O362  1  0.75050202  0.61690900  0.76450706  1
  O  O363  1  0.36808548  0.12765928  0.36600537  1
  O  O364  1  0.36182065  0.12900142  0.87350368  1
  O  O365  1  0.37573408  0.62000751  0.36329827  1
  O  O366  1  0.37374176  0.62218919  0.86412451  1
  O  O367  1  0.86386756  0.12567736  0.37874093  1
  O  O368  1  0.88101944  0.11674231  0.86647181  1
  O  O369  1  0.88098546  0.61438167  0.36785263  1
  O  O370  1  0.86943194  0.61252881  0.88226789  1
  O  O371  1  0.13733807  0.37370032  0.13046609  1
  O  O372  1  0.12923542  0.37875413  0.63492717  1
  O  O373  1  0.12428230  0.88884114  0.13484224  1
  O  O374  1  0.12699018  0.87183797  0.63240562  1
  O  O375  1  0.62981939  0.37899983  0.12789405  1
  O  O376  1  0.62455515  0.38438042  0.62704333  1
  O  O377  1  0.62779388  0.88785764  0.12702039  1
  O  O378  1  0.63023258  0.87695030  0.63155477  1
  O  O379  1  0.12001204  0.25896049  0.25461912  1
  O  O380  1  0.11817753  0.25744417  0.74981709  1
  O  O381  1  0.11929060  0.75859673  0.25424762  1
  O  O382  1  0.11830273  0.75911147  0.75659942  1
  O  O383  1  0.63223175  0.25762530  0.25478943  1
  O  O384  1  0.62065429  0.24956433  0.75705492  1
  O  O385  1  0.62133445  0.75480895  0.26324060  1
  O  O386  1  0.61291868  0.74685094  0.75042238  1
  O  O387  1  0.37244205  0.24280858  0.24388209  1
  O  O388  1  0.38375705  0.24563737  0.74200020  1
  O  O389  1  0.37395819  0.73974416  0.24489326  1
  O  O390  1  0.38219026  0.74338443  0.74317007  1
  O  O391  1  0.88382748  0.25885550  0.23884855  1
  O  O392  1  0.88001617  0.24491060  0.74616287  1
  O  O393  1  0.87978842  0.74711092  0.24933706  1
  O  O394  1  0.88935983  0.75696083  0.74549259  1
  O  O395  1  0.36952463  0.49267573  0.49042136  1
  O  O396  1  0.37918084  0.49601111  0.99364199  1
  O  O397  1  0.38282915  1.00411193  0.48340647  1
  O  O398  1  0.37590494  0.98770343  1.00405599  1
  O  O399  1  0.88069968  0.49169240  0.49643704  1
  O  O400  1  0.88381938  0.49447375  0.99580497  1
  O  O401  1  0.87255261  0.98584403  0.49830921  1
  O  O402  1  0.88134569  0.99844805  0.99636725  1
  O  O403  1  0.11874097  0.00467900  0.00681037  1
  O  O404  1  0.13970583  -0.02071709  0.50522116  1
  O  O405  1  0.11171303  0.50844384  -0.00624560  1
  O  O406  1  0.12132205  0.49771176  0.50640041  1
  O  O407  1  0.62959220  -0.00189350  0.01332575  1
  O  O408  1  0.62045566  0.00955974  0.49642286  1
  O  O409  1  0.61545633  0.49908716  0.00473587  1
  O  O410  1  0.64039041  0.50642918  0.48995671  1
  O  O411  1  0.36450936  0.37453779  0.11948253  1
  O  O412  1  0.36975078  0.37037754  0.61790986  1
  O  O413  1  0.37916758  0.86852418  0.10927546  1
  O  O414  1  0.38197916  0.85830023  0.62879645  1
  O  O415  1  0.86991820  0.37314549  0.11390788  1
  O  O416  1  0.88189568  0.35874327  0.62011508  1
  O  O417  1  0.87286485  0.86722685  0.11940113  1
  O  O418  1  0.87602835  0.86498812  0.61757351  1
  O  O419  1  0.13998711  0.13951616  0.36724664  1
  O  O420  1  0.13313383  0.12514425  0.88451324  1
  O  O421  1  0.12290211  0.64036610  0.37508966  1
  O  O422  1  0.12331696  0.63481175  0.88427026  1
  O  O423  1  0.63182199  0.12826788  0.37878034  1
  O  O424  1  0.62551000  0.14226866  0.87279395  1
  O  O425  1  0.62598294  0.62175012  0.37173994  1
  O  O426  1  0.63486880  0.62929235  0.88139656  1
