# generated using pymatgen
data_V85Zn86O256
_symmetry_space_group_name_H-M   'P 1'
_cell_length_a   16.91736556
_cell_length_b   16.92205896
_cell_length_c   16.92779952
_cell_angle_alpha   89.94546548
_cell_angle_beta   90.02433613
_cell_angle_gamma   89.98884910
_symmetry_Int_Tables_number   1
_chemical_formula_structural   V85Zn86O256
_chemical_formula_sum   'V85 Zn86 O256'
_cell_volume   4846.03114136
_cell_formula_units_Z   1
loop_
 _symmetry_equiv_pos_site_id
 _symmetry_equiv_pos_as_xyz
  1  'x, y, z'
loop_
 _atom_site_type_symbol
 _atom_site_label
 _atom_site_symmetry_multiplicity
 _atom_site_fract_x
 _atom_site_fract_y
 _atom_site_fract_z
 _atom_site_occupancy
  V  V0  1  0.37518852  0.75156817  0.62579252  1
  V  V1  1  0.48719471  0.62938185  0.12266336  1
  V  V2  1  0.74727649  0.75328799  0.00424193  1
  V  V3  1  0.25024316  0.12143502  0.37688327  1
  V  V4  1  0.50249888  0.75076172  0.74901056  1
  V  V5  1  0.12498878  0.87335886  0.74843079  1
  V  V6  1  0.00850313  0.49680537  0.00222756  1
  V  V7  1  0.37910456  0.62179118  0.26253483  1
  V  V8  1  0.01238337  0.12243636  0.12793320  1
  V  V9  1  -0.00162845  0.37546930  0.37553963  1
  V  V10  1  0.75059948  0.24950199  -0.00204200  1
  V  V11  1  0.00584804  -0.00291794  0.49754828  1
  V  V12  1  0.87600446  0.50537088  0.37265069  1
  V  V13  1  0.87435140  -0.00017593  0.87584213  1
  V  V14  1  0.62046253  0.36871166  0.75146346  1
  V  V15  1  0.87662946  0.24751405  0.12470843  1
  V  V16  1  0.75238469  -0.01307906  0.25090427  1
  V  V17  1  0.75230932  0.50586486  0.74921844  1
  V  V18  1  0.38306050  0.88049550  0.50071493  1
  V  V19  1  0.87208860  0.75478189  0.63055745  1
  V  V20  1  -0.00501058  0.62525038  0.62763881  1
  V  V21  1  0.36925789  -0.00132992  0.87471219  1
  V  V22  1  0.62577730  0.12402820  0.00108130  1
  V  V23  1  0.49869611  0.62289871  0.62436101  1
  V  V24  1  0.87024992  0.74436298  0.12848169  1
  V  V25  1  -0.00571341  0.75234514  0.25038043  1
  V  V26  1  0.01420520  0.36834248  0.86622334  1
  V  V27  1  0.75023136  0.00085399  0.74433452  1
  V  V28  1  0.50911670  0.88029885  0.37263615  1
  V  V29  1  0.24704742  0.88005416  0.62303789  1
  V  V30  1  0.61952165  0.00215528  0.61410488  1
  V  V31  1  0.23575731  0.00056733  0.24058380  1
  V  V32  1  0.87506299  0.87881454  0.49552548  1
  V  V33  1  0.50037394  0.75688759  0.24592186  1
  V  V34  1  0.50202462  0.13207670  0.61174021  1
  V  V35  1  0.87766781  0.37492115  -0.00255487  1
  V  V36  1  0.61912862  0.36991526  0.25509860  1
  V  V37  1  0.37772635  0.00079174  0.37473883  1
  V  V38  1  0.75204324  0.50295040  0.24910861  1
  V  V39  1  0.24811348  0.49870166  0.25473410  1
  V  V40  1  0.74402126  0.12520141  0.37667083  1
  V  V41  1  0.24519787  0.37905773  0.62706755  1
  V  V42  1  0.62173448  0.49886837  0.62532321  1
  V  V43  1  0.37745633  0.38011909  0.48698223  1
  V  V44  1  0.24398744  0.49966572  0.75533366  1
  V  V45  1  0.38210650  0.13279349  0.75506568  1
  V  V46  1  0.25366171  0.25157321  0.50128745  1
  V  V47  1  0.49604401  0.13240016  0.12970528  1
  V  V48  1  0.24834449  0.63737932  0.87613832  1
  V  V49  1  0.00626153  0.87225323  0.87613361  1
  V  V50  1  -0.00085642  0.61818927  0.13012341  1
  V  V51  1  0.49869832  -0.00026843  0.00107564  1
  V  V52  1  0.62903717  -0.01219255  0.13038113  1
  V  V53  1  -0.00005980  0.24864353  0.25159158  1
  V  V54  1  0.75049586  0.75480407  0.50316804  1
  V  V55  1  0.12811476  0.75535500  0.37678850  1
  V  V56  1  0.75023227  0.37530209  0.12369372  1
  V  V57  1  0.25587804  0.24629483  -0.00198750  1
  V  V58  1  0.48957262  0.36766273  0.86916154  1
  V  V59  1  0.49648053  0.49868087  0.48539749  1
  V  V60  1  0.75264119  0.62769901  0.36940709  1
  V  V61  1  0.75041533  0.12602183  0.87428220  1
  V  V62  1  0.62458760  0.50130757  0.12386742  1
  V  V63  1  0.49570057  0.49875708  -0.00258931  1
  V  V64  1  0.12367789  0.25194837  0.37614695  1
  V  V65  1  0.87016286  0.87619754  0.00451055  1
  V  V66  1  0.87387817  0.11990196  0.25472800  1
  V  V67  1  0.18094826  0.82585233  0.19216860  1
  V  V68  1  0.24957988  0.37292971  0.12680751  1
  V  V69  1  0.12879867  0.12940162  -0.01514491  1
  V  V70  1  0.24769636  0.00346975  0.74992869  1
  V  V71  1  0.74922514  0.37360105  0.62531704  1
  V  V72  1  0.36744116  0.87082054  0.01340127  1
  V  V73  1  0.62989443  0.87784868  0.74655995  1
  V  V74  1  0.12578359  0.62470426  0.50198943  1
  V  V75  1  -0.00086731  0.74450340  0.75573736  1
  V  V76  1  0.87370152  0.37284693  0.49989047  1
  V  V77  1  0.00477323  0.11809332  0.62772399  1
  V  V78  1  0.62567409  0.62602433  0.49837620  1
  V  V79  1  0.62544786  0.75057151  0.87394497  1
  V  V80  1  0.62409628  0.62591742  -0.00069797  1
  V  V81  1  0.87720369  0.50364398  0.87129844  1
  V  V82  1  0.00715050  -0.00007483  0.00498473  1
  V  V83  1  0.87942690  0.24950377  0.63278144  1
  V  V84  1  0.12304173  0.63398214  -0.00262897  1
  Zn  Zn85  1  0.88013315  0.12789494  0.75314655  1
  Zn  Zn86  1  0.61360077  0.24766576  0.38697711  1
  Zn  Zn87  1  0.25244970  0.74950001  0.49880944  1
  Zn  Zn88  1  0.37220133  0.50194879  0.87501820  1
  Zn  Zn89  1  0.37863784  0.36699338  0.00778231  1
  Zn  Zn90  1  0.61919567  0.24707801  0.87216130  1
  Zn  Zn91  1  0.00040720  0.50089907  0.50186225  1
  Zn  Zn92  1  0.75441474  0.62727823  0.87195336  1
  Zn  Zn93  1  0.49825287  0.87508701  0.87519378  1
  Zn  Zn94  1  0.62804347  0.75666312  0.36923286  1
  Zn  Zn95  1  0.11827473  0.38738008  0.24309988  1
  Zn  Zn96  1  0.12078585  0.49720403  0.62943782  1
  Zn  Zn97  1  0.25471616  0.62107900  0.38115813  1
  Zn  Zn98  1  0.03286812  0.24690455  0.75258307  1
  Zn  Zn99  1  0.74688835  0.23920337  0.50462318  1
  Zn  Zn100  1  0.24767348  0.75446875  0.01024990  1
  Zn  Zn101  1  0.00105216  0.88309505  0.36556483  1
  Zn  Zn102  1  0.37354702  0.62564217  0.75235453  1
  Zn  Zn103  1  0.12764010  0.11854244  0.50238165  1
  Zn  Zn104  1  0.47931379  0.26369673  0.25259383  1
  Zn  Zn105  1  0.38088021  0.25738776  0.63176900  1
  Zn  Zn106  1  0.36900592  0.12894048  0.24393419  1
  Zn  Zn107  1  0.19136194  0.19227517  0.18965442  1
  Zn  Zn108  1  0.19060996  0.17838392  0.67779729  1
  Zn  Zn109  1  0.18233640  0.66122962  0.18759518  1
  Zn  Zn110  1  0.18508318  0.69012511  0.68958717  1
  Zn  Zn111  1  0.68651681  0.18441573  0.18637871  1
  Zn  Zn112  1  0.68652437  0.18657690  0.68577376  1
  Zn  Zn113  1  0.68207383  0.68947145  0.18682646  1
  Zn  Zn114  1  0.68805047  0.68678074  0.68530346  1
  Zn  Zn115  1  0.31220290  0.31106165  0.31067213  1
  Zn  Zn116  1  0.24234814  0.28739731  0.79302816  1
  Zn  Zn117  1  0.32165766  0.80783177  0.31449870  1
  Zn  Zn118  1  0.31382565  0.81536947  0.81438970  1
  Zn  Zn119  1  0.80914697  0.31072182  0.31146836  1
  Zn  Zn120  1  0.81298663  0.31698518  0.81257789  1
  Zn  Zn121  1  0.81698852  0.81067521  0.31514479  1
  Zn  Zn122  1  0.81316630  0.81455505  0.81493401  1
  Zn  Zn123  1  0.18734043  0.43923528  0.43655205  1
  Zn  Zn124  1  0.19060893  0.43923216  0.94155200  1
  Zn  Zn125  1  0.18875933  0.93502640  0.43771636  1
  Zn  Zn126  1  0.18748570  0.93910836  0.93966630  1
  Zn  Zn127  1  0.68709626  0.43601904  0.43867175  1
  Zn  Zn128  1  0.68489549  0.43683912  0.93430554  1
  Zn  Zn129  1  0.69398189  0.94028651  0.43557514  1
  Zn  Zn130  1  0.68596496  0.93743438  0.93575364  1
  Zn  Zn131  1  0.31027975  0.06075810  0.06205802  1
  Zn  Zn132  1  0.31888580  0.06269235  0.56402838  1
  Zn  Zn133  1  0.30765484  0.55837338  0.06573488  1
  Zn  Zn134  1  0.31227850  0.56092743  0.56396838  1
  Zn  Zn135  1  0.81403897  0.06169119  0.06708987  1
  Zn  Zn136  1  0.81705144  0.05997427  0.56426077  1
  Zn  Zn137  1  0.81416771  0.56346312  0.05774348  1
  Zn  Zn138  1  0.81430108  0.56468526  0.56092404  1
  Zn  Zn139  1  0.43259703  0.44157485  0.18579226  1
  Zn  Zn140  1  0.42837595  0.43925274  0.68686562  1
  Zn  Zn141  1  0.43562383  0.94462365  0.19158756  1
  Zn  Zn142  1  0.44175894  0.94067159  0.68788348  1
  Zn  Zn143  1  0.93508223  0.43682604  0.18901126  1
  Zn  Zn144  1  0.93929461  0.43652854  0.68990341  1
  Zn  Zn145  1  0.93690996  0.93460809  0.18441477  1
  Zn  Zn146  1  0.93615717  0.93584981  0.68450662  1
  Zn  Zn147  1  0.06352125  0.06171321  0.31765286  1
  Zn  Zn148  1  0.06307672  0.05819870  0.81092284  1
  Zn  Zn149  1  0.06380355  0.56669031  0.31482600  1
  Zn  Zn150  1  0.06478841  0.56225581  0.81551696  1
  Zn  Zn151  1  0.56405643  0.06247571  0.31097836  1
  Zn  Zn152  1  0.55954013  0.06329408  0.81260248  1
  Zn  Zn153  1  0.56754835  0.56583157  0.30901310  1
  Zn  Zn154  1  0.56252413  0.56106531  0.81271941  1
  Zn  Zn155  1  0.43675023  0.19287152  0.43246060  1
  Zn  Zn156  1  0.43223204  0.18607938  0.93852023  1
  Zn  Zn157  1  0.44204110  0.69332721  0.43806509  1
  Zn  Zn158  1  0.43361643  0.69089441  0.93729504  1
  Zn  Zn159  1  0.93341963  0.18345814  0.44020804  1
  Zn  Zn160  1  0.94096763  0.18806306  0.93609344  1
  Zn  Zn161  1  0.93848171  0.68949378  0.43867467  1
  Zn  Zn162  1  0.93620198  0.68616170  0.93874769  1
  Zn  Zn163  1  0.06850799  0.31232590  0.06371283  1
  Zn  Zn164  1  0.06223443  0.30941233  0.56300501  1
  Zn  Zn165  1  0.05541747  0.80849220  0.06098725  1
  Zn  Zn166  1  0.06257329  0.81223435  0.56453827  1
  Zn  Zn167  1  0.56439113  0.31249922  0.06137709  1
  Zn  Zn168  1  0.56066446  0.31165128  0.55988098  1
  Zn  Zn169  1  0.55733497  0.81364642  0.06251653  1
  Zn  Zn170  1  0.56505797  0.81670155  0.56175682  1
  O  O171  1  0.11382273  0.12785388  0.12556499  1
  O  O172  1  0.11011299  0.12441813  0.61828774  1
  O  O173  1  0.10892894  0.62133009  0.11326625  1
  O  O174  1  0.11360224  0.62855629  0.61854460  1
  O  O175  1  0.61708654  0.11645717  0.11839113  1
  O  O176  1  0.61150957  0.11688629  0.63091029  1
  O  O177  1  0.61643548  0.61837061  0.11768863  1
  O  O178  1  0.61916223  0.61906553  0.61795513  1
  O  O179  1  0.37083017  0.37548117  0.38822538  1
  O  O180  1  0.38835420  0.37861741  0.88163209  1
  O  O181  1  0.38214745  0.88174906  0.38265361  1
  O  O182  1  0.37849627  0.88400430  0.88300348  1
  O  O183  1  0.87718370  0.37923786  0.38208013  1
  O  O184  1  0.88257328  0.38360536  0.88136809  1
  O  O185  1  0.88425503  0.86517466  0.39055246  1
  O  O186  1  0.88398034  0.88013194  0.88538616  1
  O  O187  1  0.25294239  0.00596098  0.37023940  1
  O  O188  1  0.26025157  -0.00435197  0.86611078  1
  O  O189  1  0.25006717  0.50081340  0.36122417  1
  O  O190  1  0.25112516  0.50832350  0.87114907  1
  O  O191  1  0.74818602  0.00853270  0.35862619  1
  O  O192  1  0.75391016  0.00592172  0.86683835  1
  O  O193  1  0.75606663  0.50808690  0.37142384  1
  O  O194  1  0.75804412  0.49900062  0.86727372  1
  O  O195  1  0.24977199  0.48996662  0.13797155  1
  O  O196  1  0.24667063  0.49517561  0.63328399  1
  O  O197  1  0.24863093  1.00420571  0.14180571  1
  O  O198  1  0.25827721  0.98660122  0.63174532  1
  O  O199  1  0.74688602  0.49745523  0.12860932  1
  O  O200  1  0.74618210  0.49517926  0.63060893  1
  O  O201  1  0.73815640  1.00370580  0.13408187  1
  O  O202  1  0.73863731  1.01168298  0.63831101  1
  O  O203  1  0.00025676  0.36785986  0.25635561  1
  O  O204  1  0.00343752  0.37320816  0.76272379  1
  O  O205  1  -0.00441412  0.86059184  0.24937500  1
  O  O206  1  0.00588097  0.87105993  0.75661243  1
  O  O207  1  0.51522383  0.37773548  0.23904866  1
  O  O208  1  0.50282714  0.38131367  0.76253760  1
  O  O209  1  0.49241642  0.86881540  0.25841471  1
  O  O210  1  0.51153245  0.86904550  0.75044894  1
  O  O211  1  0.50017332  0.12090811  0.23426040  1
  O  O212  1  0.48601680  0.12490448  0.74616679  1
  O  O213  1  0.49435524  0.62770749  0.24202687  1
  O  O214  1  0.50063621  0.63284387  0.74243904  1
  O  O215  1  0.99412010  0.12527470  0.24530659  1
  O  O216  1  1.00000518  0.12697676  0.74359903  1
  O  O217  1  1.00581376  0.63527163  0.23925755  1
  O  O218  1  1.00544000  0.63708810  0.74599899  1
  O  O219  1  0.36111741  0.24551915  0.00709711  1
  O  O220  1  0.36886899  0.26207412  0.50097559  1
  O  O221  1  0.37344312  0.76642390  0.00216663  1
  O  O222  1  0.37574044  0.75801276  0.51156102  1
  O  O223  1  0.87153540  0.25500747  0.00446923  1
  O  O224  1  0.87251782  0.25699757  0.51058244  1
  O  O225  1  0.86615742  0.75551955  0.00429225  1
  O  O226  1  0.86939965  0.75513665  0.50815215  1
  O  O227  1  0.13195435  0.24849464  0.48931413  1
  O  O228  1  0.13149070  0.23481411  1.00410410  1
  O  O229  1  0.12563496  0.74159169  0.49438573  1
  O  O230  1  0.12446144  0.73892054  1.00182003  1
  O  O231  1  0.63737734  0.26458555  0.49647826  1
  O  O232  1  0.63354651  0.24237724  0.99789267  1
  O  O233  1  0.63450581  0.74605056  0.49957185  1
  O  O234  1  0.63036679  0.74856652  0.99587694  1
  O  O235  1  0.50582016  0.23528626  0.12580799  1
  O  O236  1  0.49846508  0.23736286  0.62587053  1
  O  O237  1  0.50352321  0.74057066  0.13119425  1
  O  O238  1  0.49551149  0.74554466  0.62933103  1
  O  O239  1  0.99651751  0.24258700  0.13121259  1
  O  O240  1  0.99547448  0.24284390  0.63007938  1
  O  O241  1  0.99049633  0.74083867  0.13039573  1
  O  O242  1  0.99276788  0.74541896  0.63478393  1
  O  O243  1  0.00511342  0.25245873  0.37317169  1
  O  O244  1  -0.00256698  0.26414381  0.87122109  1
  O  O245  1  0.00791084  0.74631482  0.36386321  1
  O  O246  1  -0.00873553  0.75924844  0.86729986  1
  O  O247  1  0.50488739  0.24110752  0.36119648  1
  O  O248  1  0.49954840  0.26401991  0.88122320  1
  O  O249  1  0.50278149  0.76193291  0.36739848  1
  O  O250  1  0.50678621  0.75106407  0.86663161  1
  O  O251  1  0.25083672  0.13262084  0.49619934  1
  O  O252  1  0.23814064  0.13315463  1.00836804  1
  O  O253  1  0.24178356  0.62837809  0.50152237  1
  O  O254  1  0.24163632  0.62941905  0.99832731  1
  O  O255  1  0.76287852  0.11985105  0.47990287  1
  O  O256  1  0.74709694  0.12700808  0.99333125  1
  O  O257  1  0.74662710  0.63389729  0.49198851  1
  O  O258  1  0.74176257  0.63320482  0.99682178  1
  O  O259  1  0.25052387  0.36625210  0.00970216  1
  O  O260  1  0.25904145  0.37122236  0.50176831  1
  O  O261  1  0.26153192  0.87434173  -0.00010051  1
  O  O262  1  0.26077550  0.87277135  0.50769253  1
  O  O263  1  0.75579022  0.37116003  0.00368410  1
  O  O264  1  0.76325969  0.37918062  0.50720313  1
  O  O265  1  0.75861156  0.86731014  -0.00521624  1
  O  O266  1  0.75811210  0.86343529  0.49448722  1
  O  O267  1  0.14023016  0.50569949  0.25237026  1
  O  O268  1  0.13806629  0.50500380  0.74802142  1
  O  O269  1  0.13627973  0.99598086  0.25658674  1
  O  O270  1  0.13460890  0.98732856  0.75454628  1
  O  O271  1  0.63213670  0.49281874  0.24263832  1
  O  O272  1  0.63060580  0.49127751  0.74521659  1
  O  O273  1  0.63666826  1.00104801  0.23787482  1
  O  O274  1  0.63015759  0.99462242  0.74594136  1
  O  O275  1  0.36170817  0.00339800  0.26165158  1
  O  O276  1  0.37108528  0.00344282  0.75801160  1
  O  O277  1  0.36509123  0.50967035  0.24907056  1
  O  O278  1  0.36151837  0.50704294  0.75236716  1
  O  O279  1  0.86129558  0.00564974  0.23879791  1
  O  O280  1  0.86573751  -0.00129947  0.75478466  1
  O  O281  1  0.86720929  0.49543410  0.26382102  1
  O  O282  1  0.86503470  0.49286396  0.75868370  1
  O  O283  1  0.11615612  0.36857385  0.37420458  1
  O  O284  1  0.11227391  0.37728762  0.88138997  1
  O  O285  1  0.12032921  0.86000713  0.38163478  1
  O  O286  1  0.11208071  0.87855883  0.87140440  1
  O  O287  1  0.63196420  0.37660928  0.35697740  1
  O  O288  1  0.61351337  0.37431208  0.86713011  1
  O  O289  1  0.61274880  0.87885188  0.38066102  1
  O  O290  1  0.62151368  0.86862452  0.86679399  1
  O  O291  1  0.39337855  0.11334296  0.12339055  1
  O  O292  1  0.38842804  0.12377100  0.63512866  1
  O  O293  1  0.38463611  0.62165655  0.13098824  1
  O  O294  1  0.38047963  0.63579260  0.62590760  1
  O  O295  1  0.88407941  0.13017637  0.13305283  1
  O  O296  1  0.88502660  0.13287242  0.62744400  1
  O  O297  1  0.88311403  0.63651802  0.11688580  1
  O  O298  1  0.88741812  0.63530887  0.62031529  1
  O  O299  1  0.24516345  0.26296642  0.11825246  1
  O  O300  1  0.25310525  0.25513611  0.61048194  1
  O  O301  1  0.23411799  0.75807814  0.13644433  1
  O  O302  1  0.25991352  0.76083747  0.62700904  1
  O  O303  1  0.75644089  0.25325454  0.11807621  1
  O  O304  1  0.75897240  0.25567159  0.62521005  1
  O  O305  1  0.75464465  0.74468453  0.11378442  1
  O  O306  1  0.75983771  0.74371403  0.61621871  1
  O  O307  1  0.24314355  0.24394751  0.38360713  1
  O  O308  1  0.25312161  0.25266891  0.89912104  1
  O  O309  1  0.24340728  0.74675558  0.37630836  1
  O  O310  1  0.25223530  0.74048944  0.87817825  1
  O  O311  1  0.74969608  0.23357097  0.37282702  1
  O  O312  1  0.75039415  0.24336758  0.88036654  1
  O  O313  1  0.74915869  0.74292973  0.38108181  1
  O  O314  1  0.74504478  0.74848817  0.88457855  1
  O  O315  1  0.01028650  0.12018888  0.00576272  1
  O  O316  1  -0.00219643  0.11169178  0.50563574  1
  O  O317  1  0.00454426  0.61758627  0.00445556  1
  O  O318  1  0.00683591  0.62572698  0.50966512  1
  O  O319  1  0.50333014  0.11547113  0.00684676  1
  O  O320  1  0.49253232  0.12581365  0.51353811  1
  O  O321  1  0.50326320  0.62102632  0.00507760  1
  O  O322  1  0.50493666  0.61986422  0.50542822  1
  O  O323  1  0.48540158  0.38411123  0.50488229  1
  O  O324  1  0.50041174  0.38214945  0.99244850  1
  O  O325  1  0.48932171  0.87255873  0.49247280  1
  O  O326  1  0.49078182  0.88645261  0.99948692  1
  O  O327  1  0.98878410  0.37651795  0.49597952  1
  O  O328  1  0.99666844  0.37996439  0.99523642  1
  O  O329  1  0.99556334  0.88471017  0.50202359  1
  O  O330  1  0.99546016  0.88207161  0.99419773  1
  O  O331  1  0.50637927  0.50551071  0.38661923  1
  O  O332  1  0.49909913  0.49192396  0.88257365  1
  O  O333  1  0.49006953  0.99487122  0.36723251  1
  O  O334  1  0.49196437  0.99952223  0.88517354  1
  O  O335  1  0.99183310  0.49606750  0.37516842  1
  O  O336  1  0.99485795  0.49073284  0.88058713  1
  O  O337  1  0.99848871  0.99969921  0.39047219  1
  O  O338  1  0.99385574  0.99411409  0.88527947  1
  O  O339  1  -0.00573974  0.00731587  0.11237309  1
  O  O340  1  -0.00523777  0.00705207  0.61480095  1
  O  O341  1  -0.01091867  0.50808447  0.11646120  1
  O  O342  1  0.00049085  0.50991401  0.62555990  1
  O  O343  1  0.51197133  0.00498371  0.12085872  1
  O  O344  1  0.51250874  0.01056188  0.62710269  1
  O  O345  1  0.50502973  0.50758214  0.11637937  1
  O  O346  1  0.50236708  0.50769461  0.62074220  1
  O  O347  1  0.24621933  0.38391007  0.24510021  1
  O  O348  1  0.25607978  0.38688701  0.73928761  1
  O  O349  1  0.24901484  0.88091241  0.25031996  1
  O  O350  1  0.24400814  0.88033704  0.74460315  1
  O  O351  1  0.74467161  0.38233861  0.24196369  1
  O  O352  1  0.74132185  0.38416625  0.74465687  1
  O  O353  1  0.75507461  0.88765480  0.25436298  1
  O  O354  1  0.73860942  0.88401666  0.75462300  1
  O  O355  1  0.24582416  0.11466027  0.25856206  1
  O  O356  1  0.26272698  0.10699088  0.73769582  1
  O  O357  1  0.26038763  0.61508900  0.25311373  1
  O  O358  1  0.24865835  0.62265774  0.75985277  1
  O  O359  1  0.75691159  0.11789322  0.25467006  1
  O  O360  1  0.75158018  0.11911199  0.75921753  1
  O  O361  1  0.74379277  0.62053291  0.26146944  1
  O  O362  1  0.74435430  0.61047402  0.75160550  1
  O  O363  1  0.36194055  0.11794104  0.37628015  1
  O  O364  1  0.37812292  0.11595626  0.86316410  1
  O  O365  1  0.37686627  0.62878902  0.36641370  1
  O  O366  1  0.36439958  0.62411096  0.87472599  1
  O  O367  1  0.86967627  0.12700039  0.35934402  1
  O  O368  1  0.87020597  0.11764679  0.87499172  1
  O  O369  1  0.86665535  0.61657901  0.38076588  1
  O  O370  1  0.87426358  0.60869523  0.87999394  1
  O  O371  1  0.13860457  0.37646211  0.12764690  1
  O  O372  1  0.13999903  0.37833736  0.61233397  1
  O  O373  1  0.12238382  0.87560180  0.12928898  1
  O  O374  1  0.13565221  0.87099460  0.63343579  1
  O  O375  1  0.63252509  0.38271255  0.12863592  1
  O  O376  1  0.62689390  0.38181189  0.63318403  1
  O  O377  1  0.62406299  0.88944642  0.11975746  1
  O  O378  1  0.62095352  0.89070137  0.63271102  1
  O  O379  1  0.11933266  0.24981089  0.26400306  1
  O  O380  1  0.14561371  0.24882924  0.75020514  1
  O  O381  1  0.12331300  0.75465732  0.25170741  1
  O  O382  1  0.11455526  0.76355319  0.74956557  1
  O  O383  1  0.62987509  0.26695797  0.24583904  1
  O  O384  1  0.62927324  0.26494620  0.75132408  1
  O  O385  1  0.60836960  0.74627415  0.25258600  1
  O  O386  1  0.62392733  0.75828014  0.75182828  1
  O  O387  1  0.36800854  0.24255802  0.24513639  1
  O  O388  1  0.35667423  0.23218614  0.75052136  1
  O  O389  1  0.38851099  0.73840989  0.25063034  1
  O  O390  1  0.38255974  0.75312000  0.73971416  1
  O  O391  1  0.88086495  0.24232183  0.24446545  1
  O  O392  1  0.87436144  0.25168448  0.73856569  1
  O  O393  1  0.87967280  0.74914682  0.23953633  1
  O  O394  1  0.88309657  0.75718143  0.74236354  1
  O  O395  1  0.38137437  0.48989922  0.50171572  1
  O  O396  1  0.38735283  0.50027800  1.00038746  1
  O  O397  1  0.37017506  0.99222373  0.48705357  1
  O  O398  1  0.37902793  0.99534281  0.99312315  1
  O  O399  1  0.87638798  0.49309622  0.48921822  1
  O  O400  1  0.88395939  0.49293838  0.99294980  1
  O  O401  1  0.88372531  0.98708837  0.50568407  1
  O  O402  1  0.88065666  0.99256890  0.99813883  1
  O  O403  1  0.11848807  0.01305501  -0.00168872  1
  O  O404  1  0.11100552  -0.00263821  0.49933651  1
  O  O405  1  0.11190768  0.50760974  -0.00264188  1
  O  O406  1  0.12207991  0.51340148  0.50067709  1
  O  O407  1  0.61828884  0.00346217  0.00715684  1
  O  O408  1  0.63402790  -0.00185542  0.51640197  1
  O  O409  1  0.61535677  0.50479874  0.00309689  1
  O  O410  1  0.61796125  0.50326428  0.50639726  1
  O  O411  1  0.35816801  0.37945050  0.12329572  1
  O  O412  1  0.36281415  0.37366344  0.61626150  1
  O  O413  1  0.37689676  0.88459550  0.11120441  1
  O  O414  1  0.37377875  0.87152743  0.61890894  1
  O  O415  1  0.86987279  0.36835747  0.11797060  1
  O  O416  1  0.87292175  0.36922164  0.61873013  1
  O  O417  1  0.88037285  0.86183392  0.11100728  1
  O  O418  1  0.87869065  0.86159381  0.61462885  1
  O  O419  1  0.13484416  0.13135259  0.38024679  1
  O  O420  1  0.12256889  0.12480101  0.88653453  1
  O  O421  1  0.12674482  0.63613919  0.38446199  1
  O  O422  1  0.13352534  0.62228551  0.88633164  1
  O  O423  1  0.64057697  0.12466012  0.36986000  1
  O  O424  1  0.63064519  0.12571706  0.88169956  1
  O  O425  1  0.63492464  0.62750470  0.38250200  1
  O  O426  1  0.62621251  0.63280059  0.88157018  1
