# generated using pymatgen
data_V85Zn86O256
_symmetry_space_group_name_H-M   'P 1'
_cell_length_a   16.92322655
_cell_length_b   16.92129705
_cell_length_c   16.92119515
_cell_angle_alpha   90.00683082
_cell_angle_beta   90.03294506
_cell_angle_gamma   89.99967751
_symmetry_Int_Tables_number   1
_chemical_formula_structural   V85Zn86O256
_chemical_formula_sum   'V85 Zn86 O256'
_cell_volume   4845.60241583
_cell_formula_units_Z   1
loop_
 _symmetry_equiv_pos_site_id
 _symmetry_equiv_pos_as_xyz
  1  'x, y, z'
loop_
 _atom_site_type_symbol
 _atom_site_label
 _atom_site_symmetry_multiplicity
 _atom_site_fract_x
 _atom_site_fract_y
 _atom_site_fract_z
 _atom_site_occupancy
  V  V0  1  0.50257825  0.37444644  0.87279747  1
  V  V1  1  0.87555055  0.26306467  0.12511887  1
  V  V2  1  0.24431212  0.62384612  0.88152715  1
  V  V3  1  0.37768086  0.87476150  0.49744595  1
  V  V4  1  -0.00051454  0.74310187  0.75099915  1
  V  V5  1  0.37759203  0.12768912  0.24972123  1
  V  V6  1  0.25137318  0.12514565  0.37566901  1
  V  V7  1  0.86665258  0.87608265  0.00004420  1
  V  V8  1  0.87580017  0.12591937  0.25029127  1
  V  V9  1  -0.00060472  0.87913894  0.88329180  1
  V  V10  1  0.49320831  0.75171259  0.24592413  1
  V  V11  1  0.49635343  0.62466321  0.62159096  1
  V  V12  1  0.74950977  0.13247285  0.37665188  1
  V  V13  1  0.87806521  0.74652694  0.62586125  1
  V  V14  1  0.24258358  0.12805556  0.87325249  1
  V  V15  1  0.37435985  -0.00104628  0.87535790  1
  V  V16  1  0.87741794  0.61748065  0.24944819  1
  V  V17  1  0.13302857  0.38700054  0.25089492  1
  V  V18  1  0.37041618  0.62577379  0.24603551  1
  V  V19  1  0.86640945  0.74871137  0.11996844  1
  V  V20  1  0.75239581  0.00941889  0.75396150  1
  V  V21  1  0.62426130  0.00151482  0.12256130  1
  V  V22  1  0.62358301  0.00374349  0.62704382  1
  V  V23  1  0.75119141  0.25873280  0.50625835  1
  V  V24  1  0.49423485  0.62441864  0.11701013  1
  V  V25  1  0.62161730  0.62564573  0.49791607  1
  V  V26  1  0.11872640  0.87920115  0.25209424  1
  V  V27  1  0.61831706  0.75539463  0.37419188  1
  V  V28  1  0.12557947  0.25104114  0.37422505  1
  V  V29  1  0.00272048  0.25322072  0.25230684  1
  V  V30  1  0.24835014  0.37613525  0.62622167  1
  V  V31  1  0.11455541  0.75353542  0.37590137  1
  V  V32  1  -0.00442601  0.75382405  0.24876325  1
  V  V33  1  0.88384979  0.87166261  0.49205664  1
  V  V34  1  0.62935417  0.12574317  -0.00902435  1
  V  V35  1  0.38337278  -0.00217006  0.37377814  1
  V  V36  1  0.75623960  0.25383353  -0.00754869  1
  V  V37  1  0.24846792  0.61950025  0.37583957  1
  V  V38  1  0.38038051  0.50085512  0.87644969  1
  V  V39  1  0.12278133  0.00102546  0.11357868  1
  V  V40  1  0.63811231  0.38026252  0.74602426  1
  V  V41  1  0.61944986  0.49328824  0.12510372  1
  V  V42  1  0.61875911  0.87630476  0.25198127  1
  V  V43  1  0.62813294  0.62447615  0.00300519  1
  V  V44  1  0.12207484  0.74623075  0.88627869  1
  V  V45  1  0.75025612  -0.00086121  0.25270120  1
  V  V46  1  0.25601062  0.87010105  0.12269280  1
  V  V47  1  0.87226675  0.61642678  0.75376111  1
  V  V48  1  0.37738468  0.24974145  0.12459852  1
  V  V49  1  0.13256372  0.50762502  0.11309399  1
  V  V50  1  0.50304001  0.24757684  0.74506261  1
  V  V51  1  0.75565620  0.62329757  0.37403963  1
  V  V52  1  0.37898974  0.37724440  -0.00093914  1
  V  V53  1  0.50272053  0.74939638  0.74918060  1
  V  V54  1  0.24999075  0.24909308  0.50090479  1
  V  V55  1  0.24983915  0.00139958  0.24851592  1
  V  V56  1  0.51454368  0.25317803  0.25138287  1
  V  V57  1  0.88227019  0.25661880  0.62749651  1
  V  V58  1  0.12098825  0.11813963  0.50242205  1
  V  V59  1  0.11821185  0.36083509  0.75544580  1
  V  V60  1  0.74520751  0.49199026  0.25077691  1
  V  V61  1  0.24802795  0.75025798  0.50024006  1
  V  V62  1  0.37255403  0.49711718  0.37049315  1
  V  V63  1  0.10591182  0.50213367  0.62457729  1
  V  V64  1  -0.00078005  0.12270496  0.11935755  1
  V  V65  1  0.12132953  0.87504753  0.74363017  1
  V  V66  1  0.24480746  -0.00198146  0.74352656  1
  V  V67  1  -0.00221682  0.36258485  0.88354440  1
  V  V68  1  -0.00073539  0.11486300  0.63044285  1
  V  V69  1  0.51439337  0.37271543  0.37236563  1
  V  V70  1  0.62380361  0.12746449  0.49850367  1
  V  V71  1  0.87563872  0.00956987  0.88112563  1
  V  V72  1  0.24629883  0.24932224  -0.00228129  1
  V  V73  1  0.10993770  0.62181474  0.50385334  1
  V  V74  1  0.24591067  0.50095859  0.74707374  1
  V  V75  1  0.50081651  0.00071283  0.50440030  1
  V  V76  1  0.63551275  0.74933870  0.87862158  1
  V  V77  1  0.37493953  0.37469929  0.49827480  1
  V  V78  1  0.37927056  0.12383208  0.74516449  1
  V  V79  1  0.49966670  0.87290626  0.87706489  1
  V  V80  1  0.37455720  0.62541218  0.74931318  1
  V  V81  1  0.74928879  0.75431046  0.50252561  1
  V  V82  1  0.37763204  0.24850368  0.62490882  1
  V  V83  1  0.75328862  0.61418406  0.88023620  1
  V  V84  1  0.62831307  0.87319237  0.74897472  1
  Zn  Zn85  1  0.50038820  0.00282944  -0.00102270  1
  Zn  Zn86  1  0.00620981  0.62741922  0.11601394  1
  Zn  Zn87  1  0.25500950  0.37910156  0.12897648  1
  Zn  Zn88  1  -0.00678048  0.50429414  -0.00156187  1
  Zn  Zn89  1  0.74941727  0.37780198  0.12352841  1
  Zn  Zn90  1  0.11917987  0.12850286  -0.00629120  1
  Zn  Zn91  1  0.89047084  0.39230572  0.50116364  1
  Zn  Zn92  1  0.87434106  0.48942357  0.88248092  1
  Zn  Zn93  1  0.75233430  0.87599448  0.62657624  1
  Zn  Zn94  1  0.00662995  -0.00558550  0.49486359  1
  Zn  Zn95  1  0.50071344  0.49811552  0.49974926  1
  Zn  Zn96  1  0.63096307  0.49276643  0.62538982  1
  Zn  Zn97  1  0.74602196  0.87138379  0.12220432  1
  Zn  Zn98  1  0.50202593  0.12696233  0.12205976  1
  Zn  Zn99  1  0.37082833  0.75414020  0.62679206  1
  Zn  Zn100  1  0.88355656  -0.00316257  0.37331635  1
  Zn  Zn101  1  0.63102491  0.24563295  0.87029014  1
  Zn  Zn102  1  0.24420429  0.87896626  0.62119766  1
  Zn  Zn103  1  -0.00373865  0.39496042  0.37970764  1
  Zn  Zn104  1  0.87634420  0.12881014  0.75356298  1
  Zn  Zn105  1  0.37741129  0.86976180  0.00336348  1
  Zn  Zn106  1  0.25418966  0.74238664  0.00617153  1
  Zn  Zn107  1  0.18823362  0.18912856  0.18470495  1
  Zn  Zn108  1  0.18726610  0.18314076  0.68375583  1
  Zn  Zn109  1  0.18816913  0.68901049  0.19063604  1
  Zn  Zn110  1  0.18321576  0.68627509  0.68780911  1
  Zn  Zn111  1  0.69132539  0.18601353  0.18076587  1
  Zn  Zn112  1  0.68762269  0.18828290  0.68306385  1
  Zn  Zn113  1  0.68624291  0.68441390  0.18807609  1
  Zn  Zn114  1  0.69720696  0.66362344  0.67934246  1
  Zn  Zn115  1  0.31467820  0.31185480  0.31192297  1
  Zn  Zn116  1  0.31106646  0.31195711  0.81198403  1
  Zn  Zn117  1  0.30841064  0.81228801  0.31404001  1
  Zn  Zn118  1  0.31033471  0.81041408  0.81498723  1
  Zn  Zn119  1  0.81487518  0.31574662  0.31820944  1
  Zn  Zn120  1  0.81568068  0.30973828  0.81126810  1
  Zn  Zn121  1  0.80841853  0.80943942  0.31160591  1
  Zn  Zn122  1  0.81301291  0.81439483  0.81265028  1
  Zn  Zn123  1  0.18004719  0.43814659  0.44006338  1
  Zn  Zn124  1  0.18937773  0.43326120  0.93450611  1
  Zn  Zn125  1  0.18964683  0.93797997  0.43425743  1
  Zn  Zn126  1  0.18704237  0.93657273  0.93394365  1
  Zn  Zn127  1  0.69368107  0.44305666  0.44089807  1
  Zn  Zn128  1  0.68425549  0.43702171  0.94063334  1
  Zn  Zn129  1  0.68874033  0.93856723  0.43515279  1
  Zn  Zn130  1  0.69045322  0.93863322  0.93544408  1
  Zn  Zn131  1  0.31229883  0.06159328  0.06075560  1
  Zn  Zn132  1  0.31289738  0.06282193  0.56342339  1
  Zn  Zn133  1  0.31229681  0.55858622  0.06287827  1
  Zn  Zn134  1  0.31015117  0.56203601  0.55931512  1
  Zn  Zn135  1  0.81198157  0.06579917  0.06196784  1
  Zn  Zn136  1  0.81358315  0.06058228  0.56367511  1
  Zn  Zn137  1  0.81307797  0.56105988  0.06146510  1
  Zn  Zn138  1  0.80685025  0.55920191  0.57556060  1
  Zn  Zn139  1  0.43907607  0.43923961  0.19053647  1
  Zn  Zn140  1  0.44048002  0.43846131  0.68713072  1
  Zn  Zn141  1  0.43986012  0.93924229  0.18785409  1
  Zn  Zn142  1  0.43733588  0.93631310  0.68547552  1
  Zn  Zn143  1  0.94649038  0.44245183  0.19154563  1
  Zn  Zn144  1  0.93574277  0.43270068  0.69518033  1
  Zn  Zn145  1  0.93715301  0.93877784  0.18447962  1
  Zn  Zn146  1  0.93580405  0.93526207  0.68789817  1
  Zn  Zn147  1  0.05982246  0.06258330  0.31324298  1
  Zn  Zn148  1  0.06078794  0.05992194  0.81175426  1
  Zn  Zn149  1  0.06684218  0.56958096  0.30476969  1
  Zn  Zn150  1  0.05914365  0.55802205  0.81866112  1
  Zn  Zn151  1  0.56304002  0.06624624  0.31414299  1
  Zn  Zn152  1  0.56186591  0.06205150  0.81158664  1
  Zn  Zn153  1  0.56024440  0.56226074  0.31056407  1
  Zn  Zn154  1  0.56368672  0.56235126  0.81383495  1
  Zn  Zn155  1  0.44203681  0.18826248  0.43664285  1
  Zn  Zn156  1  0.43873867  0.18687570  0.93450757  1
  Zn  Zn157  1  0.43598677  0.68995959  0.43300254  1
  Zn  Zn158  1  0.43505618  0.69065454  0.93893499  1
  Zn  Zn159  1  0.93554695  0.19335856  0.43768025  1
  Zn  Zn160  1  0.93870538  0.19339928  0.93755585  1
  Zn  Zn161  1  0.93285460  0.55991358  0.43771657  1
  Zn  Zn162  1  0.93810792  0.68378622  0.94295126  1
  Zn  Zn163  1  0.06473455  0.31577532  0.06694754  1
  Zn  Zn164  1  0.06040533  0.31166235  0.56260934  1
  Zn  Zn165  1  0.06008093  0.81419074  0.06382642  1
  Zn  Zn166  1  0.05937868  0.80635513  0.56502924  1
  Zn  Zn167  1  0.56304271  0.31020353  0.05847117  1
  Zn  Zn168  1  0.56433087  0.31197856  0.56255873  1
  Zn  Zn169  1  0.56143341  0.81025050  0.06279365  1
  Zn  Zn170  1  0.55978877  0.81577477  0.56357869  1
  O  O171  1  0.11908691  0.11689595  0.12464206  1
  O  O172  1  0.11003915  0.12988385  0.61712880  1
  O  O173  1  0.12969725  0.61113451  0.13136962  1
  O  O174  1  0.12669013  0.61511488  0.61666184  1
  O  O175  1  0.62324017  0.11679098  0.11554458  1
  O  O176  1  0.62858516  0.11171317  0.61446633  1
  O  O177  1  0.61665798  0.62185271  0.11830590  1
  O  O178  1  0.60438174  0.64596969  0.60745411  1
  O  O179  1  0.37750031  0.38224705  0.37960955  1
  O  O180  1  0.38065216  0.38124893  0.87848213  1
  O  O181  1  0.36757626  0.88470180  0.38630599  1
  O  O182  1  0.38275020  0.88327747  0.87121276  1
  O  O183  1  0.88717514  0.35674834  0.38966539  1
  O  O184  1  0.89315023  0.37166212  0.86619379  1
  O  O185  1  0.86942142  0.87072629  0.38911796  1
  O  O186  1  0.88173686  0.88042314  0.88280538  1
  O  O187  1  0.26097518  0.00605397  0.36835965  1
  O  O188  1  0.25776902  0.00432295  0.86601914  1
  O  O189  1  0.25486066  0.51205708  0.38021869  1
  O  O190  1  0.25608943  0.50426673  0.86427984  1
  O  O191  1  0.75138416  0.00855658  0.36420473  1
  O  O192  1  0.76192874  -0.00391703  0.86628616  1
  O  O193  1  0.74096490  0.51399120  0.36530238  1
  O  O194  1  0.74888795  0.51088167  0.87738118  1
  O  O195  1  0.23921838  0.49585230  0.12512341  1
  O  O196  1  0.24992168  0.49546258  0.63576675  1
  O  O197  1  0.24266655  0.99517607  0.13087348  1
  O  O198  1  0.25268705  0.99977899  0.63923334  1
  O  O199  1  0.73903588  0.49921239  0.13294222  1
  O  O200  1  0.72291309  0.55384902  0.64418026  1
  O  O201  1  0.73958946  1.00137963  0.13661628  1
  O  O202  1  0.74266716  0.99670430  0.63298399  1
  O  O203  1  0.01447720  0.36765216  0.25257277  1
  O  O204  1  0.01408542  0.37228027  0.75609615  1
  O  O205  1  0.01072669  0.87061815  0.24527740  1
  O  O206  1  0.00476451  0.86751774  0.75925004  1
  O  O207  1  0.49646203  0.36806738  0.26403308  1
  O  O208  1  0.50089425  0.36657668  0.75878259  1
  O  O209  1  0.50990887  0.86796776  0.24558199  1
  O  O210  1  0.50595234  0.87055793  0.75855247  1
  O  O211  1  0.49414918  0.13467207  0.24988910  1
  O  O212  1  0.49119902  0.13338297  0.75444038  1
  O  O213  1  0.48883885  0.63266235  0.24486565  1
  O  O214  1  0.49688672  0.62985940  0.74150314  1
  O  O215  1  0.99747328  0.13360996  0.23948768  1
  O  O216  1  0.99995891  0.12078074  0.73450920  1
  O  O217  1  0.99230298  0.63668684  0.24186322  1
  O  O218  1  0.99035234  0.63728243  0.76132450  1
  O  O219  1  0.37112673  0.25442048  0.00676316  1
  O  O220  1  0.37123122  0.25323221  0.50510334  1
  O  O221  1  0.36620251  0.75759141  -0.00695603  1
  O  O222  1  0.36719162  0.75897874  0.49703702  1
  O  O223  1  0.86324030  0.24572855  0.00919516  1
  O  O224  1  0.86247207  0.24413222  0.51216444  1
  O  O225  1  0.87948814  0.76012873  0.01126665  1
  O  O226  1  0.86443632  0.75984546  0.50884763  1
  O  O227  1  0.13186818  0.23987621  0.49568605  1
  O  O228  1  0.14317926  0.24861273  1.01080020  1
  O  O229  1  0.12927785  0.74538586  0.49330279  1
  O  O230  1  0.12976332  0.75592776  0.98891913  1
  O  O231  1  0.63724841  0.23894935  0.50940262  1
  O  O232  1  0.63455606  0.24207670  0.99756084  1
  O  O233  1  0.62700580  0.75061521  0.49097590  1
  O  O234  1  0.61621973  0.73736105  0.99099712  1
  O  O235  1  0.49127838  0.25178276  0.13142312  1
  O  O236  1  0.49328112  0.25441231  0.63662556  1
  O  O237  1  0.50304782  0.74127158  0.13769132  1
  O  O238  1  0.49271347  0.74898431  0.63380334  1
  O  O239  1  0.99590599  0.24641635  0.13432736  1
  O  O240  1  0.98684385  0.23842910  0.61992711  1
  O  O241  1  0.99227355  0.75218241  0.13548071  1
  O  O242  1  0.99110188  0.75114588  0.63802725  1
  O  O243  1  0.00986794  0.23987760  0.36055093  1
  O  O244  1  0.00625638  0.26131895  0.87639141  1
  O  O245  1  0.01317774  0.74881380  0.36110060  1
  O  O246  1  0.00564759  0.75800211  0.87006802  1
  O  O247  1  0.49786781  0.26346412  0.36731635  1
  O  O248  1  0.50094265  0.25652509  0.86209681  1
  O  O249  1  0.51096198  0.74634391  0.36358592  1
  O  O250  1  0.50684902  0.75590833  0.86720442  1
  O  O251  1  0.24507669  0.13030564  0.49680000  1
  O  O252  1  0.25187660  0.13147453  0.98991667  1
  O  O253  1  0.24517251  0.63335452  0.49246997  1
  O  O254  1  0.25323631  0.62207090  0.98509193  1
  O  O255  1  0.74406729  0.12740471  0.49356810  1
  O  O256  1  0.74131711  0.14025946  1.00809095  1
  O  O257  1  0.73917391  0.63965393  0.49072593  1
  O  O258  1  0.74009234  0.62920599  0.99335010  1
  O  O259  1  0.26352760  0.36631510  -0.00233821  1
  O  O260  1  0.25372372  0.36905448  0.50539734  1
  O  O261  1  0.24854034  0.87915767  0.01549563  1
  O  O262  1  0.25449211  0.86791787  0.50143494  1
  O  O263  1  0.74236691  0.35823288  0.00364991  1
  O  O264  1  0.74655596  0.35952936  0.49886687  1
  O  O265  1  0.76168865  0.87551609  0.00167039  1
  O  O266  1  0.75168383  0.86440459  0.50004247  1
  O  O267  1  0.12916403  0.48931231  0.24526449  1
  O  O268  1  0.13215136  0.49667261  0.74217634  1
  O  O269  1  0.13137847  0.99432468  0.24418573  1
  O  O270  1  0.13354508  0.98834835  0.75627937  1
  O  O271  1  0.63354964  0.51007120  0.23872873  1
  O  O272  1  0.61770241  0.48203111  0.75276018  1
  O  O273  1  0.62798367  0.99459191  0.24517522  1
  O  O274  1  0.63021401  0.99601873  0.74419379  1
  O  O275  1  0.37287974  0.00578546  0.25695015  1
  O  O276  1  0.37085177  0.00528492  0.75687927  1
  O  O277  1  0.37606439  0.50844443  0.26259957  1
  O  O278  1  0.36755769  0.50433983  0.75565462  1
  O  O279  1  0.86520775  0.00499596  0.24959188  1
  O  O280  1  0.86736991  0.00074103  0.75749958  1
  O  O281  1  0.86592793  0.51285732  0.24054170  1
  O  O282  1  0.87723559  0.51317461  0.75433655  1
  O  O283  1  0.12608249  0.36961079  0.36421176  1
  O  O284  1  0.12157118  0.37617279  0.86101103  1
  O  O285  1  0.13405605  0.86604533  0.36333942  1
  O  O286  1  0.11765663  0.86783029  0.86867060  1
  O  O287  1  0.61215901  0.38097426  0.37989068  1
  O  O288  1  0.61709216  0.37105838  0.86733809  1
  O  O289  1  0.62770091  0.86791210  0.36468918  1
  O  O290  1  0.61844418  0.86865064  0.87117108  1
  O  O291  1  0.37848872  0.13211136  0.12942290  1
  O  O292  1  0.37155735  0.12971264  0.63810147  1
  O  O293  1  0.38005466  0.61899310  0.13443009  1
  O  O294  1  0.38305471  0.62710176  0.62734932  1
  O  O295  1  0.88203464  0.13156811  0.13199298  1
  O  O296  1  0.88698452  0.12879425  0.62441488  1
  O  O297  1  0.87476424  0.63473220  0.13316464  1
  O  O298  1  0.87134167  0.63996418  0.63877693  1
  O  O299  1  0.26438134  0.25214912  0.11904655  1
  O  O300  1  0.25708563  0.25550820  0.62064324  1
  O  O301  1  0.24334297  0.76655938  0.12516050  1
  O  O302  1  0.24966659  0.74955449  0.61179620  1
  O  O303  1  0.75993088  0.25588965  0.12024159  1
  O  O304  1  0.76140397  0.24287242  0.61269892  1
  O  O305  1  0.76227126  0.75302239  0.13360419  1
  O  O306  1  0.75370654  0.75095895  0.61647446  1
  O  O307  1  0.24654385  0.24436223  0.38064461  1
  O  O308  1  0.25808054  0.23909041  0.88357785  1
  O  O309  1  0.24238526  0.74253270  0.38448816  1
  O  O310  1  0.23913431  0.73999489  0.87263926  1
  O  O311  1  0.75137067  0.23867161  0.38726680  1
  O  O312  1  0.75223315  0.24935310  0.88820716  1
  O  O313  1  0.73714228  0.74249296  0.37788114  1
  O  O314  1  0.73756313  0.75080856  0.87744137  1
  O  O315  1  0.00245602  0.13337235  0.01461969  1
  O  O316  1  0.00744771  0.12477533  0.50677735  1
  O  O317  1  0.00593520  0.62108447  0.00275814  1
  O  O318  1  0.01167465  0.62921360  0.49451190  1
  O  O319  1  0.51034256  0.12403229  0.00073748  1
  O  O320  1  0.50864270  0.11280273  0.49492064  1
  O  O321  1  0.50242317  0.62789041  0.01257654  1
  O  O322  1  0.50236874  0.62484765  0.50317549  1
  O  O323  1  0.49444245  0.37355207  0.48915376  1
  O  O324  1  0.49018021  0.36597378  0.98433523  1
  O  O325  1  0.49140718  0.88786925  0.50002112  1
  O  O326  1  0.50043432  0.87753116  0.98759886  1
  O  O327  1  1.00744679  0.38001786  0.49462758  1
  O  O328  1  1.00933242  0.37424159  0.98643027  1
  O  O329  1  0.98705621  0.87153180  0.50197193  1
  O  O330  1  0.99206184  0.87269677  0.98884200  1
  O  O331  1  0.49232935  0.48908691  0.37488946  1
  O  O332  1  0.48790058  0.49212384  0.86934224  1
  O  O333  1  0.48827019  1.00270238  0.37984594  1
  O  O334  1  0.49265979  0.99058111  0.87363973  1
  O  O335  1  0.99484343  0.50785802  0.36086935  1
  O  O336  1  0.99990736  0.48320318  0.87650273  1
  O  O337  1  0.99697751  1.00213875  0.38096764  1
  O  O338  1  0.99039748  0.98954057  0.87051891  1
  O  O339  1  0.01033582  0.01011278  0.13035357  1
  O  O340  1  -0.00472553  0.01090795  0.61734187  1
  O  O341  1  0.01920531  0.50134839  0.12517397  1
  O  O342  1  0.00723810  0.49910525  0.63202742  1
  O  O343  1  0.51233386  0.00140962  0.12235105  1
  O  O344  1  0.50852089  -0.00195868  0.61688619  1
  O  O345  1  0.50699479  0.51243061  0.13326897  1
  O  O346  1  0.50433126  0.51151727  0.62188169  1
  O  O347  1  0.23689873  0.36848072  0.24885041  1
  O  O348  1  0.24298987  0.38311787  0.74762801  1
  O  O349  1  0.24240620  0.87988633  0.24008550  1
  O  O350  1  0.24153248  0.88085882  0.74932595  1
  O  O351  1  0.75304901  0.38849924  0.25105738  1
  O  O352  1  0.73654441  0.37232610  0.75447557  1
  O  O353  1  0.73931589  0.88363092  0.24905597  1
  O  O354  1  0.74209425  0.88385417  0.74989236  1
  O  O355  1  0.25737075  0.12138718  0.25419645  1
  O  O356  1  0.25540228  0.11846853  0.75516292  1
  O  O357  1  0.26239848  0.63397947  0.26040003  1
  O  O358  1  0.25500775  0.61820386  0.75561944  1
  O  O359  1  0.75295628  0.12002640  0.25701712  1
  O  O360  1  0.75004278  0.11302675  0.74749104  1
  O  O361  1  0.75636271  0.62021426  0.25659198  1
  O  O362  1  0.76394243  0.64211542  0.77088924  1
  O  O363  1  0.37063774  0.11916650  0.37093506  1
  O  O364  1  0.36822732  0.11752638  0.86476287  1
  O  O365  1  0.36855557  0.61765168  0.36995173  1
  O  O366  1  0.37073162  0.61629864  0.86845269  1
  O  O367  1  0.86640605  0.12399420  0.36815357  1
  O  O368  1  0.88356832  0.11381252  0.87377502  1
  O  O369  1  0.86212678  0.63135634  0.36511774  1
  O  O370  1  0.86630401  0.62700724  0.87155803  1
  O  O371  1  0.13007515  0.38313319  0.13675690  1
  O  O372  1  0.13028962  0.38217522  0.63566521  1
  O  O373  1  0.13091169  0.88358181  0.13144737  1
  O  O374  1  0.12386065  0.86945919  0.63887184  1
  O  O375  1  0.61984007  0.39012489  0.11923947  1
  O  O376  1  0.62210661  0.37582522  0.63995137  1
  O  O377  1  0.62652009  0.88201772  0.13074997  1
  O  O378  1  0.62579400  0.88528227  0.63121494  1
  O  O379  1  0.11978127  0.25737705  0.25165349  1
  O  O380  1  0.13320518  0.26339159  0.74613587  1
  O  O381  1  0.11850209  0.75867129  0.25417626  1
  O  O382  1  0.11692788  0.75517133  0.75770129  1
  O  O383  1  0.61357262  0.24556072  0.24232055  1
  O  O384  1  0.61910676  0.25614975  0.74985203  1
  O  O385  1  0.61873534  0.75715981  0.25492229  1
  O  O386  1  0.61878741  0.75329776  0.75736767  1
  O  O387  1  0.38169744  0.24632032  0.24159200  1
  O  O388  1  0.38091010  0.24258581  0.74579337  1
  O  O389  1  0.38351020  0.74327056  0.25816742  1
  O  O390  1  0.38173979  0.74239698  0.75051108  1
  O  O391  1  0.88277361  0.24517086  0.24368446  1
  O  O392  1  0.86702266  0.24467949  0.73140425  1
  O  O393  1  0.88113189  0.74581820  0.24530143  1
  O  O394  1  0.88298959  0.74956337  0.74554064  1
  O  O395  1  0.37639865  0.49468627  0.48858417  1
  O  O396  1  0.37133456  0.48921175  0.98899902  1
  O  O397  1  0.38119768  0.99690772  0.49460792  1
  O  O398  1  0.37648872  0.99717088  0.98621638  1
  O  O399  1  0.85994120  0.50356012  0.50052941  1
  O  O400  1  0.87652832  0.49849237  0.99693468  1
  O  O401  1  0.86949402  0.97943336  0.49973561  1
  O  O402  1  0.87056396  0.99315724  0.99280610  1
  O  O403  1  0.12874927  0.00331563  0.01050366  1
  O  O404  1  0.12983813  0.01386592  0.49700214  1
  O  O405  1  0.12940305  0.49457387  0.01178415  1
  O  O406  1  0.13127568  0.51034392  0.51350622  1
  O  O407  1  0.62781244  0.00627252  0.00672815  1
  O  O408  1  0.61873844  0.00231427  0.50614695  1
  O  O409  1  0.62523735  0.51371993  0.00841386  1
  O  O410  1  0.62305200  0.51278997  0.50342822  1
  O  O411  1  0.37726118  0.37047323  0.11647157  1
  O  O412  1  0.36962609  0.37105110  0.61883672  1
  O  O413  1  0.35936338  0.88387731  0.12591548  1
  O  O414  1  0.37022587  0.87567419  0.61114118  1
  O  O415  1  0.87840243  0.36511771  0.13265841  1
  O  O416  1  0.88087037  0.36094260  0.62166436  1
  O  O417  1  0.87277876  0.87009659  0.11697606  1
  O  O418  1  0.87239941  0.86414656  0.61840604  1
  O  O419  1  0.13350200  0.13180315  0.38021015  1
  O  O420  1  0.13790489  0.11915587  0.87535829  1
  O  O421  1  0.13349815  0.63309292  0.37952197  1
  O  O422  1  0.13362590  0.63351438  0.86670695  1
  O  O423  1  0.63362713  0.11872512  0.38896341  1
  O  O424  1  0.62455099  0.12410424  0.88633398  1
  O  O425  1  0.62621214  0.63266161  0.38307888  1
  O  O426  1  0.63029128  0.63011673  0.88145163  1
