# generated using pymatgen
data_V85Zn86O256
_symmetry_space_group_name_H-M   'P 1'
_cell_length_a   16.91715790
_cell_length_b   16.91054929
_cell_length_c   16.92218115
_cell_angle_alpha   90.01166810
_cell_angle_beta   89.98742027
_cell_angle_gamma   90.01346216
_symmetry_Int_Tables_number   1
_chemical_formula_structural   V85Zn86O256
_chemical_formula_sum   'V85 Zn86 O256'
_cell_volume   4841.07070699
_cell_formula_units_Z   1
loop_
 _symmetry_equiv_pos_site_id
 _symmetry_equiv_pos_as_xyz
  1  'x, y, z'
loop_
 _atom_site_type_symbol
 _atom_site_label
 _atom_site_symmetry_multiplicity
 _atom_site_fract_x
 _atom_site_fract_y
 _atom_site_fract_z
 _atom_site_occupancy
  V  V0  1  0.24682694  0.49931028  0.75075770  1
  V  V1  1  0.63043763  0.61965445  -0.00530535  1
  V  V2  1  0.12460264  0.88988360  0.24799659  1
  V  V3  1  0.75030087  0.24987169  0.00313698  1
  V  V4  1  0.37030868  0.24562595  0.12899951  1
  V  V5  1  0.24762384  0.24954500  0.49979129  1
  V  V6  1  0.62478162  0.12538523  0.49863655  1
  V  V7  1  0.25031123  0.75642438  0.50455741  1
  V  V8  1  0.46207069  0.89061135  0.34996541  1
  V  V9  1  0.13730517  -0.00019877  0.62421057  1
  V  V10  1  0.24142564  0.12670640  0.87638926  1
  V  V11  1  0.75367187  0.87346969  0.12255735  1
  V  V12  1  0.38237673  0.25201078  0.63263400  1
  V  V13  1  0.63226568  0.87146904  0.25845726  1
  V  V14  1  0.37565140  0.75313502  0.12002710  1
  V  V15  1  0.49798821  0.62671778  0.62927445  1
  V  V16  1  0.00007817  0.12739858  0.10593845  1
  V  V17  1  0.37375563  0.62682728  0.24708314  1
  V  V18  1  0.87760446  0.00186032  0.37643214  1
  V  V19  1  0.75382569  0.00160678  0.24875473  1
  V  V20  1  0.88568310  0.00284411  0.87859737  1
  V  V21  1  0.12216111  0.74966341  0.87200402  1
  V  V22  1  0.12592299  0.62156641  0.00066583  1
  V  V23  1  0.37537985  0.50026926  0.87101727  1
  V  V24  1  0.00163415  0.87672994  0.37580953  1
  V  V25  1  0.26315590  0.11525610  0.36280277  1
  V  V26  1  0.37508675  0.87685695  0.51365153  1
  V  V27  1  0.23689705  0.24807691  0.00065098  1
  V  V28  1  0.49759608  0.36811706  0.86782566  1
  V  V29  1  0.50002062  0.74926699  0.75281133  1
  V  V30  1  0.12650052  0.48320645  0.12722016  1
  V  V31  1  0.49447734  0.12077560  0.13262963  1
  V  V32  1  0.75593845  0.86843472  0.62875586  1
  V  V33  1  0.12626877  0.75202896  0.37378414  1
  V  V34  1  0.87809220  0.86878064  0.50645863  1
  V  V35  1  0.50431260  0.62161038  0.12338455  1
  V  V36  1  0.00199709  0.00423614  0.50552086  1
  V  V37  1  0.00051540  0.74998453  0.24890738  1
  V  V38  1  0.38474881  0.12589060  0.75423221  1
  V  V39  1  -0.00155622  0.49620970  -0.01248793  1
  V  V40  1  0.75385506  0.00003617  0.75256015  1
  V  V41  1  0.86912771  0.62892562  0.76411117  1
  V  V42  1  0.74357690  0.74534539  0.49833533  1
  V  V43  1  0.13162667  0.87349727  0.74429774  1
  V  V44  1  0.25158295  0.88144816  0.12331249  1
  V  V45  1  0.61926297  0.12283643  0.00061098  1
  V  V46  1  0.37311714  0.50237474  0.37420939  1
  V  V47  1  0.12078227  0.49808112  0.62828325  1
  V  V48  1  0.11955245  0.00342063  0.10330689  1
  V  V49  1  0.25190594  0.75359647  -0.00031177  1
  V  V50  1  0.00366409  0.37289370  0.36022293  1
  V  V51  1  -0.01095333  0.63098751  0.62369145  1
  V  V52  1  0.75183372  0.50070960  0.76467212  1
  V  V53  1  0.75101081  0.12646972  0.37354160  1
  V  V54  1  0.74416604  0.50252490  0.24088189  1
  V  V55  1  0.87332416  0.37405093  0.49852739  1
  V  V56  1  0.62139232  -0.00237205  0.12036668  1
  V  V57  1  0.50328316  0.51260765  0.49702238  1
  V  V58  1  0.00189268  0.62116600  0.12624333  1
  V  V59  1  0.49672347  -0.00247489  0.50023141  1
  V  V60  1  0.24757688  0.37628345  0.62868806  1
  V  V61  1  0.24961165  0.62873965  0.37329825  1
  V  V62  1  0.06561275  0.31384979  0.80506991  1
  V  V63  1  0.50021212  0.87629923  0.89075391  1
  V  V64  1  0.88373841  0.87775733  -0.00074718  1
  V  V65  1  0.25559537  0.62544419  0.87109041  1
  V  V66  1  0.36982369  0.37144360  0.00482444  1
  V  V67  1  0.24566542  0.48895416  0.24581963  1
  V  V68  1  0.12539914  0.25245739  0.35796531  1
  V  V69  1  0.62519431  0.00026179  0.62740030  1
  V  V70  1  0.87199975  0.50291280  0.37119388  1
  V  V71  1  0.75234357  0.74598175  -0.00808332  1
  V  V72  1  0.37855881  -0.00171133  0.89054432  1
  V  V73  1  0.62226032  0.24685829  0.86611493  1
  V  V74  1  0.88867620  0.13314529  0.25098966  1
  V  V75  1  0.87712142  0.37813527  -0.01177393  1
  V  V76  1  0.50351057  0.49655090  0.00259700  1
  V  V77  1  0.62860922  0.50447519  0.62194935  1
  V  V78  1  0.37661083  0.37770215  0.50007551  1
  V  V79  1  0.00046832  0.49916351  0.49799697  1
  V  V80  1  0.36851753  0.74642387  0.63552317  1
  V  V81  1  0.62070830  0.37676582  0.23794602  1
  V  V82  1  0.88184023  0.13038045  0.75057574  1
  V  V83  1  0.62223323  0.25298195  0.37331517  1
  V  V84  1  0.87958628  0.25224936  0.62735687  1
  Zn  Zn85  1  0.88153378  0.25677743  0.12954428  1
  Zn  Zn86  1  0.25755193  -0.00334692  0.74697147  1
  Zn  Zn87  1  0.62775918  0.74735757  0.87291048  1
  Zn  Zn88  1  0.49997654  0.37748358  0.37215231  1
  Zn  Zn89  1  0.75024064  0.12408980  0.87681396  1
  Zn  Zn90  1  0.75014046  0.37836449  0.12216339  1
  Zn  Zn91  1  0.00550568  0.87910369  0.87647783  1
  Zn  Zn92  1  0.87679444  0.74860398  0.12407477  1
  Zn  Zn93  1  0.00915331  0.13227080  0.62963332  1
  Zn  Zn94  1  0.74904339  0.37691419  0.62560697  1
  Zn  Zn95  1  0.12979431  0.12617560  0.49944178  1
  Zn  Zn96  1  0.73439580  0.62372423  0.37475262  1
  Zn  Zn97  1  0.12395824  0.62671906  0.50146835  1
  Zn  Zn98  1  0.62501765  0.87423014  0.75413376  1
  Zn  Zn99  1  0.50438560  0.13065967  0.62944394  1
  Zn  Zn100  1  0.49336378  0.24748011  0.25241835  1
  Zn  Zn101  1  0.74890883  0.25086020  0.50106990  1
  Zn  Zn102  1  0.50452375  0.74824626  0.24858935  1
  Zn  Zn103  1  0.62295774  0.37321239  0.74664418  1
  Zn  Zn104  1  -0.00669587  0.75500105  0.74536285  1
  Zn  Zn105  1  0.61124724  0.74860869  0.38109854  1
  Zn  Zn106  1  0.87121772  0.62666772  0.25004869  1
  Zn  Zn107  1  0.18674646  0.18070871  0.18405479  1
  Zn  Zn108  1  0.19304145  0.18588804  0.69026496  1
  Zn  Zn109  1  0.18517824  0.68765931  0.18768172  1
  Zn  Zn110  1  0.18451625  0.68136231  0.68842045  1
  Zn  Zn111  1  0.68760584  0.18790258  0.18823681  1
  Zn  Zn112  1  0.69608027  0.18671342  0.68560866  1
  Zn  Zn113  1  0.68742151  0.68668606  0.18437479  1
  Zn  Zn114  1  0.68598929  0.68590858  0.68735046  1
  Zn  Zn115  1  0.31117607  0.31040754  0.31435316  1
  Zn  Zn116  1  0.30618020  0.31187818  0.81403418  1
  Zn  Zn117  1  0.31292460  0.82368336  0.30603112  1
  Zn  Zn118  1  0.31466662  0.81665846  0.81430413  1
  Zn  Zn119  1  0.80876201  0.31512029  0.31125709  1
  Zn  Zn120  1  0.80895854  0.31226161  0.81212509  1
  Zn  Zn121  1  0.81521762  0.81185843  0.31588687  1
  Zn  Zn122  1  0.81640884  0.81274716  0.81369371  1
  Zn  Zn123  1  0.18616942  0.43714768  0.43708091  1
  Zn  Zn124  1  0.18363475  0.43241618  0.93731044  1
  Zn  Zn125  1  0.19148418  0.93808241  0.43909862  1
  Zn  Zn126  1  0.19279195  0.93593120  0.93253355  1
  Zn  Zn127  1  0.68634738  0.43925446  0.43397293  1
  Zn  Zn128  1  0.68441912  0.43288885  0.93844454  1
  Zn  Zn129  1  0.69096593  0.93869244  0.44137594  1
  Zn  Zn130  1  0.68973195  0.93572521  0.93764244  1
  Zn  Zn131  1  0.30787204  0.06535004  0.06407832  1
  Zn  Zn132  1  0.31570560  0.06880638  0.56095010  1
  Zn  Zn133  1  0.31249970  0.56121287  0.06142982  1
  Zn  Zn134  1  0.31288798  0.56749130  0.56316027  1
  Zn  Zn135  1  0.81323555  0.06429505  0.06189256  1
  Zn  Zn136  1  0.81383360  0.06328122  0.56468979  1
  Zn  Zn137  1  0.81634432  0.56096216  0.06076866  1
  Zn  Zn138  1  0.81308774  0.56137832  0.56299243  1
  Zn  Zn139  1  0.43430288  0.43588844  0.18660972  1
  Zn  Zn140  1  0.43638592  0.44100456  0.68829338  1
  Zn  Zn141  1  0.43913487  0.93275970  0.17831469  1
  Zn  Zn142  1  0.43886763  0.93691830  0.69285390  1
  Zn  Zn143  1  0.93302409  0.43804082  0.18134919  1
  Zn  Zn144  1  0.93456835  0.43907067  0.69164606  1
  Zn  Zn145  1  0.94023694  0.94287867  0.18555399  1
  Zn  Zn146  1  0.94370922  0.93879944  0.68967014  1
  Zn  Zn147  1  0.06729318  0.06808335  0.31633656  1
  Zn  Zn148  1  0.06389246  0.06233087  0.80880416  1
  Zn  Zn149  1  0.06399706  0.56096449  0.31154972  1
  Zn  Zn150  1  0.06263354  0.56416967  0.80758427  1
  Zn  Zn151  1  0.56298321  0.05921000  0.31112322  1
  Zn  Zn152  1  0.56104836  0.05934660  0.81440258  1
  Zn  Zn153  1  0.56419222  0.56498893  0.31271736  1
  Zn  Zn154  1  0.56297990  0.56250609  0.81205730  1
  Zn  Zn155  1  0.43676086  0.18687537  0.43948154  1
  Zn  Zn156  1  0.43755633  0.18579566  0.94253871  1
  Zn  Zn157  1  0.43725367  0.69722344  0.43598195  1
  Zn  Zn158  1  0.43845022  0.68688083  0.93824785  1
  Zn  Zn159  1  0.94176936  0.19082154  0.43792846  1
  Zn  Zn160  1  0.93855530  0.19693965  0.92998954  1
  Zn  Zn161  1  0.93423669  0.68775879  0.43789151  1
  Zn  Zn162  1  0.93904843  0.68717382  0.93937325  1
  Zn  Zn163  1  0.05685226  0.31048253  0.05953647  1
  Zn  Zn164  1  0.06118460  0.31580308  0.56276312  1
  Zn  Zn165  1  0.06477197  0.81119463  0.06243112  1
  Zn  Zn166  1  0.06595447  0.81364967  0.56408709  1
  Zn  Zn167  1  0.55774807  0.30691134  0.05976306  1
  Zn  Zn168  1  0.56214519  0.31860402  0.56017129  1
  Zn  Zn169  1  0.56778966  0.80766543  0.06463812  1
  Zn  Zn170  1  0.56231036  0.81616859  0.56697285  1
  O  O171  1  0.11390642  0.11226087  0.12306936  1
  O  O172  1  0.12647711  0.11691746  0.62191258  1
  O  O173  1  0.11533213  0.62198412  0.11984917  1
  O  O174  1  0.11317810  0.61446164  0.62343672  1
  O  O175  1  0.62009658  0.11612179  0.12094746  1
  O  O176  1  0.62737498  0.11556083  0.61976115  1
  O  O177  1  0.61018611  0.62914412  0.11537548  1
  O  O178  1  0.61163216  0.61652022  0.62615978  1
  O  O179  1  0.37555066  0.38186496  0.38376837  1
  O  O180  1  0.37959870  0.37891394  0.88340970  1
  O  O181  1  0.36913621  0.85991731  0.40524478  1
  O  O182  1  0.38444218  0.88806150  0.87502845  1
  O  O183  1  0.88026391  0.38335878  0.37871546  1
  O  O184  1  0.86948264  0.37326979  0.88882003  1
  O  O185  1  0.88270826  0.88255006  0.38350655  1
  O  O186  1  0.87892563  0.88324744  0.88182810  1
  O  O187  1  0.24791499  0.01627585  0.38008934  1
  O  O188  1  0.26370745  0.00807237  0.87576295  1
  O  O189  1  0.25297088  0.51037484  0.36998570  1
  O  O190  1  0.25426921  0.50565715  0.87101050  1
  O  O191  1  0.75797084  0.00596197  0.37066121  1
  O  O192  1  0.75598835  -0.00138125  0.86339581  1
  O  O193  1  0.75672736  0.50290214  0.36608099  1
  O  O194  1  0.74311728  0.50109118  0.86297271  1
  O  O195  1  0.23972742  0.50693867  0.13340366  1
  O  O196  1  0.24351237  0.50103670  0.63215893  1
  O  O197  1  0.23501575  0.99364235  0.11831442  1
  O  O198  1  0.24138172  1.00402263  0.62360696  1
  O  O199  1  0.75175442  0.50078736  0.13713818  1
  O  O200  1  0.73966291  0.50071700  0.62721634  1
  O  O201  1  0.74607189  0.99014592  0.12854758  1
  O  O202  1  0.74668179  0.99252554  0.63451136  1
  O  O203  1  -0.00552582  0.37984755  0.26136359  1
  O  O204  1  0.00426674  0.37665914  0.75181918  1
  O  O205  1  0.00561806  0.86967833  0.25355684  1
  O  O206  1  0.01269647  0.87164320  0.75385324  1
  O  O207  1  0.50627923  0.37347777  0.25156104  1
  O  O208  1  0.50095601  0.38150116  0.76406631  1
  O  O209  1  0.51944886  0.87379022  0.24840564  1
  O  O210  1  0.50215482  0.86353445  0.75833080  1
  O  O211  1  0.50385491  0.12536387  0.23770516  1
  O  O212  1  0.49016906  0.12345359  0.74934745  1
  O  O213  1  0.49267917  0.62497244  0.23933968  1
  O  O214  1  0.50110533  0.63819104  0.74580414  1
  O  O215  1  0.99097435  0.12020182  0.24671468  1
  O  O216  1  0.98620487  0.11941543  0.74675242  1
  O  O217  1  1.00042314  0.63284920  0.24371265  1
  O  O218  1  0.98702281  0.62394725  0.74021840  1
  O  O219  1  0.36931009  0.25512776  0.00809855  1
  O  O220  1  0.36744623  0.26023762  0.50465428  1
  O  O221  1  0.36565675  0.74329598  0.01061168  1
  O  O222  1  0.36954811  0.75354058  0.51655604  1
  O  O223  1  0.86749836  0.25912757  -0.00005388  1
  O  O224  1  0.87232767  0.25843081  0.50254691  1
  O  O225  1  0.86951535  0.75645868  0.00198995  1
  O  O226  1  0.86848849  0.76379743  0.49830820  1
  O  O227  1  0.13975032  0.25278622  0.50148090  1
  O  O228  1  0.13824125  0.25183486  1.00227360  1
  O  O229  1  0.13342288  0.74913839  0.49408945  1
  O  O230  1  0.13177604  0.74320581  0.99233459  1
  O  O231  1  0.62516843  0.24539299  0.49273546  1
  O  O232  1  0.63055869  0.24221071  0.99292755  1
  O  O233  1  0.63995982  0.76213264  0.49927388  1
  O  O234  1  0.63493613  0.74025790  0.99927190  1
  O  O235  1  0.48977751  0.23931343  0.12575334  1
  O  O236  1  0.48652457  0.25142496  0.61792157  1
  O  O237  1  0.49131710  0.74290094  0.12418256  1
  O  O238  1  0.49509889  0.74519487  0.63276306  1
  O  O239  1  1.00056826  0.23224316  0.12285358  1
  O  O240  1  0.98532030  0.24845402  0.61580805  1
  O  O241  1  1.00150894  0.74248644  0.13280319  1
  O  O242  1  1.00585649  0.73416303  0.62526480  1
  O  O243  1  0.01639709  0.25737306  0.37838832  1
  O  O244  1  0.00976372  0.25103741  0.86427834  1
  O  O245  1  0.00507865  0.75608832  0.36993459  1
  O  O246  1  0.01399569  0.74774864  0.87329350  1
  O  O247  1  0.50996270  0.25070567  0.37380295  1
  O  O248  1  0.50788759  0.25716005  0.88201912  1
  O  O249  1  0.49310845  0.77499176  0.36736039  1
  O  O250  1  0.49664568  0.76040472  0.87062051  1
  O  O251  1  0.25207700  0.13672935  0.49162455  1
  O  O252  1  0.25354789  0.13428733  0.98644705  1
  O  O253  1  0.25118232  0.63534873  0.48784699  1
  O  O254  1  0.24422428  0.63324197  0.99417443  1
  O  O255  1  0.74278238  0.12345773  0.49204009  1
  O  O256  1  0.73981721  0.13155236  0.99957857  1
  O  O257  1  0.75670821  0.64332900  0.50305493  1
  O  O258  1  0.74243309  0.63204392  1.00833152  1
  O  O259  1  0.25744778  0.35858513  -0.00761543  1
  O  O260  1  0.26055900  0.37319340  0.50549661  1
  O  O261  1  0.24315554  0.86176642  0.00800919  1
  O  O262  1  0.25331950  0.86278934  0.50428119  1
  O  O263  1  0.75704075  0.36935652  0.00158469  1
  O  O264  1  0.76310000  0.37695696  0.49770852  1
  O  O265  1  0.75829719  0.86753903  0.00639581  1
  O  O266  1  0.75957563  0.87055608  0.50841120  1
  O  O267  1  0.13360633  0.50494698  0.23951845  1
  O  O268  1  0.13400893  0.50449218  0.74029471  1
  O  O269  1  0.11937826  0.99141822  0.24586334  1
  O  O270  1  0.12976162  0.99290504  0.74121051  1
  O  O271  1  0.63128631  0.48910643  0.25401826  1
  O  O272  1  0.63651063  0.50335184  0.74282293  1
  O  O273  1  0.63423673  0.99313254  0.23981335  1
  O  O274  1  0.63391587  0.99961654  0.74395383  1
  O  O275  1  0.38723647  -0.07564468  0.28032976  1
  O  O276  1  0.37509454  0.00813090  0.75822863  1
  O  O277  1  0.36741858  0.50802862  0.25387653  1
  O  O278  1  0.36987002  0.49908865  0.76506144  1
  O  O279  1  0.87175314  0.00721430  0.25672440  1
  O  O280  1  0.86991285  0.00488750  0.75667258  1
  O  O281  1  0.86532277  0.50056580  0.25623512  1
  O  O282  1  0.85920338  0.51032950  0.74607260  1
  O  O283  1  0.11881868  0.36284271  0.37797352  1
  O  O284  1  0.12834147  0.36971194  0.86405016  1
  O  O285  1  0.12193693  0.87199892  0.36679938  1
  O  O286  1  0.12510041  0.86568948  0.86988349  1
  O  O287  1  0.62231746  0.36666220  0.36765998  1
  O  O288  1  0.61527728  0.36460277  0.87368788  1
  O  O289  1  0.63654858  0.87436451  0.36216218  1
  O  O290  1  0.61177173  0.87436053  0.87575694  1
  O  O291  1  0.38306561  0.13013083  0.12102287  1
  O  O292  1  0.37723806  0.13466089  0.63541917  1
  O  O293  1  0.38300968  0.63085631  0.12633881  1
  O  O294  1  0.38735806  0.63197425  0.62571218  1
  O  O295  1  0.88822239  0.12211048  0.13158052  1
  O  O296  1  0.87616285  0.13344407  0.63214703  1
  O  O297  1  0.88980710  0.62584551  0.12683498  1
  O  O298  1  0.88668348  0.62125767  0.63047426  1
  O  O299  1  0.25515102  0.23764515  0.10929053  1
  O  O300  1  0.26114259  0.25518701  0.61773017  1
  O  O301  1  0.25343044  0.75439406  0.11679321  1
  O  O302  1  0.25727598  0.73744052  0.61740283  1
  O  O303  1  0.75049157  0.24894056  0.11181281  1
  O  O304  1  0.76136108  0.25571801  0.62008688  1
  O  O305  1  0.75334902  0.76062780  0.11780384  1
  O  O306  1  0.74506320  0.76196268  0.61676261  1
  O  O307  1  0.24052046  0.24765100  0.38123247  1
  O  O308  1  0.25650900  0.23548638  0.88539521  1
  O  O309  1  0.24634621  0.74673605  0.37912209  1
  O  O310  1  0.24624071  0.74421498  0.88052736  1
  O  O311  1  0.73819520  0.24451744  0.37604118  1
  O  O312  1  0.74046274  0.24801800  0.88587935  1
  O  O313  1  0.75230409  0.75003402  0.39034590  1
  O  O314  1  0.74824466  0.75553650  0.88809617  1
  O  O315  1  -0.00857411  0.12476779  0.00779799  1
  O  O316  1  0.00253621  0.11302312  0.50041571  1
  O  O317  1  0.00555680  0.61835227  0.00741456  1
  O  O318  1  -0.00227092  0.62013979  0.50979783  1
  O  O319  1  0.51358910  0.12734244  0.01142918  1
  O  O320  1  0.50630799  0.11523798  0.50231805  1
  O  O321  1  0.50453950  0.61589817  0.00452807  1
  O  O322  1  0.49177734  0.61762740  0.50674203  1
  O  O323  1  0.48790063  0.38790127  0.49950615  1
  O  O324  1  0.49331292  0.38070521  0.99189603  1
  O  O325  1  0.49142202  0.88263999  0.50086378  1
  O  O326  1  0.50166352  0.86801147  0.98962924  1
  O  O327  1  0.98935173  0.38099951  0.49127432  1
  O  O328  1  0.98674703  0.38094452  1.00071061  1
  O  O329  1  0.99512120  0.88267431  0.49821850  1
  O  O330  1  0.98755763  0.86947985  0.99925461  1
  O  O331  1  0.49082488  0.50125496  0.38261943  1
  O  O332  1  0.49215545  0.49506889  0.88314558  1
  O  O333  1  0.50521959  0.98581029  0.38335178  1
  O  O334  1  0.49175829  0.98713685  0.87547368  1
  O  O335  1  0.99472264  0.49418467  0.37866643  1
  O  O336  1  1.00806291  0.50673298  0.88892756  1
  O  O337  1  0.99888268  0.99526041  0.38409755  1
  O  O338  1  0.98938167  1.00013635  0.87317292  1
  O  O339  1  0.01163575  0.00877650  0.12273294  1
  O  O340  1  0.01065834  0.00295633  0.61786980  1
  O  O341  1  0.00812298  0.50612133  0.11923187  1
  O  O342  1  0.00413991  0.50744960  0.61992529  1
  O  O343  1  0.50957642  0.00446633  0.12640003  1
  O  O344  1  0.51058991  0.00060678  0.62024738  1
  O  O345  1  0.49036463  0.50690508  0.11088070  1
  O  O346  1  0.50360811  0.50894043  0.62022600  1
  O  O347  1  0.25302017  0.39036654  0.25517360  1
  O  O348  1  0.25755051  0.39006535  0.74362614  1
  O  O349  1  0.23542272  0.86743868  0.23168890  1
  O  O350  1  0.23759963  0.87781288  0.75581044  1
  O  O351  1  0.73973574  0.38288917  0.24667789  1
  O  O352  1  0.74754492  0.38975875  0.74846188  1
  O  O353  1  0.75104136  0.87869727  0.24140627  1
  O  O354  1  0.75040559  0.88032693  0.74401745  1
  O  O355  1  0.24827559  0.12560385  0.26309737  1
  O  O356  1  0.26315206  0.12354873  0.76337482  1
  O  O357  1  0.25372550  0.62382500  0.25975890  1
  O  O358  1  0.24966859  0.61360249  0.75944321  1
  O  O359  1  0.75703212  0.11852559  0.25439233  1
  O  O360  1  0.76097591  0.11499448  0.75158221  1
  O  O361  1  0.75093233  0.61865490  0.25194005  1
  O  O362  1  0.76098301  0.61804245  0.74625721  1
  O  O363  1  0.36308165  0.13075133  0.37350540  1
  O  O364  1  0.37612763  0.11403635  0.87264766  1
  O  O365  1  0.36842373  0.62496531  0.36902352  1
  O  O366  1  0.36319943  0.61665280  0.88298163  1
  O  O367  1  0.87329538  0.12196710  0.36899578  1
  O  O368  1  0.87170811  0.11988525  0.86915060  1
  O  O369  1  0.87472957  0.61178802  0.37358892  1
  O  O370  1  0.87875521  0.62384418  0.86273742  1
  O  O371  1  0.12079070  0.38411677  0.12220245  1
  O  O372  1  0.13199259  0.39050194  0.61617696  1
  O  O373  1  0.12617465  0.88707589  0.12777901  1
  O  O374  1  0.12359654  0.88369819  0.63305608  1
  O  O375  1  0.62423832  0.36854035  0.13456636  1
  O  O376  1  0.62416609  0.38800687  0.62818767  1
  O  O377  1  0.63471715  0.88003862  0.12985049  1
  O  O378  1  0.63472273  0.88730848  0.62758225  1
  O  O379  1  0.12956195  0.25122167  0.25958293  1
  O  O380  1  0.12335398  0.25851694  0.73978390  1
  O  O381  1  0.11462567  0.75859468  0.25292764  1
  O  O382  1  0.12482700  0.75414236  0.75656870  1
  O  O383  1  0.62291858  0.25789782  0.25673120  1
  O  O384  1  0.63220392  0.24830857  0.76229666  1
  O  O385  1  0.62582587  0.75948494  0.24992088  1
  O  O386  1  0.61730786  0.75221322  0.75355233  1
  O  O387  1  0.37299097  0.25869138  0.23317369  1
  O  O388  1  0.37071597  0.24343273  0.74309683  1
  O  O389  1  0.37373296  0.74466394  0.23523260  1
  O  O390  1  0.37965245  0.75335722  0.74186344  1
  O  O391  1  0.86776339  0.23838081  0.24764215  1
  O  O392  1  0.86717828  0.24197918  0.74140130  1
  O  O393  1  0.88826459  0.74994573  0.24941713  1
  O  O394  1  0.87496168  0.73542888  0.75134686  1
  O  O395  1  0.37860991  0.49604760  0.49537561  1
  O  O396  1  0.37716781  0.49124588  0.99059735  1
  O  O397  1  0.38767804  0.99267827  0.51034424  1
  O  O398  1  0.37500754  1.00307475  0.98906857  1
  O  O399  1  0.87949749  0.49426706  0.49183036  1
  O  O400  1  0.88307789  0.48851311  1.00085342  1
  O  O401  1  0.88301386  0.99288781  0.49728982  1
  O  O402  1  0.86573380  0.99089212  0.98924678  1
  O  O403  1  0.12212776  -0.00473359  0.00509370  1
  O  O404  1  0.11845622  -0.00083474  0.50720190  1
  O  O405  1  0.12152298  0.50319279  0.00783643  1
  O  O406  1  0.11775576  0.50473350  0.50469976  1
  O  O407  1  0.63330105  0.00602927  0.01240921  1
  O  O408  1  0.61775452  0.00272057  0.50732652  1
  O  O409  1  0.61471070  0.50425333  -0.00193925  1
  O  O410  1  0.61336679  0.49571176  0.50672715  1
  O  O411  1  0.37742062  0.36804306  0.11062109  1
  O  O412  1  0.36984443  0.37237450  0.61974651  1
  O  O413  1  0.36301578  0.86745180  0.12038565  1
  O  O414  1  0.37723776  0.86505983  0.62148354  1
  O  O415  1  0.87056194  0.37206626  0.11305912  1
  O  O416  1  0.87417089  0.37115626  0.61581159  1
  O  O417  1  0.86933062  0.87645538  0.11835619  1
  O  O418  1  0.86853771  0.88147227  0.61875461  1
  O  O419  1  0.13156680  0.14040518  0.37910224  1
  O  O420  1  0.14305138  0.11722469  0.87021063  1
  O  O421  1  0.13271213  0.63308750  0.37595721  1
  O  O422  1  0.13617312  0.63110529  0.87776263  1
  O  O423  1  0.62907164  0.13077473  0.37821768  1
  O  O424  1  0.62448181  0.12822006  0.88341985  1
  O  O425  1  0.62050483  0.63514056  0.37760379  1
  O  O426  1  0.61803721  0.62787144  0.89050090  1
