# generated using pymatgen
data_V85Zn86O256
_symmetry_space_group_name_H-M   'P 1'
_cell_length_a   16.91729665
_cell_length_b   16.92112937
_cell_length_c   16.92099569
_cell_angle_alpha   90.02131442
_cell_angle_beta   89.99767712
_cell_angle_gamma   90.02391284
_symmetry_Int_Tables_number   1
_chemical_formula_structural   V85Zn86O256
_chemical_formula_sum   'V85 Zn86 O256'
_cell_volume   4843.79949217
_cell_formula_units_Z   1
loop_
 _symmetry_equiv_pos_site_id
 _symmetry_equiv_pos_as_xyz
  1  'x, y, z'
loop_
 _atom_site_type_symbol
 _atom_site_label
 _atom_site_symmetry_multiplicity
 _atom_site_fract_x
 _atom_site_fract_y
 _atom_site_fract_z
 _atom_site_occupancy
  V  V0  1  0.87510594  0.74725290  0.62059156  1
  V  V1  1  0.49921218  0.85721589  0.37436317  1
  V  V2  1  0.82148494  0.42899145  0.44762941  1
  V  V3  1  0.50243096  0.62117882  0.62248335  1
  V  V4  1  0.37441218  0.12512881  0.74987971  1
  V  V5  1  0.86686440  0.25371282  0.12583784  1
  V  V6  1  0.49359736  0.50037183  -0.00005429  1
  V  V7  1  0.24743526  0.24435023  0.50057476  1
  V  V8  1  0.50217924  0.87661297  0.87462491  1
  V  V9  1  0.24807030  0.75329632  0.00139759  1
  V  V10  1  0.00795323  0.36928204  0.87483876  1
  V  V11  1  0.24117840  0.74310889  0.50165601  1
  V  V12  1  0.00591885  0.87674453  0.36864872  1
  V  V13  1  0.38905595  0.38039321  0.49609062  1
  V  V14  1  0.00234507  0.12502370  0.61869337  1
  V  V15  1  0.62912570  0.74897271  0.87463357  1
  V  V16  1  0.00473026  0.24268765  0.75316118  1
  V  V17  1  0.50074418  -0.00351485  0.49942534  1
  V  V18  1  0.37894598  0.75402154  0.12825853  1
  V  V19  1  0.62826963  0.12665098  0.00147436  1
  V  V20  1  0.63779750  0.61350401  0.00662830  1
  V  V21  1  0.86365897  0.61026797  0.25807808  1
  V  V22  1  0.00209166  0.37817194  0.38151445  1
  V  V23  1  0.49597650  0.26222803  0.25580144  1
  V  V24  1  0.37332773  0.00190701  0.87547292  1
  V  V25  1  0.24580849  0.38233278  0.12291659  1
  V  V26  1  0.50283149  0.74933373  0.75151200  1
  V  V27  1  0.24242010  0.11945903  0.37702548  1
  V  V28  1  0.12730516  -0.00193371  0.61307776  1
  V  V29  1  0.75423891  0.24104565  0.49677924  1
  V  V30  1  0.24631566  0.88019820  0.13959505  1
  V  V31  1  0.63055231  0.37950563  0.75689879  1
  V  V32  1  0.88090421  0.61863041  0.74802947  1
  V  V33  1  0.24455944  0.25479694  -0.00257715  1
  V  V34  1  0.37651527  0.74853572  0.62500317  1
  V  V35  1  0.50088039  0.12354433  0.62341451  1
  V  V36  1  0.37448090  0.62580124  0.25292755  1
  V  V37  1  0.64061267  0.62563012  0.49762491  1
  V  V38  1  0.63144577  -0.00019959  0.63092512  1
  V  V39  1  -0.00180782  0.00257603  -0.00051026  1
  V  V40  1  0.64300952  0.74725559  0.38072456  1
  V  V41  1  0.00361259  0.62141106  0.12796030  1
  V  V42  1  0.00792339  0.87753294  0.87017677  1
  V  V43  1  0.50280346  0.63078946  0.12787892  1
  V  V44  1  0.23842772  -0.00553861  0.75261637  1
  V  V45  1  0.87149429  0.00523747  0.37884414  1
  V  V46  1  0.62293529  0.24401454  0.37660649  1
  V  V47  1  -0.00099717  0.12772517  0.12654480  1
  V  V48  1  0.37164929  0.49205326  0.87518049  1
  V  V49  1  0.00151517  0.49755795  0.00213698  1
  V  V50  1  0.24174380  0.49932816  0.74461639  1
  V  V51  1  0.74511930  0.00115164  0.25750932  1
  V  V52  1  0.00916249  0.75324847  0.74634054  1
  V  V53  1  0.49874801  0.37245767  0.87885882  1
  V  V54  1  0.37223183  -0.00374110  0.37026701  1
  V  V55  1  0.75800490  0.37866838  0.63231020  1
  V  V56  1  0.87180344  0.86952740  0.49561444  1
  V  V57  1  0.12526909  0.62140982  0.00212700  1
  V  V58  1  0.12589678  -0.00189080  0.13745635  1
  V  V59  1  0.25090760  0.62562901  0.87662526  1
  V  V60  1  0.75263810  0.75326994  -0.00437504  1
  V  V61  1  0.49784109  0.12707848  0.12623688  1
  V  V62  1  0.86846175  0.12595013  0.25356592  1
  V  V63  1  0.87637764  0.87759176  -0.00086502  1
  V  V64  1  0.87636639  0.74883789  0.12682656  1
  V  V65  1  0.87012624  0.37514957  0.00150570  1
  V  V66  1  0.24669544  0.37565844  0.62064509  1
  V  V67  1  0.23926237  0.13028484  0.87433780  1
  V  V68  1  0.12342352  0.38013004  0.24881031  1
  V  V69  1  0.37345216  0.87707376  0.00054595  1
  V  V70  1  0.12292026  0.74297671  0.36935207  1
  V  V71  1  0.37389490  0.86747276  0.50299433  1
  V  V72  1  0.37758618  0.62296117  0.75052137  1
  V  V73  1  0.36807676  0.12302085  0.24901378  1
  V  V74  1  0.75497450  0.61769875  0.86770516  1
  V  V75  1  0.62543089  0.49909052  0.62720335  1
  V  V76  1  0.37290394  0.25881344  0.12032797  1
  V  V77  1  0.75144310  0.12335576  0.86004167  1
  V  V78  1  0.75446793  0.87613398  0.62929471  1
  V  V79  1  0.62346627  -0.00049760  0.12764676  1
  V  V80  1  0.02211720  0.50145078  0.50490083  1
  V  V81  1  0.63874249  0.37875927  0.25035766  1
  V  V82  1  0.87538006  0.24488818  0.62874194  1
  V  V83  1  0.62109841  0.86653910  0.25113985  1
  V  V84  1  0.87169544  0.00227798  0.85853717  1
  Zn  Zn85  1  0.87536805  0.49403511  0.86885981  1
  Zn  Zn86  1  0.24244582  0.87037850  0.63112860  1
  Zn  Zn87  1  0.63625553  0.87744715  0.75327819  1
  Zn  Zn88  1  0.01491292  0.62273306  0.62061655  1
  Zn  Zn89  1  0.75004538  0.87628465  0.12572605  1
  Zn  Zn90  1  0.62869480  0.12003627  0.49417072  1
  Zn  Zn91  1  0.38121090  0.48779523  0.37340844  1
  Zn  Zn92  1  0.74785236  0.25130892  0.00114771  1
  Zn  Zn93  1  -0.00024533  0.25142586  0.25529645  1
  Zn  Zn94  1  0.00148001  0.75126352  0.24769169  1
  Zn  Zn95  1  0.62668296  0.25163067  0.87669069  1
  Zn  Zn96  1  0.12193016  0.12851768  -0.00047143  1
  Zn  Zn97  1  0.24731104  0.50255964  0.24919515  1
  Zn  Zn98  1  0.50081808  0.25003896  0.75201873  1
  Zn  Zn99  1  0.12722900  0.75551776  0.87383781  1
  Zn  Zn100  1  0.37647838  0.24959564  0.62313972  1
  Zn  Zn101  1  0.00330489  0.00440053  0.49492778  1
  Zn  Zn102  1  0.63098257  0.49915315  0.13892544  1
  Zn  Zn103  1  0.12631423  0.37085464  0.74921143  1
  Zn  Zn104  1  0.12264332  0.24567214  0.37692705  1
  Zn  Zn105  1  0.24641582  0.61782902  0.37673467  1
  Zn  Zn106  1  0.49994383  0.00183294  0.00058391  1
  Zn  Zn107  1  0.18536834  0.19226972  0.18975307  1
  Zn  Zn108  1  0.18509608  0.18546980  0.68419615  1
  Zn  Zn109  1  0.18723109  0.69082239  0.18844195  1
  Zn  Zn110  1  0.18860045  0.69036356  0.69154876  1
  Zn  Zn111  1  0.68581882  0.18867668  0.19067629  1
  Zn  Zn112  1  0.68322263  0.19363791  0.68586018  1
  Zn  Zn113  1  0.69106018  0.69003014  0.18898878  1
  Zn  Zn114  1  0.69254302  0.68955612  0.68719712  1
  Zn  Zn115  1  0.31045997  0.31135878  0.31432721  1
  Zn  Zn116  1  0.31243136  0.31121296  0.81097260  1
  Zn  Zn117  1  0.31267502  0.80431903  0.31501090  1
  Zn  Zn118  1  0.31392823  0.81293316  0.81325551  1
  Zn  Zn119  1  0.81056840  0.30799208  0.31285784  1
  Zn  Zn120  1  0.81717720  0.30821691  0.81356407  1
  Zn  Zn121  1  0.81591898  0.81461849  0.30806994  1
  Zn  Zn122  1  0.82209065  0.81141604  0.80866798  1
  Zn  Zn123  1  0.19749763  0.43137812  0.42926068  1
  Zn  Zn124  1  0.18660068  0.43697258  0.93944743  1
  Zn  Zn125  1  0.19053859  0.93069457  0.43556192  1
  Zn  Zn126  1  0.18568570  0.94306791  0.94438620  1
  Zn  Zn127  1  0.65197188  0.43513922  0.43808850  1
  Zn  Zn128  1  0.68986634  0.44499421  0.95110470  1
  Zn  Zn129  1  0.68878672  0.93382242  0.44159117  1
  Zn  Zn130  1  0.68835009  0.94221008  0.93723641  1
  Zn  Zn131  1  0.30936031  0.06450492  0.06220419  1
  Zn  Zn132  1  0.31262925  0.05872861  0.56096367  1
  Zn  Zn133  1  0.31424062  0.56446615  0.06473244  1
  Zn  Zn134  1  0.19748343  0.56413029  0.56402879  1
  Zn  Zn135  1  0.81047400  0.06281746  0.06422650  1
  Zn  Zn136  1  0.81505829  0.06311615  0.56635126  1
  Zn  Zn137  1  0.81449091  0.56296697  0.06315322  1
  Zn  Zn138  1  0.81337408  0.56264349  0.57186356  1
  Zn  Zn139  1  0.43740128  0.44176630  0.18436742  1
  Zn  Zn140  1  0.43544866  0.43576190  0.68603216  1
  Zn  Zn141  1  0.43872519  0.93694916  0.19010488  1
  Zn  Zn142  1  0.43697223  0.93912423  0.68929697  1
  Zn  Zn143  1  0.93963390  0.43675647  0.18761097  1
  Zn  Zn144  1  0.94347200  0.43460622  0.68386135  1
  Zn  Zn145  1  0.93592413  0.93883975  0.18838813  1
  Zn  Zn146  1  0.94279098  0.93657946  0.68346725  1
  Zn  Zn147  1  0.05779973  0.06219606  0.31085674  1
  Zn  Zn148  1  0.05919831  0.06403194  0.80715346  1
  Zn  Zn149  1  0.05690940  0.55956783  0.31314372  1
  Zn  Zn150  1  0.06217894  0.56371910  0.81545906  1
  Zn  Zn151  1  0.55527721  0.06367114  0.31332195  1
  Zn  Zn152  1  0.56446419  0.06207849  0.81188861  1
  Zn  Zn153  1  0.56004265  0.56198853  0.31498427  1
  Zn  Zn154  1  0.56591758  0.55979206  0.81608109  1
  Zn  Zn155  1  0.43356965  0.18818167  0.43808105  1
  Zn  Zn156  1  0.43529674  0.18893448  0.93953804  1
  Zn  Zn157  1  0.45322591  0.65595674  0.42470521  1
  Zn  Zn158  1  0.43852057  0.68651054  0.94080625  1
  Zn  Zn159  1  0.93618696  0.19119473  0.44188087  1
  Zn  Zn160  1  0.93319968  0.18749340  0.93579086  1
  Zn  Zn161  1  0.93833834  0.68160767  0.43591956  1
  Zn  Zn162  1  0.93954644  0.68865687  0.93556970  1
  Zn  Zn163  1  0.06281460  0.31119769  0.06454347  1
  Zn  Zn164  1  0.06584313  0.31194327  0.56036690  1
  Zn  Zn165  1  0.06364699  0.81322360  0.06262277  1
  Zn  Zn166  1  0.05996791  0.81646791  0.55791398  1
  Zn  Zn167  1  0.56312051  0.31497780  0.06529289  1
  Zn  Zn168  1  0.56636098  0.30900826  0.56672317  1
  Zn  Zn169  1  0.56522800  0.81136561  0.05964798  1
  Zn  Zn170  1  0.56679251  0.80877925  0.56186443  1
  O  O171  1  0.11490993  0.11945627  0.12644339  1
  O  O172  1  0.11778029  0.10951580  0.62808685  1
  O  O173  1  0.11184049  0.63252427  0.11833752  1
  O  O174  1  0.12777748  0.62531306  0.62604154  1
  O  O175  1  0.61942179  0.12084079  0.12073293  1
  O  O176  1  0.61839339  0.11714195  0.62320255  1
  O  O177  1  0.61657280  0.62938877  0.12342782  1
  O  O178  1  0.62451999  0.61867700  0.62337380  1
  O  O179  1  0.37614551  0.36999950  0.38830009  1
  O  O180  1  0.38168937  0.38350504  0.87173582  1
  O  O181  1  0.38167965  0.87571410  0.38017629  1
  O  O182  1  0.38232237  0.88098392  0.88129115  1
  O  O183  1  0.88037818  0.37403674  0.37973625  1
  O  O184  1  0.88690515  0.37471441  0.88264798  1
  O  O185  1  0.87841160  0.88364115  0.37951154  1
  O  O186  1  0.88283809  0.88425194  0.88085802  1
  O  O187  1  0.26413039  0.00239326  0.38083223  1
  O  O188  1  0.25292698  0.00659332  0.86928633  1
  O  O189  1  0.26145524  0.50330944  0.36894751  1
  O  O190  1  0.25776649  0.50377628  0.87244914  1
  O  O191  1  0.75507247  -0.00410090  0.36572058  1
  O  O192  1  0.75748422  0.01163572  0.87614674  1
  O  O193  1  0.75484481  0.48051855  0.39563659  1
  O  O194  1  0.75521764  0.51463727  0.87865786  1
  O  O195  1  0.25507961  0.48554286  0.12304358  1
  O  O196  1  0.25435252  0.49083614  0.63449983  1
  O  O197  1  0.23812875  0.99271389  0.11850101  1
  O  O198  1  0.23974590  0.99931039  0.63151075  1
  O  O199  1  0.70974370  0.52093180  0.05946417  1
  O  O200  1  0.73852060  0.49098581  0.62564713  1
  O  O201  1  0.74194039  0.99895684  0.13727212  1
  O  O202  1  0.74256733  0.99160389  0.62056629  1
  O  O203  1  0.00543131  0.37433702  0.25949737  1
  O  O204  1  0.00361965  0.36792848  0.75783076  1
  O  O205  1  -0.01153633  0.87064046  0.26388324  1
  O  O206  1  -0.00535399  0.86687049  0.75899294  1
  O  O207  1  0.49772879  0.36422249  0.24715101  1
  O  O208  1  0.50604032  0.37485231  0.76256286  1
  O  O209  1  0.50961569  0.87872272  0.26196291  1
  O  O210  1  0.49877017  0.86901636  0.76274120  1
  O  O211  1  0.48877520  0.13305129  0.24350213  1
  O  O212  1  0.49195242  0.12282212  0.74360620  1
  O  O213  1  0.49311283  0.62549972  0.23401058  1
  O  O214  1  0.49971193  0.63135846  0.74731031  1
  O  O215  1  0.98627122  0.12538635  0.24325308  1
  O  O216  1  1.00051996  0.13215129  0.73734719  1
  O  O217  1  0.99283880  0.62648868  0.24062307  1
  O  O218  1  0.99715001  0.63423904  0.74934325  1
  O  O219  1  0.36263523  0.24278096  0.01220749  1
  O  O220  1  0.36482716  0.25332421  0.50321062  1
  O  O221  1  0.36781332  0.75577642  0.00701659  1
  O  O222  1  0.37132678  0.75863950  0.50425326  1
  O  O223  1  0.87513855  0.25672004  0.00910100  1
  O  O224  1  0.86625026  0.25042466  0.51307263  1
  O  O225  1  0.87192204  0.75619903  0.00675215  1
  O  O226  1  0.88395549  0.75656519  0.50741305  1
  O  O227  1  0.14159887  0.24997442  0.49696077  1
  O  O228  1  0.13855063  0.24565791  1.00527692  1
  O  O229  1  0.13147018  0.75589752  0.48959115  1
  O  O230  1  0.13055097  0.74070521  0.99780744  1
  O  O231  1  0.63287129  0.24848144  0.49280630  1
  O  O232  1  0.62743777  0.24227271  1.00001879  1
  O  O233  1  0.62902076  0.73741178  0.49542713  1
  O  O234  1  0.63703472  0.74159338  0.99529334  1
  O  O235  1  0.49010037  0.24607756  0.13018051  1
  O  O236  1  0.50045461  0.23388067  0.62821025  1
  O  O237  1  0.49031322  0.74426453  0.11541886  1
  O  O238  1  0.49868189  0.74686695  0.63661189  1
  O  O239  1  0.99161707  0.23774917  0.12587403  1
  O  O240  1  0.99510917  0.24400729  0.62733083  1
  O  O241  1  0.99248933  0.74330577  0.12404109  1
  O  O242  1  0.99380511  0.75171641  0.63079273  1
  O  O243  1  0.00057658  0.26203833  0.37863623  1
  O  O244  1  -0.00558097  0.25441967  0.86504519  1
  O  O245  1  0.01004995  0.75607484  0.37561921  1
  O  O246  1  0.00016242  0.76128114  0.86768643  1
  O  O247  1  0.50518421  0.24247812  0.36438453  1
  O  O248  1  0.50069983  0.25906786  0.87528274  1
  O  O249  1  0.51025515  0.75589113  0.38098266  1
  O  O250  1  0.50656787  0.75547867  0.87145460  1
  O  O251  1  0.25831728  0.12965336  0.48894410  1
  O  O252  1  0.24694288  0.13135004  0.98995400  1
  O  O253  1  0.25632645  0.63984374  0.49598771  1
  O  O254  1  0.24342613  0.63135053  0.99898693  1
  O  O255  1  0.74779389  0.13708657  0.50551334  1
  O  O256  1  0.73761251  0.12402159  0.99711292  1
  O  O257  1  0.73898697  0.62435409  0.50818366  1
  O  O258  1  0.75826921  0.64270486  0.98593236  1
  O  O259  1  0.24632567  0.36708640  0.00780216  1
  O  O260  1  0.25804695  0.36451026  0.50603264  1
  O  O261  1  0.25630466  0.87052851  0.00325556  1
  O  O262  1  0.25878907  0.86502153  0.50478494  1
  O  O263  1  0.76599674  0.37052135  -0.00680228  1
  O  O264  1  0.75250811  0.37028472  0.50794243  1
  O  O265  1  0.75519584  0.86760807  -0.00042515  1
  O  O266  1  0.76434891  0.87630062  0.50911925  1
  O  O267  1  0.12560488  0.48601660  0.25387266  1
  O  O268  1  0.13905588  0.49732410  0.75931206  1
  O  O269  1  0.11793144  0.99852967  0.23678388  1
  O  O270  1  0.13510683  1.00205468  0.74315769  1
  O  O271  1  0.62173792  0.48528203  0.25602870  1
  O  O272  1  0.62496667  0.48785288  0.74639668  1
  O  O273  1  0.62905751  0.99399214  0.24903750  1
  O  O274  1  0.61948536  0.99436218  0.73539651  1
  O  O275  1  0.37984547  0.00873661  0.25896838  1
  O  O276  1  0.36692277  0.00929402  0.75494491  1
  O  O277  1  0.37401455  0.51303268  0.24846868  1
  O  O278  1  0.36614425  0.50463115  0.75740687  1
  O  O279  1  0.86487201  0.00577026  0.25641255  1
  O  O280  1  0.87974090  -0.00240585  0.75973803  1
  O  O281  1  0.87598749  0.51070216  0.24517567  1
  O  O282  1  0.88604216  0.51389482  0.74885964  1
  O  O283  1  0.11831619  0.37021056  0.36837416  1
  O  O284  1  0.11185252  0.37538657  0.87611688  1
  O  O285  1  0.11281637  0.86912666  0.37804844  1
  O  O286  1  0.11157564  0.87827532  0.88142946  1
  O  O287  1  0.61817318  0.36059175  0.36137496  1
  O  O288  1  0.62010487  0.37615362  0.87193960  1
  O  O289  1  0.61861134  0.86743319  0.37210084  1
  O  O290  1  0.61905518  0.87079728  0.87488005  1
  O  O291  1  0.37704980  0.13121144  0.13187480  1
  O  O292  1  0.38304107  0.12042539  0.63302959  1
  O  O293  1  0.38072960  0.63535368  0.12965533  1
  O  O294  1  0.38853156  0.63288114  0.63644813  1
  O  O295  1  0.88036573  0.12876700  0.13271913  1
  O  O296  1  0.88481880  0.13309351  0.62520497  1
  O  O297  1  0.88524066  0.63105773  0.12555762  1
  O  O298  1  0.88311237  0.63222157  0.63123554  1
  O  O299  1  0.25594588  0.25671892  0.11873177  1
  O  O300  1  0.25344189  0.25290076  0.61857241  1
  O  O301  1  0.25455980  0.76008696  0.11728302  1
  O  O302  1  0.25800676  0.75247554  0.61976087  1
  O  O303  1  0.76316199  0.24367509  0.12372449  1
  O  O304  1  0.75542517  0.25726603  0.61947714  1
  O  O305  1  0.75843175  0.75255631  0.11351537  1
  O  O306  1  0.76745709  0.75674953  0.62740185  1
  O  O307  1  0.25054135  0.23637718  0.38183590  1
  O  O308  1  0.25547771  0.24180042  0.88344268  1
  O  O309  1  0.23385989  0.75502567  0.38275625  1
  O  O310  1  0.25040289  0.74540775  0.88362772  1
  O  O311  1  0.74100947  0.25338526  0.38650094  1
  O  O312  1  0.75083554  0.23476025  0.87854784  1
  O  O313  1  0.74189057  0.75794842  0.37489324  1
  O  O314  1  0.74949307  0.74885299  0.87860447  1
  O  O315  1  -0.00196508  0.11924136  0.00707795  1
  O  O316  1  -0.00122961  0.12327545  0.51238433  1
  O  O317  1  0.00624953  0.61835717  0.00323354  1
  O  O318  1  -0.00178181  0.60399444  0.49863251  1
  O  O319  1  0.51066108  0.12482831  0.00583747  1
  O  O320  1  0.49944253  0.11596877  0.50748496  1
  O  O321  1  0.50575925  0.62041597  0.01009496  1
  O  O322  1  0.51321215  0.63699062  0.52140176  1
  O  O323  1  0.48933633  0.36776174  0.50802259  1
  O  O324  1  0.50291726  0.38321723  0.98867364  1
  O  O325  1  0.49472379  0.87605079  0.49354517  1
  O  O326  1  0.49516318  0.87519815  0.98865644  1
  O  O327  1  1.00643551  0.38651559  0.49428045  1
  O  O328  1  0.99586427  0.37982816  0.99571821  1
  O  O329  1  0.98815951  0.88038092  0.48829868  1
  O  O330  1  0.99496327  0.88312590  0.99386565  1
  O  O331  1  0.47564193  0.54878803  0.38485525  1
  O  O332  1  0.48459180  0.49474916  0.87382608  1
  O  O333  1  0.48993219  0.99109958  0.38167901  1
  O  O334  1  0.49496759  0.99211732  0.87604869  1
  O  O335  1  1.00347990  0.48824129  0.38846367  1
  O  O336  1  0.99859163  0.49293110  0.88631198  1
  O  O337  1  0.99075720  0.99387410  0.37520557  1
  O  O338  1  0.99308560  0.99774765  0.88049155  1
  O  O339  1  0.00121441  0.00886528  0.11911081  1
  O  O340  1  0.01057796  0.00577487  0.62143703  1
  O  O341  1  -0.00147820  0.50737202  0.11143386  1
  O  O342  1  0.00449467  0.49663407  0.60844274  1
  O  O343  1  0.50672036  0.00763612  0.12517566  1
  O  O344  1  0.50578470  0.00586318  0.61972864  1
  O  O345  1  0.50527764  0.50770662  0.11405920  1
  O  O346  1  0.51338023  0.50875021  0.63632705  1
  O  O347  1  0.24249097  0.37377527  0.24125782  1
  O  O348  1  0.25028197  0.38176512  0.74298444  1
  O  O349  1  0.25723152  0.87437073  0.23811091  1
  O  O350  1  0.25780220  0.88863225  0.74873386  1
  O  O351  1  0.73763546  0.37228657  0.25020096  1
  O  O352  1  0.74388343  0.36980300  0.74512144  1
  O  O353  1  0.74098717  0.88405138  0.24765216  1
  O  O354  1  0.75543420  0.87183811  0.73538228  1
  O  O355  1  0.26219687  0.13006809  0.25619148  1
  O  O356  1  0.25572279  0.11892452  0.75633737  1
  O  O357  1  0.25825026  0.62246134  0.24436189  1
  O  O358  1  0.25743351  0.61853679  0.75785937  1
  O  O359  1  0.76016321  0.11798692  0.24836653  1
  O  O360  1  0.74254205  0.12648176  0.76162302  1
  O  O361  1  0.76410058  0.62089663  0.23987481  1
  O  O362  1  0.76493644  0.63269965  0.75773798  1
  O  O363  1  0.36995953  0.11415995  0.36753549  1
  O  O364  1  0.36826534  0.11911230  0.86876647  1
  O  O365  1  0.36247899  0.65860463  0.35200955  1
  O  O366  1  0.37056985  0.61807531  0.87074920  1
  O  O367  1  0.87977051  0.11425944  0.36860069  1
  O  O368  1  0.86012316  0.11669562  0.87782384  1
  O  O369  1  0.87620950  0.62894398  0.35663100  1
  O  O370  1  0.87184660  0.62518039  0.86550611  1
  O  O371  1  0.13350989  0.37039056  0.13367941  1
  O  O372  1  0.14190777  0.37090790  0.62675479  1
  O  O373  1  0.13416097  0.88410731  0.11991104  1
  O  O374  1  0.12313808  0.89175920  0.62428513  1
  O  O375  1  0.62125870  0.37628582  0.14417849  1
  O  O376  1  0.63356019  0.38094510  0.63262829  1
  O  O377  1  0.62368885  0.87973742  0.13404057  1
  O  O378  1  0.63704186  0.87984918  0.62418701  1
  O  O379  1  0.11982140  0.26034902  0.25483012  1
  O  O380  1  0.11075487  0.25049608  0.74543337  1
  O  O381  1  0.12255745  0.75277612  0.26431288  1
  O  O382  1  0.11395835  0.75268122  0.75450619  1
  O  O383  1  0.61674479  0.25633086  0.25514443  1
  O  O384  1  0.62083199  0.26389024  0.75362337  1
  O  O385  1  0.62978396  0.76112839  0.25784228  1
  O  O386  1  0.62022187  0.75420180  0.75620268  1
  O  O387  1  0.37977409  0.24371645  0.24338382  1
  O  O388  1  0.37663646  0.23542816  0.74786556  1
  O  O389  1  0.37362921  0.75054570  0.23212178  1
  O  O390  1  0.38275808  0.74358319  0.74783727  1
  O  O391  1  0.87657177  0.24203879  0.24467481  1
  O  O392  1  0.88678962  0.25394482  0.73685968  1
  O  O393  1  0.87437560  0.74502167  0.23514370  1
  O  O394  1  0.88838637  0.74166913  0.74192635  1
  O  O395  1  0.37584569  0.47791673  0.50215815  1
  O  O396  1  0.38457948  0.50655327  0.99097832  1
  O  O397  1  0.38035441  0.98510001  0.49548675  1
  O  O398  1  0.37673867  0.99519357  0.99392452  1
  O  O399  1  0.87685268  0.49323159  0.50374967  1
  O  O400  1  0.88436815  0.49145073  0.99869428  1
  O  O401  1  0.87476702  0.99460616  0.49073216  1
  O  O402  1  0.88382544  0.99699190  0.99719980  1
  O  O403  1  0.10942688  0.00521895  0.00710488  1
  O  O404  1  0.12753700  -0.00120680  0.50982392  1
  O  O405  1  0.11969682  0.51369000  -0.00240491  1
  O  O406  1  0.12563018  0.49889514  0.49630327  1
  O  O407  1  0.62329120  0.00664088  0.00980705  1
  O  O408  1  0.61810542  -0.00090926  0.50833429  1
  O  O409  1  0.59665239  0.51088054  -0.03110096  1
  O  O410  1  0.62075798  0.51448000  0.51126608  1
  O  O411  1  0.36723144  0.36404510  0.12933377  1
  O  O412  1  0.36651834  0.36962333  0.62013387  1
  O  O413  1  0.37098302  0.87256471  0.11823207  1
  O  O414  1  0.37711551  0.86803709  0.61818735  1
  O  O415  1  0.88321275  0.36449608  0.11630620  1
  O  O416  1  0.86326045  0.36912972  0.63071807  1
  O  O417  1  0.87422083  0.86770616  0.11799298  1
  O  O418  1  0.87351842  0.86991013  0.61608074  1
  O  O419  1  0.13881562  0.12045291  0.36788051  1
  O  O420  1  0.13625164  0.12035721  0.87477526  1
  O  O421  1  0.12470173  0.63867136  0.37155637  1
  O  O422  1  0.13319316  0.62914515  0.88410817  1
  O  O423  1  0.62142175  0.13683900  0.37410002  1
  O  O424  1  0.63444885  0.12351531  0.88247751  1
  O  O425  1  0.62685548  0.63137063  0.38953242  1
  O  O426  1  0.63800034  0.63208065  0.87784314  1
