# generated using pymatgen
data_V85Zn86O256
_symmetry_space_group_name_H-M   'P 1'
_cell_length_a   16.93380372
_cell_length_b   16.93181550
_cell_length_c   16.93445635
_cell_angle_alpha   89.98698903
_cell_angle_beta   90.07812153
_cell_angle_gamma   90.05778416
_symmetry_Int_Tables_number   1
_chemical_formula_structural   V85Zn86O256
_chemical_formula_sum   'V85 Zn86 O256'
_cell_volume   4855.44090066
_cell_formula_units_Z   1
loop_
 _symmetry_equiv_pos_site_id
 _symmetry_equiv_pos_as_xyz
  1  'x, y, z'
loop_
 _atom_site_type_symbol
 _atom_site_label
 _atom_site_symmetry_multiplicity
 _atom_site_fract_x
 _atom_site_fract_y
 _atom_site_fract_z
 _atom_site_occupancy
  V  V0  1  0.86691623  0.49916775  0.86841345  1
  V  V1  1  0.87240558  0.49739847  0.37154044  1
  V  V2  1  0.75191967  0.38327655  0.63478919  1
  V  V3  1  0.12548868  0.37675510  0.25118861  1
  V  V4  1  -0.00089436  0.63099795  0.62138915  1
  V  V5  1  0.25643204  0.25811190  0.50454840  1
  V  V6  1  0.12377333  0.49985957  0.12661714  1
  V  V7  1  0.49438192  0.86912135  0.86896418  1
  V  V8  1  0.24580770  -0.00069037  0.25192341  1
  V  V9  1  0.24953943  0.12646346  0.38247532  1
  V  V10  1  0.75219944  0.13486493  0.88097981  1
  V  V11  1  0.62155110  0.61863576  0.50017787  1
  V  V12  1  0.37391633  0.39651037  -0.00326659  1
  V  V13  1  0.38123587  0.62880766  0.23970244  1
  V  V14  1  0.37415570  -0.00146717  0.88065949  1
  V  V15  1  0.62748587  -0.00029333  0.62608788  1
  V  V16  1  0.12460003  0.24045883  0.38147775  1
  V  V17  1  0.00069978  0.37400090  0.37556751  1
  V  V18  1  0.62540277  0.12554257  0.50053600  1
  V  V19  1  0.37819483  0.87638164  0.50244474  1
  V  V20  1  0.62676159  0.87333476  0.24898630  1
  V  V21  1  0.12163840  -0.00482790  0.12567532  1
  V  V22  1  0.24412488  0.86836179  0.13112821  1
  V  V23  1  0.49333099  0.37948522  0.88029658  1
  V  V24  1  0.12876734  0.00551715  0.62284194  1
  V  V25  1  0.25036640  0.74788954  0.49485560  1
  V  V26  1  0.00103391  0.37244718  0.87312096  1
  V  V27  1  0.88029060  0.87276171  0.50090825  1
  V  V28  1  0.12857007  0.62566285  0.48911034  1
  V  V29  1  0.86555379  0.37115187  -0.00108855  1
  V  V30  1  0.48540023  0.37855077  0.37611920  1
  V  V31  1  0.25323991  0.50633677  0.25361940  1
  V  V32  1  0.61373622  0.37424768  0.75105278  1
  V  V33  1  0.74877313  0.25218938  0.50109629  1
  V  V34  1  0.00200756  0.49943964  0.49906804  1
  V  V35  1  0.73482286  0.37510861  0.12602564  1
  V  V36  1  -0.00493380  0.88182131  0.87571868  1
  V  V37  1  0.37514444  0.13586596  0.25049463  1
  V  V38  1  0.62326983  0.74178179  0.87203943  1
  V  V39  1  0.74834031  0.12496849  0.37603030  1
  V  V40  1  0.25198591  0.87454850  0.62794405  1
  V  V41  1  -0.00172974  0.12541433  0.12566699  1
  V  V42  1  0.13150314  0.13104403  0.00029526  1
  V  V43  1  -0.00675063  0.75056944  0.74521855  1
  V  V44  1  0.50154502  0.13199469  0.12667389  1
  V  V45  1  0.73478086  0.49473862  0.24756750  1
  V  V46  1  0.12933486  0.37474884  0.74837820  1
  V  V47  1  0.86942714  0.25074960  0.12171825  1
  V  V48  1  0.49888909  0.87273241  0.37413040  1
  V  V49  1  0.86965484  0.75204978  0.12549543  1
  V  V50  1  0.74790082  0.62490140  0.37280001  1
  V  V51  1  0.49953424  0.61646052  0.62357675  1
  V  V52  1  0.12397429  0.87509710  0.74914623  1
  V  V53  1  0.37333763  0.51078524  0.38922318  1
  V  V54  1  0.75398514  0.74840687  0.50217083  1
  V  V55  1  0.62631498  0.00045424  0.12332163  1
  V  V56  1  0.25047410  0.36982226  0.12228717  1
  V  V57  1  0.25070335  0.62320971  0.87605601  1
  V  V58  1  0.87809832  0.12056126  0.75393373  1
  V  V59  1  0.74972912  0.73644367  -0.00122856  1
  V  V60  1  0.74869943  -0.00271333  0.24833130  1
  V  V61  1  0.61805286  0.25889475  0.36138459  1
  V  V62  1  0.38582290  0.75292946  0.63016479  1
  V  V63  1  0.75641460  0.87161828  0.62673030  1
  V  V64  1  0.38200664  0.62838175  0.75552200  1
  V  V65  1  0.56214942  0.56125697  0.06444576  1
  V  V66  1  0.87711187  -0.00432147  0.37336701  1
  V  V67  1  0.42234172  0.81943640  0.05911329  1
  V  V68  1  0.24663348  0.75711909  0.00082542  1
  V  V69  1  0.86401093  0.88081731  -0.00397673  1
  V  V70  1  0.50129702  0.00072197  0.50123627  1
  V  V71  1  -0.00299467  0.62646839  0.12462777  1
  V  V72  1  0.50306874  0.13421143  0.63168221  1
  V  V73  1  0.00622360  -0.00010764  0.49192758  1
  V  V74  1  0.62209712  0.87032876  0.74979545  1
  V  V75  1  0.75409365  -0.00144985  0.76026390  1
  V  V76  1  -0.00071571  0.24949727  0.25061435  1
  V  V77  1  0.00520526  0.12590509  0.61976391  1
  V  V78  1  0.37810893  0.13458424  0.75403112  1
  V  V79  1  0.37523694  0.25181401  0.11364361  1
  V  V80  1  -0.00150415  0.49924643  -0.00122052  1
  V  V81  1  0.87587437  0.24812198  0.62397919  1
  V  V82  1  0.25550831  0.50096622  0.75295245  1
  V  V83  1  0.86936745  0.62226930  0.74506894  1
  V  V84  1  0.12211140  0.75082457  0.87406084  1
  Zn  Zn85  1  0.87433394  0.37433357  0.50138587  1
  Zn  Zn86  1  0.49704769  0.74843065  0.24065351  1
  Zn  Zn87  1  -0.00429483  0.00281527  -0.00475142  1
  Zn  Zn88  1  0.12441853  0.62626961  -0.00018490  1
  Zn  Zn89  1  0.87276027  0.62701572  0.24857212  1
  Zn  Zn90  1  0.12095639  0.76387618  0.36783688  1
  Zn  Zn91  1  0.62341549  0.74732729  0.37181220  1
  Zn  Zn92  1  0.13346712  0.25464918  0.88118178  1
  Zn  Zn93  1  0.62899861  0.50095080  0.62913807  1
  Zn  Zn94  1  0.74092199  0.61537111  0.86752609  1
  Zn  Zn95  1  0.25833990  0.38298529  0.62115976  1
  Zn  Zn96  1  0.62772277  0.13023890  0.00109322  1
  Zn  Zn97  1  0.37599389  0.00326298  0.37481709  1
  Zn  Zn98  1  0.01019315  0.76620380  0.24936641  1
  Zn  Zn99  1  0.38535227  0.26023332  0.62515154  1
  Zn  Zn100  1  0.00421880  0.24840085  0.74946050  1
  Zn  Zn101  1  0.12652279  0.50099242  0.62493292  1
  Zn  Zn102  1  0.87494075  0.12498209  0.25034635  1
  Zn  Zn103  1  0.25602110  0.12921088  0.87990394  1
  Zn  Zn104  1  0.61712933  0.25022195  0.87597967  1
  Zn  Zn105  1  0.49855714  -0.00027406  0.00209811  1
  Zn  Zn106  1  0.25235284  0.00198855  0.75311008  1
  Zn  Zn107  1  0.18589804  0.18699697  0.19072905  1
  Zn  Zn108  1  0.19149027  0.18882924  0.69327993  1
  Zn  Zn109  1  0.18561325  0.68621288  0.19215377  1
  Zn  Zn110  1  0.18661307  0.68760884  0.68418147  1
  Zn  Zn111  1  0.69032952  0.18597548  0.18612194  1
  Zn  Zn112  1  0.68760191  0.19139175  0.69216492  1
  Zn  Zn113  1  0.68579508  0.68406336  0.18661267  1
  Zn  Zn114  1  0.68748636  0.68932148  0.68518657  1
  Zn  Zn115  1  0.31266936  0.31576246  0.31258072  1
  Zn  Zn116  1  0.31249038  0.30943904  0.81858604  1
  Zn  Zn117  1  0.31214424  0.81189379  0.31240051  1
  Zn  Zn118  1  0.31192265  0.81138147  0.81303354  1
  Zn  Zn119  1  0.80994537  0.31287270  0.31019478  1
  Zn  Zn120  1  0.81501877  0.30998596  0.80795375  1
  Zn  Zn121  1  0.81477870  0.81365785  0.31284097  1
  Zn  Zn122  1  0.81189300  0.80771866  0.81404176  1
  Zn  Zn123  1  0.18843470  0.43786603  0.43464636  1
  Zn  Zn124  1  0.18852060  0.43762135  0.93876679  1
  Zn  Zn125  1  0.19334601  0.94060126  0.44350775  1
  Zn  Zn126  1  0.18715674  0.94056857  0.93998233  1
  Zn  Zn127  1  0.68468625  0.43541057  0.44041511  1
  Zn  Zn128  1  0.68054776  0.43696421  0.93916668  1
  Zn  Zn129  1  0.68821481  0.93579054  0.43654277  1
  Zn  Zn130  1  0.68415739  0.93672136  0.93698413  1
  Zn  Zn131  1  0.31373154  0.05838918  0.06473251  1
  Zn  Zn132  1  0.31594716  0.06722615  0.56485728  1
  Zn  Zn133  1  0.30927380  0.56704022  0.06671598  1
  Zn  Zn134  1  0.31048486  0.56650256  0.56930358  1
  Zn  Zn135  1  0.81145835  0.06051240  0.06336539  1
  Zn  Zn136  1  0.81426827  0.06074032  0.56456235  1
  Zn  Zn137  1  0.80825565  0.55792991  0.06238128  1
  Zn  Zn138  1  0.81661211  0.56296942  0.55959431  1
  Zn  Zn139  1  0.44496440  0.43684618  0.19346490  1
  Zn  Zn140  1  0.43467981  0.43824515  0.68917751  1
  Zn  Zn141  1  0.43899798  0.94804084  0.19523307  1
  Zn  Zn142  1  0.43899359  0.94503085  0.69189819  1
  Zn  Zn143  1  0.93238737  0.43685927  0.18760761  1
  Zn  Zn144  1  0.93907443  0.43767192  0.68564079  1
  Zn  Zn145  1  0.92908415  0.93840348  0.17814704  1
  Zn  Zn146  1  0.93879372  0.93999149  0.68490004  1
  Zn  Zn147  1  0.06577594  -0.07038803  0.30960161  1
  Zn  Zn148  1  0.06465183  0.06249035  0.81138241  1
  Zn  Zn149  1  0.05970198  0.57388764  0.31259044  1
  Zn  Zn150  1  0.06223459  0.56160968  0.81171105  1
  Zn  Zn151  1  0.56084795  0.06519674  0.31209505  1
  Zn  Zn152  1  0.56344186  0.05833780  0.81439365  1
  Zn  Zn153  1  0.55484794  0.55843627  0.31217958  1
  Zn  Zn154  1  0.56015429  0.55410606  0.80888430  1
  Zn  Zn155  1  0.43953945  0.19028973  0.43798900  1
  Zn  Zn156  1  0.44297060  0.19171402  0.93844613  1
  Zn  Zn157  1  0.43617365  0.68701783  0.43725613  1
  Zn  Zn158  1  0.44274542  0.67939977  0.93573036  1
  Zn  Zn159  1  0.93714731  0.18317650  0.43762674  1
  Zn  Zn160  1  0.93794386  0.18775903  0.93791809  1
  Zn  Zn161  1  0.93707384  0.68954114  0.43295319  1
  Zn  Zn162  1  0.93462906  0.68751605  0.93425248  1
  Zn  Zn163  1  0.05860544  0.31307069  0.06280746  1
  Zn  Zn164  1  0.06939561  0.31237760  0.56235925  1
  Zn  Zn165  1  0.05850546  0.81299792  0.06270345  1
  Zn  Zn166  1  0.06540938  0.81362278  0.55860742  1
  Zn  Zn167  1  0.55793798  0.30778988  0.05445014  1
  Zn  Zn168  1  0.56499562  0.31842632  0.55759330  1
  Zn  Zn169  1  0.58665778  0.80531426  0.06790057  1
  Zn  Zn170  1  0.56676259  0.80782773  0.56129650  1
  O  O171  1  0.11859736  0.11921668  0.11844162  1
  O  O172  1  0.11623241  0.11802443  0.63375732  1
  O  O173  1  0.11601744  0.61715466  0.12106016  1
  O  O174  1  0.11248419  0.62272257  0.61878336  1
  O  O175  1  0.61756628  0.11951747  0.12658599  1
  O  O176  1  0.62217894  0.12007496  0.62273969  1
  O  O177  1  0.61279530  0.62961515  0.12248284  1
  O  O178  1  0.61713453  0.62595999  0.62006049  1
  O  O179  1  0.37918757  0.38347158  0.37853075  1
  O  O180  1  0.37656200  0.37677142  0.88988147  1
  O  O181  1  0.38297567  0.87931403  0.38157460  1
  O  O182  1  0.38426091  0.88149543  0.86810327  1
  O  O183  1  0.88160346  0.38070828  0.37729539  1
  O  O184  1  0.88057413  0.37903402  0.87882492  1
  O  O185  1  0.86846973  0.88764190  0.38559910  1
  O  O186  1  0.88135933  0.86785577  0.88589476  1
  O  O187  1  0.25171507  0.00966005  0.36925678  1
  O  O188  1  0.25839133  0.00457199  0.87485384  1
  O  O189  1  0.26330315  0.49264102  0.36592021  1
  O  O190  1  0.24323499  0.51704644  0.87183391  1
  O  O191  1  0.75594089  0.00591804  0.37085721  1
  O  O192  1  0.74810316  0.00340798  0.86294027  1
  O  O193  1  0.75596085  0.50319015  0.37123391  1
  O  O194  1  0.76353564  0.49835970  0.87739274  1
  O  O195  1  0.24288303  0.49153999  0.13160766  1
  O  O196  1  0.24548731  0.50273265  0.63855702  1
  O  O197  1  0.24231624  0.99156322  0.13092720  1
  O  O198  1  0.24394786  0.99496784  0.62509830  1
  O  O199  1  0.75613699  0.48846614  0.13594972  1
  O  O200  1  0.75322558  0.48644061  0.61809527  1
  O  O201  1  0.73783946  1.00649705  0.13495023  1
  O  O202  1  0.74514676  0.99309328  0.63348751  1
  O  O203  1  0.00407339  0.37010676  0.25565089  1
  O  O204  1  0.00868321  0.37582487  0.75712363  1
  O  O205  1  -0.01094901  0.87846904  0.24858372  1
  O  O206  1  0.00100586  0.86834482  0.75413019  1
  O  O207  1  0.50120853  0.37773480  0.27396809  1
  O  O208  1  0.50937572  0.37467316  0.75445313  1
  O  O209  1  0.50503782  0.87471729  0.25846216  1
  O  O210  1  0.51073233  0.87847535  0.75682846  1
  O  O211  1  0.48842688  0.11867775  0.23846662  1
  O  O212  1  0.49541557  0.11802405  0.74103290  1
  O  O213  1  0.48675110  0.62963793  0.25364372  1
  O  O214  1  0.48822462  0.62334103  0.74393111  1
  O  O215  1  0.99781269  0.13396708  0.23318378  1
  O  O216  1  0.99397570  0.12455534  0.74192494  1
  O  O217  1  0.99213193  0.61670613  0.23095097  1
  O  O218  1  0.99549988  0.63167237  0.74164320  1
  O  O219  1  0.37170976  0.25253659  0.01216356  1
  O  O220  1  0.36027311  0.24544627  0.50142238  1
  O  O221  1  0.36888071  0.75342082  0.00010501  1
  O  O222  1  0.36965526  0.75576019  0.50949555  1
  O  O223  1  0.87959460  0.25998649  0.00821093  1
  O  O224  1  0.86385964  0.24873481  0.50321499  1
  O  O225  1  0.86544489  0.75528369  0.00272160  1
  O  O226  1  0.86493544  0.75851918  0.49361691  1
  O  O227  1  0.13630829  0.25046878  0.49044434  1
  O  O228  1  0.11908678  0.23484432  1.00362872  1
  O  O229  1  0.13320061  0.74170211  0.50068725  1
  O  O230  1  0.13045965  0.74939939  0.99348514  1
  O  O231  1  0.63717045  0.24444495  0.49443929  1
  O  O232  1  0.62238935  0.24303802  0.99067675  1
  O  O233  1  0.63872982  0.74208375  0.49653651  1
  O  O234  1  0.64123236  0.75232375  0.98771941  1
  O  O235  1  0.48881547  0.24384102  0.12677247  1
  O  O236  1  0.50489930  0.23730034  0.61606965  1
  O  O237  1  0.48714838  0.76712547  0.11879337  1
  O  O238  1  0.48989568  0.74562773  0.62340495  1
  O  O239  1  0.98965773  0.24609041  0.12925669  1
  O  O240  1  0.99606430  0.24184359  0.62267317  1
  O  O241  1  0.98955075  0.74175800  0.12418065  1
  O  O242  1  1.00344075  0.74344509  0.63231039  1
  O  O243  1  0.00657377  0.25155210  0.37249526  1
  O  O244  1  0.00246596  0.26306127  0.87384087  1
  O  O245  1  0.00879733  0.72581901  0.35871301  1
  O  O246  1  0.00428931  0.75772150  0.86726892  1
  O  O247  1  0.51088260  0.25805689  0.37737431  1
  O  O248  1  0.49761876  0.26868859  0.87473057  1
  O  O249  1  0.50217827  0.76387458  0.37728375  1
  O  O250  1  0.50833047  0.76099991  0.88087032  1
  O  O251  1  0.25393766  0.13078765  0.48722490  1
  O  O252  1  0.23365277  0.12020448  1.00555558  1
  O  O253  1  0.23954357  0.63643507  0.51106047  1
  O  O254  1  0.24925928  0.63780178  0.99431931  1
  O  O255  1  0.74548530  0.12999695  0.49629074  1
  O  O256  1  0.75268365  0.11750768  0.98283456  1
  O  O257  1  0.74742767  0.63223294  0.49431808  1
  O  O258  1  0.75884240  0.63417564  0.98951260  1
  O  O259  1  0.26130758  0.38091777  0.00887980  1
  O  O260  1  0.24602007  0.36144788  0.50056502  1
  O  O261  1  0.24751168  0.86443848  0.00703681  1
  O  O262  1  0.26053302  0.87116030  0.51137430  1
  O  O263  1  0.76130251  0.38117701  0.00661955  1
  O  O264  1  0.75102987  0.36566136  0.50912483  1
  O  O265  1  0.76055599  0.86463602  -0.00997611  1
  O  O266  1  0.75706925  0.86941120  0.50665757  1
  O  O267  1  0.13123262  0.49680132  0.24742587  1
  O  O268  1  0.13346820  0.49191205  0.75140085  1
  O  O269  1  0.13699018  1.00060739  0.24010468  1
  O  O270  1  0.12543334  0.99315798  0.73923487  1
  O  O271  1  0.63615180  0.50037713  0.25781676  1
  O  O272  1  0.62901030  0.48229062  0.74710649  1
  O  O273  1  0.63042648  0.99551380  0.24610420  1
  O  O274  1  0.63450794  0.98826923  0.74622782  1
  O  O275  1  0.36198082  0.01402506  0.25050687  1
  O  O276  1  0.37569320  0.00878923  0.76320102  1
  O  O277  1  0.36955650  0.50953063  0.25635583  1
  O  O278  1  0.36246929  0.51258086  0.75016867  1
  O  O279  1  0.86521947  0.00148581  0.25618568  1
  O  O280  1  0.86855119  0.01161041  0.74351286  1
  O  O281  1  0.87004126  0.50068907  0.26265055  1
  O  O282  1  0.88337581  0.50881272  0.75742858  1
  O  O283  1  0.11870671  0.36754300  0.36909275  1
  O  O284  1  0.11659008  0.37630338  0.87054326  1
  O  O285  1  0.11925429  0.87753563  0.39166596  1
  O  O286  1  0.11749263  0.87037616  0.86983094  1
  O  O287  1  0.63281477  0.35945148  0.37179589  1
  O  O288  1  0.61709053  0.37491322  0.86636768  1
  O  O289  1  0.61838245  0.87518465  0.36525762  1
  O  O290  1  0.61882589  0.86686908  0.86730982  1
  O  O291  1  0.37789046  0.13278332  0.13012562  1
  O  O292  1  0.38713837  0.12722707  0.63430833  1
  O  O293  1  0.37340212  0.62531321  0.14050901  1
  O  O294  1  0.38271336  0.63389148  0.63214960  1
  O  O295  1  0.87999772  0.13236465  0.12364980  1
  O  O296  1  0.88342137  0.12902356  0.63093841  1
  O  O297  1  0.87908117  0.63358474  0.12144179  1
  O  O298  1  0.88943544  0.61972800  0.62968177  1
  O  O299  1  0.25310067  0.26458527  0.13156043  1
  O  O300  1  0.24769359  0.24665123  0.60913892  1
  O  O301  1  0.24582754  0.76145230  0.11807279  1
  O  O302  1  0.25776382  0.75805851  0.61939491  1
  O  O303  1  0.76327620  0.25621892  0.13113993  1
  O  O304  1  0.75641986  0.25366715  0.61738528  1
  O  O305  1  0.75340241  0.74478405  0.10843131  1
  O  O306  1  0.74934887  0.75974043  0.61543660  1
  O  O307  1  0.24545942  0.24676443  0.38315357  1
  O  O308  1  0.24521506  0.24176498  0.87527150  1
  O  O309  1  0.25046979  0.75683701  0.39251869  1
  O  O310  1  0.24249925  0.74506499  0.88155521  1
  O  O311  1  0.74523932  0.24365387  0.38142838  1
  O  O312  1  0.75289517  0.23616010  0.87178924  1
  O  O313  1  0.74880635  0.74052874  0.37975887  1
  O  O314  1  0.74291031  0.74362900  0.88117843  1
  O  O315  1  0.00509113  0.12305539  0.00986250  1
  O  O316  1  -0.00403144  0.11453602  0.51141542  1
  O  O317  1  -0.00205461  0.61725645  0.00682654  1
  O  O318  1  0.00560100  0.61909745  0.50475871  1
  O  O319  1  0.49917128  0.12151479  0.01533749  1
  O  O320  1  0.50636352  0.11878572  0.50579876  1
  O  O321  1  0.50058876  0.61630550  0.00385811  1
  O  O322  1  0.51034680  0.63383935  0.50951558  1
  O  O323  1  0.51740712  0.37828511  0.47515307  1
  O  O324  1  0.48208283  0.37619436  0.99502444  1
  O  O325  1  0.49859492  0.87989658  0.49574586  1
  O  O326  1  0.49278781  0.87048349  1.00030367  1
  O  O327  1  1.00064455  0.38294249  0.49423088  1
  O  O328  1  0.99208678  0.38188170  0.99306591  1
  O  O329  1  0.98647399  0.88334254  0.50967823  1
  O  O330  1  0.98807081  0.87468622  0.99074970  1
  O  O331  1  0.48223124  0.49365994  0.37634527  1
  O  O332  1  0.49812202  0.48137272  0.86911061  1
  O  O333  1  0.50022133  0.99058289  0.38201655  1
  O  O334  1  0.49781465  0.98510849  0.88054269  1
  O  O335  1  0.99378203  0.49889794  0.38253481  1
  O  O336  1  0.99378039  0.49096443  0.88095804  1
  O  O337  1  0.99326337  1.00297458  0.38733641  1
  O  O338  1  1.00217491  0.98564532  0.87362824  1
  O  O339  1  0.00591496  0.00864516  0.12235561  1
  O  O340  1  0.00761826  0.00661071  0.61684870  1
  O  O341  1  0.00094474  0.50315886  0.11584311  1
  O  O342  1  0.00062881  0.50492863  0.61070147  1
  O  O343  1  0.51130193  0.00622830  0.12504981  1
  O  O344  1  0.50908540  0.00736320  0.61925123  1
  O  O345  1  0.50606717  0.49809405  0.12243392  1
  O  O346  1  0.50165957  0.51368802  0.62775968  1
  O  O347  1  0.24615338  0.38526127  0.24291447  1
  O  O348  1  0.24492296  0.38587703  0.75581625  1
  O  O349  1  0.25792358  0.88534451  0.24126234  1
  O  O350  1  0.24325941  0.87691765  0.74320937  1
  O  O351  1  0.75387569  0.38280594  0.23871775  1
  O  O352  1  0.74669231  0.37062180  0.73895640  1
  O  O353  1  0.74170574  0.88819690  0.25763205  1
  O  O354  1  0.74924638  0.88015879  0.74405176  1
  O  O355  1  0.25453332  0.12030137  0.25894313  1
  O  O356  1  0.26355047  0.12036796  0.75057798  1
  O  O357  1  0.25798307  0.61187819  0.24544795  1
  O  O358  1  0.25442235  0.62206178  0.75728954  1
  O  O359  1  0.75106699  0.11389159  0.25808970  1
  O  O360  1  0.75814332  0.11744388  0.75583398  1
  O  O361  1  0.75112456  0.61739790  0.25785318  1
  O  O362  1  0.76556875  0.62950214  0.74659831  1
  O  O363  1  0.36976617  0.12632338  0.36724576  1
  O  O364  1  0.38135717  0.11788762  0.86951919  1
  O  O365  1  0.37561951  0.61437425  0.36960115  1
  O  O366  1  0.36442566  0.63515169  0.86500540  1
  O  O367  1  0.86910653  0.11182590  0.37465159  1
  O  O368  1  0.86650117  0.12660003  0.86653238  1
  O  O369  1  0.86108490  0.61615362  0.37496911  1
  O  O370  1  0.87762120  0.61490592  0.86317294  1
  O  O371  1  0.13035375  0.37971291  0.12934308  1
  O  O372  1  0.13142028  0.37945162  0.63499927  1
  O  O373  1  0.13096556  0.88564262  0.11925695  1
  O  O374  1  0.13188312  0.88237683  0.62912686  1
  O  O375  1  0.63688206  0.36478929  0.11991586  1
  O  O376  1  0.63213905  0.37551397  0.63455629  1
  O  O377  1  0.62357741  0.88486095  0.13991339  1
  O  O378  1  0.63477479  0.87768858  0.63074986  1
  O  O379  1  0.11825038  0.25732818  0.25647857  1
  O  O380  1  0.12384882  0.26343633  0.75154642  1
  O  O381  1  0.12646208  0.75584559  0.25208047  1
  O  O382  1  0.11500638  0.75550641  0.75332928  1
  O  O383  1  0.62752617  0.24249043  0.26443254  1
  O  O384  1  0.63129229  0.26764358  0.75569413  1
  O  O385  1  0.62050740  0.75928339  0.25026763  1
  O  O386  1  0.63266888  0.76359057  0.75539880  1
  O  O387  1  0.36608674  0.24001864  0.24170316  1
  O  O388  1  0.37503107  0.23760024  0.74787763  1
  O  O389  1  0.37442497  0.73349875  0.25665622  1
  O  O390  1  0.36878516  0.74152108  0.74007115  1
  O  O391  1  0.88256905  0.24803290  0.24392542  1
  O  O392  1  0.87975860  0.23748156  0.74226770  1
  O  O393  1  0.86690641  0.74969739  0.23321593  1
  O  O394  1  0.88715639  0.74179982  0.75338383  1
  O  O395  1  0.36672574  0.50894105  0.48810353  1
  O  O396  1  0.36985622  0.49452243  1.00084661  1
  O  O397  1  0.38374224  0.99459722  0.50056124  1
  O  O398  1  0.37745910  1.00296246  0.98662013  1
  O  O399  1  0.88289258  0.49789097  0.48778363  1
  O  O400  1  0.88405330  0.49317563  0.99229033  1
  O  O401  1  0.88098157  0.99297308  0.49386456  1
  O  O402  1  0.87459286  0.98440969  1.00274247  1
  O  O403  1  0.12023055  0.00884173  0.01053447  1
  O  O404  1  0.11846764  0.00039975  0.51403985  1
  O  O405  1  0.11172492  0.50005638  0.00468218  1
  O  O406  1  0.11861226  0.50598878  0.50025710  1
  O  O407  1  0.62347787  0.00256701  0.00979520  1
  O  O408  1  0.62221012  0.00497073  0.50552322  1
  O  O409  1  0.63008645  0.51015518  0.00619594  1
  O  O410  1  0.63255108  0.51513227  0.50512503  1
  O  O411  1  0.36976116  0.37211550  0.11730121  1
  O  O412  1  0.37055257  0.37148241  0.62924642  1
  O  O413  1  0.36834582  0.88165992  0.12180738  1
  O  O414  1  0.37329381  0.87044585  0.62504787  1
  O  O415  1  0.87286488  0.36766054  0.11528769  1
  O  O416  1  0.86955885  0.36645306  0.62457827  1
  O  O417  1  0.87383434  0.86490688  0.10603740  1
  O  O418  1  0.86365768  0.88105832  0.61726973  1
  O  O419  1  0.13576523  0.13948016  0.36858147  1
  O  O420  1  0.12067249  0.12321677  0.89199518  1
  O  O421  1  0.13217807  0.62013494  0.38801306  1
  O  O422  1  0.13004300  0.63373123  0.87611641  1
  O  O423  1  0.62739674  0.13314606  0.38219001  1
  O  O424  1  0.64108704  0.12369187  0.87037313  1
  O  O425  1  0.63265178  0.62410282  0.38134637  1
  O  O426  1  0.62330937  0.63792859  0.85884605  1
