# generated using pymatgen
data_V85Zn86O256
_symmetry_space_group_name_H-M   'P 1'
_cell_length_a   16.94647389
_cell_length_b   16.94984299
_cell_length_c   16.94222574
_cell_angle_alpha   90.00305686
_cell_angle_beta   89.98500536
_cell_angle_gamma   89.98731080
_symmetry_Int_Tables_number   1
_chemical_formula_structural   V85Zn86O256
_chemical_formula_sum   'V85 Zn86 O256'
_cell_volume   4866.48584202
_cell_formula_units_Z   1
loop_
 _symmetry_equiv_pos_site_id
 _symmetry_equiv_pos_as_xyz
  1  'x, y, z'
loop_
 _atom_site_type_symbol
 _atom_site_label
 _atom_site_symmetry_multiplicity
 _atom_site_fract_x
 _atom_site_fract_y
 _atom_site_fract_z
 _atom_site_occupancy
  V  V0  1  0.74870575  0.50133203  0.74782162  1
  V  V1  1  0.37511400  0.87070878  0.50151483  1
  V  V2  1  0.05832585  0.70695580  0.30417744  1
  V  V3  1  0.00119844  0.62649595  0.61940313  1
  V  V4  1  0.50193671  0.00342384  0.51148525  1
  V  V5  1  0.14222303  0.26950674  0.39235857  1
  V  V6  1  0.62322235  0.12250385  0.50907325  1
  V  V7  1  0.24580809  0.74497454  0.48379909  1
  V  V8  1  0.87500275  0.87420736  0.00068912  1
  V  V9  1  0.74867745  0.87776153  0.62369119  1
  V  V10  1  0.50759103  0.87926319  0.37352803  1
  V  V11  1  0.13958856  0.00110583  0.12261100  1
  V  V12  1  0.13116103  -0.00386686  0.62615447  1
  V  V13  1  0.62170398  0.62313837  0.49584742  1
  V  V14  1  0.00491205  0.25158593  0.24886525  1
  V  V15  1  0.36854504  0.25921987  0.12646137  1
  V  V16  1  0.49345747  0.74637460  0.74222024  1
  V  V17  1  0.87336632  0.25561256  0.12485979  1
  V  V18  1  0.74782516  0.12541054  0.87737641  1
  V  V19  1  0.24576796  0.25268109  0.00128676  1
  V  V20  1  0.74889388  0.62529825  0.87449716  1
  V  V21  1  0.87461627  0.00069277  0.87676478  1
  V  V22  1  0.12595611  0.49596152  0.62111982  1
  V  V23  1  0.00342681  0.12279452  0.11726815  1
  V  V24  1  0.87610241  0.49835552  0.87686044  1
  V  V25  1  0.49974151  -0.00027349  0.00148277  1
  V  V26  1  0.14260053  0.88444641  0.25182515  1
  V  V27  1  0.62229910  0.87917629  0.74491339  1
  V  V28  1  0.62177803  0.62287210  0.00269774  1
  V  V29  1  0.86689803  0.50318368  0.35440511  1
  V  V30  1  0.50002888  0.24551468  0.73641697  1
  V  V31  1  0.13082294  0.12601548  0.49939009  1
  V  V32  1  0.00050172  0.12332366  0.62812063  1
  V  V33  1  0.87821148  0.74586621  0.13944828  1
  V  V34  1  0.63815785  0.26321902  0.35290714  1
  V  V35  1  -0.00421084  0.50406512  0.49404809  1
  V  V36  1  0.75081695  0.37777825  0.62458533  1
  V  V37  1  0.74915076  0.87673067  0.12576835  1
  V  V38  1  0.75014431  0.75051423  0.00085485  1
  V  V39  1  0.37105439  0.87320523  0.00547805  1
  V  V40  1  0.37698257  0.12234468  0.74138430  1
  V  V41  1  0.74486083  0.00180745  0.74709948  1
  V  V42  1  -0.00286591  -0.00043238  0.49457794  1
  V  V43  1  0.87423336  0.87810702  0.49253731  1
  V  V44  1  -0.00054379  0.24999455  0.74971408  1
  V  V45  1  0.36855378  0.00013625  0.87272560  1
  V  V46  1  0.49821131  0.12578124  0.12898233  1
  V  V47  1  0.24598861  0.12390566  0.87614903  1
  V  V48  1  -0.00340451  0.37538754  0.37154559  1
  V  V49  1  0.74991639  0.24801688  0.50352942  1
  V  V50  1  0.00095117  0.62877744  0.11177041  1
  V  V51  1  -0.00037990  0.87479261  0.87551991  1
  V  V52  1  0.14011096  0.37402735  0.23669738  1
  V  V53  1  0.49864665  0.87461311  0.87544999  1
  V  V54  1  0.87279855  0.75134232  0.62255604  1
  V  V55  1  0.36976238  0.50224724  0.38817074  1
  V  V56  1  0.62293712  0.75065650  0.87500408  1
  V  V57  1  0.49678728  0.49783583  0.00024427  1
  V  V58  1  0.25288398  0.86273885  0.62699621  1
  V  V59  1  0.75255945  0.11895094  0.37937754  1
  V  V60  1  0.87373320  0.62577498  0.74730374  1
  V  V61  1  0.74181328  0.74995535  0.49377215  1
  V  V62  1  0.24344293  0.62443451  0.87917204  1
  V  V63  1  0.49689533  0.37946551  0.39683800  1
  V  V64  1  0.13530853  0.50584734  0.11358742  1
  V  V65  1  -0.00184581  0.88086644  0.36253760  1
  V  V66  1  0.74507348  0.62386770  0.35998125  1
  V  V67  1  0.37452741  0.74807622  0.12703883  1
  V  V68  1  0.62563673  0.12666432  0.00501249  1
  V  V69  1  0.61620864  0.50132300  0.62158974  1
  V  V70  1  0.24997764  0.50014935  0.74401443  1
  V  V71  1  0.12978384  0.87669978  0.75215972  1
  V  V72  1  0.63612901  0.48357332  0.13294969  1
  V  V73  1  -0.00086989  0.75239349  0.74869040  1
  V  V74  1  0.24717827  0.11592356  0.37027845  1
  V  V75  1  0.36765717  0.11365445  0.24587362  1
  V  V76  1  0.50751579  0.74624560  0.25560462  1
  V  V77  1  0.49225211  0.26095866  0.25239235  1
  V  V78  1  0.75283134  0.00213587  0.25291256  1
  V  V79  1  0.49523371  0.37004199  0.87220503  1
  V  V80  1  0.74883340  0.25964835  0.00224767  1
  V  V81  1  0.87851982  0.12428146  0.25835834  1
  V  V82  1  0.12499259  0.24820047  0.87937153  1
  V  V83  1  0.24133091  0.75096241  0.00359203  1
  V  V84  1  0.87412653  0.37681604  0.49563197  1
  Zn  Zn85  1  0.62851048  0.87446392  0.25500618  1
  Zn  Zn86  1  0.50002471  0.62048511  0.12932225  1
  Zn  Zn87  1  0.11978210  0.74763944  0.88157114  1
  Zn  Zn88  1  0.36936493  0.37730601  -0.00054942  1
  Zn  Zn89  1  0.36737279  0.62961130  0.74135503  1
  Zn  Zn90  1  0.62547211  0.00111260  0.12896888  1
  Zn  Zn91  1  0.25787587  0.50566874  0.24810335  1
  Zn  Zn92  1  0.12384486  0.63269383  0.48466106  1
  Zn  Zn93  1  0.00613319  0.00187181  -0.00005436  1
  Zn  Zn94  1  0.12242634  0.37393052  0.74662142  1
  Zn  Zn95  1  0.37343711  -0.00203614  0.37153401  1
  Zn  Zn96  1  0.00345683  0.49909488  -0.00331971  1
  Zn  Zn97  1  0.35422347  0.26463598  0.59958836  1
  Zn  Zn98  1  0.87257132  0.38177139  0.00637179  1
  Zn  Zn99  1  0.49124444  0.62558880  0.61405983  1
  Zn  Zn100  1  -0.00124046  0.37512355  0.87590554  1
  Zn  Zn101  1  0.87379012  0.12604068  0.75078383  1
  Zn  Zn102  1  0.62208705  0.25072944  0.87514296  1
  Zn  Zn103  1  0.87896056  0.25156644  0.62625227  1
  Zn  Zn104  1  0.37033963  0.62523939  0.26023237  1
  Zn  Zn105  1  0.62460450  0.37302227  0.75169654  1
  Zn  Zn106  1  0.37470507  0.50365182  0.87215902  1
  Zn  Zn107  1  0.18804929  0.18597030  0.18842211  1
  Zn  Zn108  1  0.18825500  0.17933441  0.69780072  1
  Zn  Zn109  1  0.19508834  0.68390689  0.18338976  1
  Zn  Zn110  1  0.18445818  0.68687989  0.68707524  1
  Zn  Zn111  1  0.68983445  0.20573809  0.19434177  1
  Zn  Zn112  1  0.68637443  0.18848906  0.68886938  1
  Zn  Zn113  1  0.68346278  0.68829436  0.18291874  1
  Zn  Zn114  1  0.68252023  0.68922565  0.68421692  1
  Zn  Zn115  1  0.31446534  0.31170841  0.42416928  1
  Zn  Zn116  1  0.32837018  0.32871382  0.76942778  1
  Zn  Zn117  1  0.32074093  0.81328453  0.31280250  1
  Zn  Zn118  1  0.31005273  0.81171913  0.81624667  1
  Zn  Zn119  1  0.81200241  0.30968608  0.31114611  1
  Zn  Zn120  1  0.81174020  0.31163766  0.81218655  1
  Zn  Zn121  1  0.81053929  0.81189794  0.31516817  1
  Zn  Zn122  1  0.81089804  0.81362365  0.81207611  1
  Zn  Zn123  1  0.18146068  0.45067447  0.43046040  1
  Zn  Zn124  1  0.18804957  0.43223511  0.93086245  1
  Zn  Zn125  1  0.18496803  0.93331869  0.43718314  1
  Zn  Zn126  1  0.18836616  0.93629467  0.94056746  1
  Zn  Zn127  1  0.68514604  0.44046287  0.43416058  1
  Zn  Zn128  1  0.68284799  0.43865191  0.93655762  1
  Zn  Zn129  1  0.68470512  0.94062063  0.43765474  1
  Zn  Zn130  1  0.68538101  0.93941323  0.93739346  1
  Zn  Zn131  1  0.31303162  0.06711297  0.05686663  1
  Zn  Zn132  1  0.31191517  0.05828955  0.56018574  1
  Zn  Zn133  1  0.31445726  0.56711664  0.06073862  1
  Zn  Zn134  1  0.31410662  0.56797179  0.56152384  1
  Zn  Zn135  1  0.81475399  0.06706233  0.06593908  1
  Zn  Zn136  1  0.81502077  0.06092873  0.56496808  1
  Zn  Zn137  1  0.81173485  0.56450331  0.06670388  1
  Zn  Zn138  1  0.80999607  0.56257320  0.55582055  1
  Zn  Zn139  1  0.43757974  0.44104980  0.19014584  1
  Zn  Zn140  1  0.43493781  0.43833425  0.68343056  1
  Zn  Zn141  1  0.43787278  0.93523299  0.18672311  1
  Zn  Zn142  1  0.43362731  0.93665149  0.68795684  1
  Zn  Zn143  1  0.94171961  0.43925573  0.18096301  1
  Zn  Zn144  1  0.93918994  0.43751956  0.68687166  1
  Zn  Zn145  1  0.93412450  0.94186222  0.18521182  1
  Zn  Zn146  1  0.93674708  0.93922557  0.68663651  1
  Zn  Zn147  1  0.06598306  0.06256124  0.31188344  1
  Zn  Zn148  1  0.06414029  0.06016402  0.81273908  1
  Zn  Zn149  1  0.05989297  0.54673960  0.29993022  1
  Zn  Zn150  1  0.06315661  0.56492186  0.81056851  1
  Zn  Zn151  1  0.56568972  0.06658478  0.31531180  1
  Zn  Zn152  1  0.55919075  0.06385839  0.81443990  1
  Zn  Zn153  1  0.55956194  0.55699646  0.31315662  1
  Zn  Zn154  1  0.56193327  0.56068082  0.81298487  1
  Zn  Zn155  1  0.44161403  0.18308519  0.43222252  1
  Zn  Zn156  1  0.43390322  0.18950024  0.93719436  1
  Zn  Zn157  1  0.43488299  0.69101244  0.43786361  1
  Zn  Zn158  1  0.43277646  0.68578236  0.93334340  1
  Zn  Zn159  1  0.94410742  0.19155703  0.43984145  1
  Zn  Zn160  1  0.93541929  0.18860019  0.93766633  1
  Zn  Zn161  1  0.92505592  0.68644389  0.43512432  1
  Zn  Zn162  1  0.93517430  0.68755987  0.93877278  1
  Zn  Zn163  1  0.05990493  0.31547668  0.05729541  1
  Zn  Zn164  1  0.17625689  0.30850840  0.56788927  1
  Zn  Zn165  1  0.06131831  0.81887479  0.07063711  1
  Zn  Zn166  1  0.06411945  0.81234871  0.55774027  1
  Zn  Zn167  1  0.55815179  0.31331172  0.06265144  1
  Zn  Zn168  1  0.56805655  0.30766750  0.56162975  1
  Zn  Zn169  1  0.56074509  0.81195016  0.06662531  1
  Zn  Zn170  1  0.56313612  0.81651146  0.56208814  1
  O  O171  1  0.11617790  0.11001768  0.13497535  1
  O  O172  1  0.11733675  0.11462666  0.62096132  1
  O  O173  1  0.11892360  0.61182246  0.12506083  1
  O  O174  1  0.10942148  0.62265845  0.62177748  1
  O  O175  1  0.61857255  0.12705259  0.11662335  1
  O  O176  1  0.63103936  0.12938731  0.60823482  1
  O  O177  1  0.62092131  0.62361767  0.11103384  1
  O  O178  1  0.62342216  0.61701518  0.61625283  1
  O  O179  1  0.39045100  0.38352606  0.37572297  1
  O  O180  1  0.38677392  0.37814742  0.86912016  1
  O  O181  1  0.38598518  0.87974628  0.38305255  1
  O  O182  1  0.37988588  0.88186282  0.88059257  1
  O  O183  1  0.87686180  0.38024055  0.37342085  1
  O  O184  1  0.87243083  0.39060806  0.87169768  1
  O  O185  1  0.88050696  0.87293602  0.38605101  1
  O  O186  1  0.87829259  0.88193117  0.87949211  1
  O  O187  1  0.24917406  0.01120397  0.38082037  1
  O  O188  1  0.26155584  0.00481725  0.88235368  1
  O  O189  1  0.26608637  0.49355856  0.36955697  1
  O  O190  1  0.24781376  0.51312356  0.87140895  1
  O  O191  1  0.75064766  0.01135865  0.37144831  1
  O  O192  1  0.75527701  0.00402861  0.86732272  1
  O  O193  1  0.75468630  0.51143622  0.37413020  1
  O  O194  1  0.75362663  0.50652058  0.86785693  1
  O  O195  1  0.23844148  0.50253770  0.12164110  1
  O  O196  1  0.23671405  0.51144464  0.63123234  1
  O  O197  1  0.23840015  1.00597478  0.12131159  1
  O  O198  1  0.23511998  0.98882986  0.61727293  1
  O  O199  1  0.73541916  0.50105435  0.12084037  1
  O  O200  1  0.74537541  0.49442098  0.62868102  1
  O  O201  1  0.75135448  0.99365892  0.13292030  1
  O  O202  1  0.75575691  0.99456669  0.63964380  1
  O  O203  1  -0.00039415  0.36406568  0.25353006  1
  O  O204  1  0.00055494  0.36390932  0.75131424  1
  O  O205  1  -0.00275155  0.88120729  0.26053190  1
  O  O206  1  0.00341314  0.87059948  0.75565492  1
  O  O207  1  0.49967402  0.36143858  0.25082337  1
  O  O208  1  0.50428632  0.36411950  0.75633908  1
  O  O209  1  0.50348163  0.86888150  0.25693719  1
  O  O210  1  0.50620349  0.86863847  0.75330916  1
  O  O211  1  0.48995374  0.11876506  0.23762182  1
  O  O212  1  0.48911896  0.12972477  0.75258306  1
  O  O213  1  0.49823792  0.63725083  0.25120970  1
  O  O214  1  0.50331542  0.64125007  0.75234183  1
  O  O215  1  0.99640136  0.13520700  0.24769580  1
  O  O216  1  0.99848298  0.12633915  0.74284618  1
  O  O217  1  1.00948774  0.64046079  0.24319383  1
  O  O218  1  0.99252772  0.63278006  0.74044934  1
  O  O219  1  0.36673648  0.25069215  0.00986868  1
  O  O220  1  0.37409568  0.24640443  0.49288245  1
  O  O221  1  0.37116245  0.75700299  0.00513232  1
  O  O222  1  0.36490716  0.76320477  0.49690465  1
  O  O223  1  0.86628597  0.24907803  0.00846389  1
  O  O224  1  0.87077178  0.25757411  0.50421103  1
  O  O225  1  0.86582643  0.75692777  0.00408879  1
  O  O226  1  0.86365353  0.75840688  0.50430720  1
  O  O227  1  0.11084098  0.23556371  0.49478181  1
  O  O228  1  0.12872757  0.24922431  0.98964078  1
  O  O229  1  0.13907666  0.75201538  0.49638799  1
  O  O230  1  0.13809776  0.76266829  1.00262214  1
  O  O231  1  0.63566757  0.24393550  0.49021830  1
  O  O232  1  0.63156100  0.24280984  1.00097766  1
  O  O233  1  0.63776149  0.74821863  0.50429907  1
  O  O234  1  0.62845488  0.74423111  0.99510321  1
  O  O235  1  0.49189802  0.24276310  0.13121990  1
  O  O236  1  0.50064025  0.25039419  0.63536545  1
  O  O237  1  0.49499511  0.74946238  0.13797671  1
  O  O238  1  0.50758667  0.75123513  0.64019647  1
  O  O239  1  0.99758245  0.24287393  0.13213962  1
  O  O240  1  1.00127431  0.23723437  0.64036727  1
  O  O241  1  0.99037680  0.74277811  0.11919423  1
  O  O242  1  0.99293514  0.74542418  0.62561858  1
  O  O243  1  0.01144766  0.25930539  0.36895038  1
  O  O244  1  0.00437733  0.24463282  0.86525747  1
  O  O245  1  -0.00558870  0.75745695  0.36942178  1
  O  O246  1  -0.00072129  0.75648637  0.86915185  1
  O  O247  1  0.50711399  0.26215564  0.36864824  1
  O  O248  1  0.50124685  0.25646448  0.87122048  1
  O  O249  1  0.49357753  0.75943884  0.36083255  1
  O  O250  1  0.50542246  0.75643194  0.86811878  1
  O  O251  1  0.23578215  0.11922043  0.49526429  1
  O  O252  1  0.25594840  0.13595339  0.98515072  1
  O  O253  1  0.24629757  0.64178832  0.49788492  1
  O  O254  1  0.25256398  0.63522465  0.98776640  1
  O  O255  1  0.74832104  0.12721410  0.49712689  1
  O  O256  1  0.74207501  0.12996748  0.99727018  1
  O  O257  1  0.74198328  0.63459206  0.49419086  1
  O  O258  1  0.74171444  0.63149264  0.99436819  1
  O  O259  1  0.25283667  0.35791264  -0.00846115  1
  O  O260  1  0.21080883  0.34640079  0.46452981  1
  O  O261  1  0.26444970  0.86615169  -0.00681030  1
  O  O262  1  0.25650148  0.86916871  0.50509687  1
  O  O263  1  0.75157494  0.36235145  -0.00696110  1
  O  O264  1  0.75365604  0.36666211  0.50360555  1
  O  O265  1  0.75354130  0.87202982  0.00726217  1
  O  O266  1  0.75582004  0.87188841  0.50101054  1
  O  O267  1  0.12957028  0.48738263  0.23542025  1
  O  O268  1  0.12648592  0.50318494  0.73648405  1
  O  O269  1  0.12576648  0.99064765  0.24240932  1
  O  O270  1  0.11914957  0.98529606  0.74115564  1
  O  O271  1  0.61789127  0.50306283  0.23036218  1
  O  O272  1  0.63349275  0.50048662  0.74131708  1
  O  O273  1  0.63991382  1.00219797  0.24942143  1
  O  O274  1  0.63256654  0.99179907  0.75775487  1
  O  O275  1  0.37471120  0.00908292  0.24773840  1
  O  O276  1  0.38255812  0.01001423  0.76094229  1
  O  O277  1  0.37781393  0.50295757  0.26130701  1
  O  O278  1  0.36355999  0.50637685  0.75198762  1
  O  O279  1  0.86350400  0.01113609  0.24738893  1
  O  O280  1  0.86664391  -0.00121411  0.76188505  1
  O  O281  1  0.87360846  0.49492165  0.25543266  1
  O  O282  1  0.86852611  0.50773512  0.75357798  1
  O  O283  1  0.11217276  0.37891056  0.35428052  1
  O  O284  1  0.11829089  0.36203232  0.87131093  1
  O  O285  1  0.11571509  0.87873960  0.35985775  1
  O  O286  1  0.11903852  0.87505991  0.86763611  1
  O  O287  1  0.61294174  0.36774770  0.38192139  1
  O  O288  1  0.61168105  0.37374648  0.87331147  1
  O  O289  1  0.61317300  0.87572409  0.37565274  1
  O  O290  1  0.61944014  0.87128078  0.86663254  1
  O  O291  1  0.38170104  0.12914094  0.12757523  1
  O  O292  1  0.36647924  0.12047082  0.64080778  1
  O  O293  1  0.38235237  0.63844953  0.12184467  1
  O  O294  1  0.38048666  0.62706831  0.62806445  1
  O  O295  1  0.88425378  0.13297995  0.13696285  1
  O  O296  1  0.88978011  0.12358070  0.62681427  1
  O  O297  1  0.88562560  0.63450624  0.12174258  1
  O  O298  1  0.88253047  0.62954051  0.62565738  1
  O  O299  1  0.25682019  0.24090285  0.11467387  1
  O  O300  1  0.24349854  0.25049980  0.63340528  1
  O  O301  1  0.26051314  0.74929466  0.11422637  1
  O  O302  1  0.24383686  0.76050196  0.61702664  1
  O  O303  1  0.76178260  0.24073926  0.11424631  1
  O  O304  1  0.75227070  0.25745347  0.61800719  1
  O  O305  1  0.75599031  0.75709112  0.12049653  1
  O  O306  1  0.75485807  0.75758103  0.61814423  1
  O  O307  1  0.23747607  0.23475959  0.36686716  1
  O  O308  1  0.23855356  0.23998906  0.87892357  1
  O  O309  1  0.25217147  0.75607336  0.38562672  1
  O  O310  1  0.24596066  0.74188795  0.88262946  1
  O  O311  1  0.75533943  0.23648156  0.39322822  1
  O  O312  1  0.74849698  0.24148572  0.88298976  1
  O  O313  1  0.75344051  0.73701612  0.38212585  1
  O  O314  1  0.74324307  0.74567011  0.87971033  1
  O  O315  1  -0.00496662  0.12398288  0.01419773  1
  O  O316  1  0.00614183  0.11607217  0.50625158  1
  O  O317  1  0.00156336  0.62341054  0.00795053  1
  O  O318  1  -0.00260410  0.62376647  0.50348798  1
  O  O319  1  0.50496219  0.12279160  0.01061752  1
  O  O320  1  0.50807055  0.11086074  0.49388403  1
  O  O321  1  0.50684527  0.61731059  -0.00374984  1
  O  O322  1  0.51828865  0.63964817  0.49817677  1
  O  O323  1  0.49996919  0.37273182  0.49527619  1
  O  O324  1  0.49462816  0.38079625  0.99150132  1
  O  O325  1  0.49505536  0.88167423  0.49476875  1
  O  O326  1  0.49277028  0.87809566  0.99513656  1
  O  O327  1  0.99296972  0.38399767  0.47965491  1
  O  O328  1  0.98994189  0.37911667  0.99444946  1
  O  O329  1  0.99415726  0.88026831  0.48983913  1
  O  O330  1  0.99178374  0.87711297  0.99373809  1
  O  O331  1  0.49664035  0.48376008  0.37672906  1
  O  O332  1  0.50010062  0.49344573  0.88410438  1
  O  O333  1  0.49876293  0.99341258  0.38035336  1
  O  O334  1  0.49092175  0.99412792  0.88255907  1
  O  O335  1  0.98835404  0.49479642  0.37231931  1
  O  O336  1  0.98963536  0.50288814  0.87406195  1
  O  O337  1  1.00272411  0.99415367  0.38369630  1
  O  O338  1  0.99122104  0.99495792  0.87798443  1
  O  O339  1  0.00391769  0.00911608  0.12390064  1
  O  O340  1  0.00871749  0.00302092  0.61847636  1
  O  O341  1  0.00901504  0.51145887  0.12329527  1
  O  O342  1  0.00148612  0.50941528  0.61603426  1
  O  O343  1  0.50327315  0.00659511  0.11892055  1
  O  O344  1  0.49897309  -0.00547835  0.61010881  1
  O  O345  1  0.50575322  0.49936309  0.11130427  1
  O  O346  1  0.51322559  0.50149326  0.63000388  1
  O  O347  1  0.23680461  0.37408615  0.24458082  1
  O  O348  1  0.23682658  0.39803873  0.76363067  1
  O  O349  1  0.24051991  0.87679184  0.25599473  1
  O  O350  1  0.24119041  0.86916089  0.74244794  1
  O  O351  1  0.70703631  0.30187699  0.27381552  1
  O  O352  1  0.74774259  0.38004437  0.74013564  1
  O  O353  1  0.75055136  0.88424475  0.24540641  1
  O  O354  1  0.74164099  0.88206439  0.74684294  1
  O  O355  1  0.25580690  0.12342275  0.25691731  1
  O  O356  1  0.26465903  0.12199599  0.76539487  1
  O  O357  1  0.25673792  0.62130735  0.24860304  1
  O  O358  1  0.24590311  0.62044430  0.75934531  1
  O  O359  1  0.75881833  0.12264946  0.25951200  1
  O  O360  1  0.74965337  0.11729134  0.75642294  1
  O  O361  1  0.74378645  0.63156668  0.26154038  1
  O  O362  1  0.75423107  0.62286991  0.75332788  1
  O  O363  1  0.36575505  0.12105822  0.36298163  1
  O  O364  1  0.37049155  0.11470183  0.87230590  1
  O  O365  1  0.38685403  0.60619766  0.37947428  1
  O  O366  1  0.35904732  0.62612826  0.86721171  1
  O  O367  1  0.87311744  0.13169619  0.36518877  1
  O  O368  1  0.86744734  0.11553061  0.87498591  1
  O  O369  1  0.85790049  0.61541622  0.37533549  1
  O  O370  1  0.86800946  0.61799942  0.86878363  1
  O  O371  1  0.11844544  0.38474222  0.13221846  1
  O  O372  1  0.11747920  0.39283743  0.62200257  1
  O  O373  1  0.12090477  0.88903064  0.14146596  1
  O  O374  1  0.12905502  0.87895593  0.63104082  1
  O  O375  1  0.62588094  0.38372556  0.12095546  1
  O  O376  1  0.63707438  0.38239049  0.62282467  1
  O  O377  1  0.63909771  0.87705332  0.12610245  1
  O  O378  1  0.63215990  0.87375522  0.63754649  1
  O  O379  1  0.12065177  0.26124122  0.25212362  1
  O  O380  1  0.11577800  0.24812415  0.76130557  1
  O  O381  1  0.12278514  0.76348467  0.24481730  1
  O  O382  1  0.11581562  0.76159052  0.74962210  1
  O  O383  1  0.59544249  0.21744671  0.25963075  1
  O  O384  1  0.61485057  0.24836620  0.75400949  1
  O  O385  1  0.61099129  0.75411734  0.24577660  1
  O  O386  1  0.61872579  0.75890811  0.75657012  1
  O  O387  1  0.38342940  0.23282302  0.23990558  1
  O  O388  1  0.38651416  0.22916085  0.76094127  1
  O  O389  1  0.38556598  0.75048987  0.24211010  1
  O  O390  1  0.39124162  0.75436037  0.75452554  1
  O  O391  1  0.88460614  0.24362311  0.24473350  1
  O  O392  1  0.88231408  0.24610728  0.74796842  1
  O  O393  1  0.87228799  0.75432380  0.23805392  1
  O  O394  1  0.87819506  0.74630090  0.74250493  1
  O  O395  1  0.36597583  0.49395915  0.48860611  1
  O  O396  1  0.38241258  0.49774368  0.99603867  1
  O  O397  1  0.38596226  0.99246211  0.49739206  1
  O  O398  1  0.38052384  0.99179880  0.99551076  1
  O  O399  1  0.87839006  0.49402932  0.48946579  1
  O  O400  1  0.87332922  0.50175586  0.98995760  1
  O  O401  1  0.88730491  0.99163782  0.50524045  1
  O  O402  1  0.87211851  0.99493289  0.98965406  1
  O  O403  1  0.12302415  -0.00815437  0.01767993  1
  O  O404  1  0.11399933  0.00228881  0.50639097  1
  O  O405  1  0.12492853  0.49163522  0.01152610  1
  O  O406  1  0.11507847  0.51216738  0.50102501  1
  O  O407  1  0.61885842  0.00853798  0.00340558  1
  O  O408  1  0.61234798  0.00683254  0.49790255  1
  O  O409  1  0.61800559  0.50726709  0.00533444  1
  O  O410  1  0.63266205  0.51106396  0.50971338  1
  O  O411  1  0.37798303  0.36155909  0.12548282  1
  O  O412  1  0.36493803  0.35750465  0.66172360  1
  O  O413  1  0.38133734  0.86385780  0.11511478  1
  O  O414  1  0.36348086  0.88071142  0.61660439  1
  O  O415  1  0.87743356  0.35989735  0.12722800  1
  O  O416  1  0.86402339  0.37753126  0.61771569  1
  O  O417  1  0.86548644  0.86996361  0.12070410  1
  O  O418  1  0.86995168  0.87156336  0.61421996  1
  O  O419  1  0.12907849  0.13093048  0.38258291  1
  O  O420  1  0.13553854  0.12795812  0.87024520  1
  O  O421  1  0.10801711  0.63832094  0.36236639  1
  O  O422  1  0.13719734  0.63013561  0.87232877  1
  O  O423  1  0.63851377  0.13433779  0.38283403  1
  O  O424  1  0.62849320  0.12468175  0.88953793  1
  O  O425  1  0.63664143  0.61658403  0.38066972  1
  O  O426  1  0.62990149  0.62893199  0.88406254  1
