# generated using pymatgen
data_V85Zn86O256
_symmetry_space_group_name_H-M   'P 1'
_cell_length_a   16.92447045
_cell_length_b   16.92553518
_cell_length_c   16.92565452
_cell_angle_alpha   90.01642457
_cell_angle_beta   89.92372794
_cell_angle_gamma   89.89789701
_symmetry_Int_Tables_number   1
_chemical_formula_structural   V85Zn86O256
_chemical_formula_sum   'V85 Zn86 O256'
_cell_volume   4848.43835845
_cell_formula_units_Z   1
loop_
 _symmetry_equiv_pos_site_id
 _symmetry_equiv_pos_as_xyz
  1  'x, y, z'
loop_
 _atom_site_type_symbol
 _atom_site_label
 _atom_site_symmetry_multiplicity
 _atom_site_fract_x
 _atom_site_fract_y
 _atom_site_fract_z
 _atom_site_occupancy
  V  V0  1  0.37449949  0.00529167  0.37329689  1
  V  V1  1  0.75226106  0.73946691  0.00179205  1
  V  V2  1  -0.01456005  0.12807763  0.13028961  1
  V  V3  1  0.87467942  0.25036886  0.62285034  1
  V  V4  1  0.50218654  0.00525289  0.00046158  1
  V  V5  1  0.38165144  0.74246085  0.62481481  1
  V  V6  1  0.12505311  0.12494511  0.01199866  1
  V  V7  1  0.25020039  -0.00026818  0.74908335  1
  V  V8  1  0.13392137  0.12286341  0.49369277  1
  V  V9  1  0.50177125  0.87422385  0.87323759  1
  V  V10  1  0.62686217  0.87479057  0.74847067  1
  V  V11  1  0.37639523  0.50362285  0.37452111  1
  V  V12  1  0.00191006  0.74402531  0.24362348  1
  V  V13  1  0.12680631  0.00076230  0.62261935  1
  V  V14  1  0.37643069  0.00338014  0.87410166  1
  V  V15  1  0.24529401  0.12458821  0.87650488  1
  V  V16  1  0.24408912  0.87949446  0.12543109  1
  V  V17  1  0.25822285  0.61426673  0.87571041  1
  V  V18  1  0.75601837  0.86703341  0.62188634  1
  V  V19  1  0.75308754  0.36928463  0.14470739  1
  V  V20  1  0.24760274  0.50755524  0.25562408  1
  V  V21  1  0.73824369  0.12879019  0.36776059  1
  V  V22  1  0.37108337  0.25195474  0.62482441  1
  V  V23  1  0.37422836  0.62952561  0.25579566  1
  V  V24  1  0.63844946  0.75724153  0.37261980  1
  V  V25  1  0.87653930  0.12580803  0.74914133  1
  V  V26  1  0.74874842  0.50279648  0.76155141  1
  V  V27  1  0.50749493  -0.00333604  0.48931050  1
  V  V28  1  0.37238178  0.37944869  0.50181632  1
  V  V29  1  0.50228234  0.74147498  0.74652115  1
  V  V30  1  0.62574512  0.48860857  0.13908450  1
  V  V31  1  0.12728130  0.74623611  0.87228022  1
  V  V32  1  -0.00095684  0.25247965  0.75134728  1
  V  V33  1  0.87728912  0.74365851  0.12374636  1
  V  V34  1  -0.01346147  0.24954221  0.24900536  1
  V  V35  1  0.00504187  -0.00125948  0.00648868  1
  V  V36  1  0.86664777  0.87759501  0.00558644  1
  V  V37  1  -0.00494866  0.75048818  0.74255460  1
  V  V38  1  0.12155301  0.38288833  0.73942801  1
  V  V39  1  0.24331181  0.00536881  0.25097591  1
  V  V40  1  0.00383092  0.49808290  0.50537922  1
  V  V41  1  0.37849585  0.75117907  0.12587195  1
  V  V42  1  0.25273460  0.75009435  -0.00205077  1
  V  V43  1  0.11853906  0.50875777  0.12723826  1
  V  V44  1  0.13822796  0.24765703  0.36965650  1
  V  V45  1  0.25258425  0.74623391  0.49270329  1
  V  V46  1  0.63231226  0.74230740  0.87564327  1
  V  V47  1  0.49075766  0.48842112  0.00012031  1
  V  V48  1  0.87038234  0.62687452  0.75294356  1
  V  V49  1  0.87635579  0.00985696  0.36903367  1
  V  V50  1  -0.00823762  0.51260029  0.00731917  1
  V  V51  1  0.12550258  0.74746629  0.37360801  1
  V  V52  1  0.00313521  0.37463251  0.37558872  1
  V  V53  1  0.62918253  -0.01403225  0.12816252  1
  V  V54  1  0.50523420  0.62248982  0.12478560  1
  V  V55  1  0.86500272  0.50578346  0.37315162  1
  V  V56  1  0.00049196  0.87590000  0.87526023  1
  V  V57  1  0.25107582  0.49669291  0.73806277  1
  V  V58  1  0.62079503  0.37503075  0.75061080  1
  V  V59  1  0.00089480  0.00222268  0.49668550  1
  V  V60  1  0.24847202  0.26205695  -0.00039110  1
  V  V61  1  0.74707762  0.38175937  0.62461156  1
  V  V62  1  0.24804262  0.25487603  0.50461731  1
  V  V63  1  0.75895764  0.25406685  0.00301841  1
  V  V64  1  0.87379481  0.37243692  0.49543827  1
  V  V65  1  0.13196378  0.37534879  0.24834087  1
  V  V66  1  0.50148075  0.12552536  0.62057456  1
  V  V67  1  0.25287530  0.87288633  0.62288302  1
  V  V68  1  0.62684248  0.12428890  0.00220555  1
  V  V69  1  0.38237918  0.87299749  0.49310142  1
  V  V70  1  0.75152174  -0.01097430  0.24587067  1
  V  V71  1  0.37695470  0.25493854  0.12648860  1
  V  V72  1  0.13026245  0.61935589  0.50229620  1
  V  V73  1  0.62682880  0.00350777  0.61885228  1
  V  V74  1  0.87780835  0.87017803  0.49927209  1
  V  V75  1  0.51040363  0.76176025  0.25450960  1
  V  V76  1  0.37657102  0.87642021  -0.00063441  1
  V  V77  1  0.12602598  0.87332800  0.74787230  1
  V  V78  1  -0.00230031  0.62438509  0.62464194  1
  V  V79  1  -0.00509312  0.37977531  0.88019985  1
  V  V80  1  0.62154672  0.25115615  0.87489367  1
  V  V81  1  0.62624455  0.62345357  0.49915607  1
  V  V82  1  0.75188126  0.12422524  0.87454144  1
  V  V83  1  0.75213817  -0.00001349  0.74739020  1
  V  V84  1  0.73350088  0.24191591  0.49975176  1
  Zn  Zn85  1  0.49636353  0.24992254  0.74807751  1
  Zn  Zn86  1  0.49440732  0.50983610  0.50767483  1
  Zn  Zn87  1  0.47356827  0.39134133  0.86813932  1
  Zn  Zn88  1  0.25299205  0.38166537  0.11984121  1
  Zn  Zn89  1  0.87018347  0.62456731  0.25694095  1
  Zn  Zn90  1  0.12274356  0.87539819  0.24714390  1
  Zn  Zn91  1  0.87739250  -0.00056464  0.87486365  1
  Zn  Zn92  1  0.87274882  0.37991291  0.00907731  1
  Zn  Zn93  1  0.00097560  0.87650960  0.37025740  1
  Zn  Zn94  1  0.60685516  0.51883569  0.63444522  1
  Zn  Zn95  1  0.51030898  0.37396660  0.37092726  1
  Zn  Zn96  1  0.76196673  0.73903461  0.49445408  1
  Zn  Zn97  1  0.51553774  0.24879191  0.26111605  1
  Zn  Zn98  1  0.38513937  0.60830541  0.74918085  1
  Zn  Zn99  1  0.37411248  0.12393951  0.74737399  1
  Zn  Zn100  1  0.63016396  0.61677977  -0.00017352  1
  Zn  Zn101  1  0.12073065  0.25132463  0.87606604  1
  Zn  Zn102  1  0.86613419  0.50783511  0.88716018  1
  Zn  Zn103  1  0.37547528  0.12411466  0.24995280  1
  Zn  Zn104  1  0.49948589  0.12509105  0.13132782  1
  Zn  Zn105  1  0.12402275  0.62723603  0.00434104  1
  Zn  Zn106  1  0.00193025  0.12632048  0.62426505  1
  Zn  Zn107  1  0.19055633  0.18835460  0.18508122  1
  Zn  Zn108  1  0.18386436  0.18896932  0.68758015  1
  Zn  Zn109  1  0.19000321  0.68916056  0.18669141  1
  Zn  Zn110  1  0.18925261  0.68245322  0.68413211  1
  Zn  Zn111  1  0.69350967  0.18017016  0.18392746  1
  Zn  Zn112  1  0.68711346  0.18816723  0.68459803  1
  Zn  Zn113  1  0.69359335  0.68649296  0.18679915  1
  Zn  Zn114  1  0.68918672  0.68761838  0.68323807  1
  Zn  Zn115  1  0.34989746  0.29662829  0.32835837  1
  Zn  Zn116  1  0.30561726  0.31340332  0.80778167  1
  Zn  Zn117  1  0.31471651  0.81567996  0.31235100  1
  Zn  Zn118  1  0.31546268  0.81073462  0.81134805  1
  Zn  Zn119  1  0.67940655  0.31057745  0.31788531  1
  Zn  Zn120  1  0.81121158  0.31516692  0.81573615  1
  Zn  Zn121  1  0.81899197  0.81622772  0.31185189  1
  Zn  Zn122  1  0.81443205  0.81264485  0.81505656  1
  Zn  Zn123  1  0.19229544  0.43792479  0.43601618  1
  Zn  Zn124  1  0.17607993  0.44043938  0.93490576  1
  Zn  Zn125  1  0.19077322  0.93291985  0.43311670  1
  Zn  Zn126  1  0.18559450  0.93800529  0.93905725  1
  Zn  Zn127  1  0.68655777  0.44320357  0.44233075  1
  Zn  Zn128  1  0.67923400  0.43569391  0.94404281  1
  Zn  Zn129  1  0.69137636  0.93556543  0.43334030  1
  Zn  Zn130  1  0.68826273  0.93605788  0.93450398  1
  Zn  Zn131  1  0.31392837  0.06644884  0.06449681  1
  Zn  Zn132  1  0.31502350  0.06299435  0.55879409  1
  Zn  Zn133  1  0.31214425  0.56391438  0.06824466  1
  Zn  Zn134  1  0.31266411  0.56431707  0.56520832  1
  Zn  Zn135  1  0.81354429  0.06100126  0.06358333  1
  Zn  Zn136  1  0.81436451  0.06216649  0.56052057  1
  Zn  Zn137  1  0.80595102  0.56812018  0.09390182  1
  Zn  Zn138  1  0.81234913  0.56369337  0.56337451  1
  Zn  Zn139  1  0.43872656  0.43262700  0.18970901  1
  Zn  Zn140  1  0.43441242  0.43423284  0.68491790  1
  Zn  Zn141  1  0.43638623  0.93975137  0.18554239  1
  Zn  Zn142  1  0.43949228  0.93443369  0.68375286  1
  Zn  Zn143  1  0.93679932  0.43345701  0.19084550  1
  Zn  Zn144  1  0.93434421  0.44089476  0.68714244  1
  Zn  Zn145  1  0.93933369  0.93616771  0.18725805  1
  Zn  Zn146  1  0.93880780  0.93872108  0.68393523  1
  Zn  Zn147  1  0.06473259  0.06565257  0.30984193  1
  Zn  Zn148  1  0.06270885  0.06279082  0.81508357  1
  Zn  Zn149  1  0.05843156  0.56519932  0.31775529  1
  Zn  Zn150  1  0.06085833  0.56181937  0.81602892  1
  Zn  Zn151  1  0.56540225  0.06703550  0.30788089  1
  Zn  Zn152  1  0.56304441  0.06519426  0.80941780  1
  Zn  Zn153  1  0.56281337  0.56899577  0.31796909  1
  Zn  Zn154  1  0.56340269  0.56074617  0.81855245  1
  Zn  Zn155  1  0.44101363  0.18254437  0.44193752  1
  Zn  Zn156  1  0.41573548  0.22102119  0.91949204  1
  Zn  Zn157  1  0.44550452  0.68898926  0.43359333  1
  Zn  Zn158  1  0.44027793  0.68376693  0.93672001  1
  Zn  Zn159  1  0.93969198  0.18867588  0.43264600  1
  Zn  Zn160  1  0.93885983  0.18705523  0.93764938  1
  Zn  Zn161  1  0.94256601  0.68578528  0.43367684  1
  Zn  Zn162  1  0.93626629  0.68911320  0.93431530  1
  Zn  Zn163  1  0.06139391  0.31515399  0.06521045  1
  Zn  Zn164  1  0.06237672  0.31021096  0.56290983  1
  Zn  Zn165  1  0.06296276  0.81186227  0.06106427  1
  Zn  Zn166  1  0.06343469  0.81220146  0.56012164  1
  Zn  Zn167  1  0.56305940  0.31224192  0.06571721  1
  Zn  Zn168  1  0.55756906  0.32034103  0.56051460  1
  Zn  Zn169  1  0.56422525  0.81040194  0.06112973  1
  Zn  Zn170  1  0.56767883  0.81042513  0.55859648  1
  O  O171  1  0.11905423  0.12566944  0.11460396  1
  O  O172  1  0.12338950  0.11786293  0.61540193  1
  O  O173  1  0.12795555  0.61355374  0.12521602  1
  O  O174  1  0.11280812  0.62960764  0.61358126  1
  O  O175  1  0.62512491  0.11596462  0.11052432  1
  O  O176  1  0.61977180  0.11124282  0.62810275  1
  O  O177  1  0.61783609  0.61387609  0.12327802  1
  O  O178  1  0.62453107  0.63312544  0.60891565  1
  O  O179  1  0.36393198  0.39261525  0.38644134  1
  O  O180  1  0.38395137  0.32845997  0.88384992  1
  O  O181  1  0.37475071  0.88082096  0.38764199  1
  O  O182  1  0.38028432  0.88233834  0.88026974  1
  O  O183  1  0.88461305  0.38301482  0.39047823  1
  O  O184  1  0.88479421  0.38092750  0.87622072  1
  O  O185  1  0.87758591  0.88979469  0.38312080  1
  O  O186  1  0.88533110  0.87601407  0.88400066  1
  O  O187  1  0.25911595  -0.00941925  0.36000868  1
  O  O188  1  0.25332164  0.00764267  0.87169257  1
  O  O189  1  0.25569253  0.50492206  0.36251828  1
  O  O190  1  0.24320929  0.51184455  0.87181969  1
  O  O191  1  0.75629786  0.00807826  0.36752521  1
  O  O192  1  0.75351292  0.00610064  0.86630217  1
  O  O193  1  0.76695053  0.49536106  0.38014908  1
  O  O194  1  0.74679857  0.49492494  0.86494653  1
  O  O195  1  0.24277764  0.49984573  0.13692161  1
  O  O196  1  0.24676562  0.50275424  0.63947259  1
  O  O197  1  0.25811958  0.99128815  0.13825571  1
  O  O198  1  0.24650395  0.99427223  0.62789595  1
  O  O199  1  0.73319482  0.47951061  0.11962028  1
  O  O200  1  0.74858433  0.48794690  0.63176579  1
  O  O201  1  0.74648207  1.00483332  0.13818847  1
  O  O202  1  0.74355638  0.99497765  0.62725874  1
  O  O203  1  0.01250509  0.36766629  0.25439075  1
  O  O204  1  0.00525552  0.37483253  0.75567260  1
  O  O205  1  0.00433020  0.86504977  0.25154615  1
  O  O206  1  0.00511669  0.86830960  0.75229105  1
  O  O207  1  0.49011999  0.36283897  0.25729485  1
  O  O208  1  0.50687722  0.37114642  0.75458479  1
  O  O209  1  0.50091109  0.85941135  0.24086287  1
  O  O210  1  0.50719147  0.86781959  0.75481759  1
  O  O211  1  0.49370629  0.12977220  0.24890509  1
  O  O212  1  0.49747800  0.12406469  0.73440008  1
  O  O213  1  0.49438618  0.63245759  0.24022298  1
  O  O214  1  0.49982265  0.63691790  0.75633126  1
  O  O215  1  1.00452000  0.13180803  0.23695542  1
  O  O216  1  0.99450873  0.13261708  0.75006266  1
  O  O217  1  0.99415082  0.63933649  0.25666648  1
  O  O218  1  0.99703044  0.63088360  0.74335053  1
  O  O219  1  0.35668660  0.23820637  0.01602159  1
  O  O220  1  0.36421655  0.25564648  0.50551943  1
  O  O221  1  0.37231048  0.75598916  0.00366432  1
  O  O222  1  0.37253187  0.75352570  0.50349978  1
  O  O223  1  0.86150871  0.25128855  -0.00477359  1
  O  O224  1  0.87456860  0.25700982  0.50516418  1
  O  O225  1  0.87035877  0.75902170  0.00021795  1
  O  O226  1  0.87970004  0.76526136  0.49180349  1
  O  O227  1  0.13015774  0.24359044  0.49444261  1
  O  O228  1  0.13023701  0.24222518  0.99905602  1
  O  O229  1  0.13436267  0.74458087  0.49485854  1
  O  O230  1  0.13260853  0.74868374  0.98991658  1
  O  O231  1  0.63583334  0.24717904  0.51128434  1
  O  O232  1  0.63009639  0.24152540  0.99388991  1
  O  O233  1  0.63094544  0.74608320  0.48689434  1
  O  O234  1  0.63514490  0.74973001  0.99263253  1
  O  O235  1  0.48460734  0.24748002  0.12009441  1
  O  O236  1  0.49224414  0.24137958  0.62279706  1
  O  O237  1  0.49979089  0.74232074  0.13203544  1
  O  O238  1  0.49375122  0.75820193  0.63454205  1
  O  O239  1  1.00457190  0.23849000  0.13333887  1
  O  O240  1  0.99219169  0.24850932  0.63240924  1
  O  O241  1  0.99741800  0.75603470  0.13503114  1
  O  O242  1  1.00469356  0.74457941  0.63562174  1
  O  O243  1  0.01307554  0.25522490  0.36869539  1
  O  O244  1  -0.00170044  0.25857960  0.86805624  1
  O  O245  1  0.00937775  0.75376090  0.36788264  1
  O  O246  1  0.00980065  0.75407918  0.86468103  1
  O  O247  1  0.45931368  0.26065523  0.36679723  1
  O  O248  1  0.51895304  0.23217070  0.86824691  1
  O  O249  1  0.51039216  0.75029974  0.35892246  1
  O  O250  1  0.50718599  0.75628971  0.86873763  1
  O  O251  1  0.23892453  0.13022624  0.50013601  1
  O  O252  1  0.23970279  0.12534790  0.99400313  1
  O  O253  1  0.24153510  0.63371280  0.50590380  1
  O  O254  1  0.25019613  0.62985662  0.99059111  1
  O  O255  1  0.75416692  0.13786664  0.49621208  1
  O  O256  1  0.74517422  0.12985257  0.99546319  1
  O  O257  1  0.73883847  0.62711840  0.50469626  1
  O  O258  1  0.75153030  0.63636091  1.00450803  1
  O  O259  1  0.24032008  0.36490539  -0.00439232  1
  O  O260  1  0.25704597  0.36700926  0.50167776  1
  O  O261  1  0.25671497  0.87225124  0.00469089  1
  O  O262  1  0.25847241  0.86640166  0.50488918  1
  O  O263  1  0.75021934  0.36503141  0.00145390  1
  O  O264  1  0.75655278  0.36433949  0.50793369  1
  O  O265  1  0.76385017  0.87250581  -0.00604782  1
  O  O266  1  0.76197420  0.87596539  0.50601917  1
  O  O267  1  0.12795546  0.49826834  0.24819387  1
  O  O268  1  0.13005822  0.48981934  0.75379751  1
  O  O269  1  0.13909551  0.99452557  0.25562468  1
  O  O270  1  0.12936401  0.99262629  0.74466549  1
  O  O271  1  0.61726573  0.50328130  0.23725938  1
  O  O272  1  0.63022368  0.49442405  0.74964747  1
  O  O273  1  0.63876858  1.00428518  0.24072251  1
  O  O274  1  0.63152215  0.99369987  0.74223416  1
  O  O275  1  0.36827952  -0.00192313  0.25816484  1
  O  O276  1  0.36835903  -0.00045751  0.75520488  1
  O  O277  1  0.36754490  0.50901927  0.25499894  1
  O  O278  1  0.35689761  0.49249577  0.75305744  1
  O  O279  1  0.86507518  -0.00250532  0.25612428  1
  O  O280  1  0.87141089  0.00813379  0.74954530  1
  O  O281  1  0.88673747  0.49775300  0.27176074  1
  O  O282  1  0.86468696  0.50751241  0.75238140  1
  O  O283  1  0.12205243  0.36827545  0.36942757  1
  O  O284  1  0.10877242  0.37388044  0.86717062  1
  O  O285  1  0.12402696  0.85996691  0.37497254  1
  O  O286  1  0.12233349  0.86450398  0.86943896  1
  O  O287  1  0.62220319  0.37012009  0.39183455  1
  O  O288  1  0.62422161  0.36561921  0.86455270  1
  O  O289  1  0.62751608  0.85710063  0.37741507  1
  O  O290  1  0.62095395  0.86684378  0.86766615  1
  O  O291  1  0.37853790  0.13358187  0.12718639  1
  O  O292  1  0.38222034  0.13272504  0.62268835  1
  O  O293  1  0.38204630  0.63302073  0.13550966  1
  O  O294  1  0.37125599  0.63894005  0.63134623  1
  O  O295  1  0.88678762  0.12933746  0.12201310  1
  O  O296  1  0.87721971  0.13086599  0.63265889  1
  O  O297  1  0.89368868  0.64541518  0.10879051  1
  O  O298  1  0.88889540  0.62189755  0.63413941  1
  O  O299  1  0.25034556  0.25562550  0.11375870  1
  O  O300  1  0.25458845  0.24272564  0.61289323  1
  O  O301  1  0.25853659  0.75650349  0.11756551  1
  O  O302  1  0.25750196  0.75442341  0.61606105  1
  O  O303  1  0.74302301  0.26190563  0.11612073  1
  O  O304  1  0.75536433  0.25671606  0.61617215  1
  O  O305  1  0.76169974  0.75615153  0.11223581  1
  O  O306  1  0.75077979  0.76461908  0.62092969  1
  O  O307  1  0.24307274  0.25416613  0.38531001  1
  O  O308  1  0.24332705  0.23681371  0.88097351  1
  O  O309  1  0.24690315  0.75316018  0.38647437  1
  O  O310  1  0.24428671  0.74396789  0.87713345  1
  O  O311  1  0.74926252  0.23749684  0.38885541  1
  O  O312  1  0.74047725  0.24403133  0.88070349  1
  O  O313  1  0.74301009  0.75084039  0.37132683  1
  O  O314  1  0.74191921  0.75589588  0.88450472  1
  O  O315  1  0.00413238  0.12061986  0.00932417  1
  O  O316  1  0.00943520  0.11512270  0.49904198  1
  O  O317  1  0.00488231  0.61495582  -0.00902047  1
  O  O318  1  0.00532356  0.61844310  0.50720776  1
  O  O319  1  0.50928140  0.11122238  -0.00276881  1
  O  O320  1  0.49785382  0.11225553  0.51142431  1
  O  O321  1  0.50058756  0.62138872  0.01382571  1
  O  O322  1  0.51638250  0.62843154  0.49692999  1
  O  O323  1  0.48138042  0.37776652  0.49711174  1
  O  O324  1  0.50294035  0.38588142  0.99735342  1
  O  O325  1  0.49259840  0.88353926  0.50637527  1
  O  O326  1  0.49753706  0.88448256  0.99324030  1
  O  O327  1  0.99509649  0.38065896  0.49930688  1
  O  O328  1  0.99530277  0.38276960  0.99507154  1
  O  O329  1  0.99715397  0.88736195  0.49840857  1
  O  O330  1  0.99744730  0.88337102  0.99554470  1
  O  O331  1  0.48549341  0.50197854  0.37860399  1
  O  O332  1  0.49825474  0.50225647  0.89246710  1
  O  O333  1  0.49572084  1.00218520  0.38443676  1
  O  O334  1  0.49747106  0.99544881  0.87970920  1
  O  O335  1  0.99798833  0.49346936  0.38950884  1
  O  O336  1  0.99618053  0.49522119  0.88654220  1
  O  O337  1  0.99484334  1.00115068  0.37896072  1
  O  O338  1  0.99930088  0.99335752  0.88383072  1
  O  O339  1  -0.00297093  0.01435818  0.11946571  1
  O  O340  1  0.00925272  0.00196673  0.61463514  1
  O  O341  1  0.00586286  0.49552227  0.11904610  1
  O  O342  1  -0.00207371  0.50656548  0.61376423  1
  O  O343  1  0.50908982  0.00055846  0.11665496  1
  O  O344  1  0.50813628  0.00362673  0.61672102  1
  O  O345  1  0.50653648  0.50297700  0.12096659  1
  O  O346  1  0.49568219  0.50092109  0.62227714  1
  O  O347  1  0.23734459  0.38658701  0.25058923  1
  O  O348  1  0.23324406  0.38590350  0.75654051  1
  O  O349  1  0.24981804  0.88055790  0.24053469  1
  O  O350  1  0.24550135  0.87930821  0.74417766  1
  O  O351  1  0.75141934  0.36698520  0.24268173  1
  O  O352  1  0.74366852  0.38161324  0.74361650  1
  O  O353  1  0.75085734  0.89025947  0.25383420  1
  O  O354  1  0.74932418  0.88061237  0.74185312  1
  O  O355  1  0.24921675  0.10807292  0.24621913  1
  O  O356  1  0.24577631  0.11721607  0.75852464  1
  O  O357  1  0.26178235  0.62096189  0.24576810  1
  O  O358  1  0.24891666  0.61078454  0.75675643  1
  O  O359  1  0.75372734  0.11722250  0.26481326  1
  O  O360  1  0.75648653  0.12083273  0.75301489  1
  O  O361  1  0.77388829  0.61138332  0.20136136  1
  O  O362  1  0.75819542  0.61584221  0.74170137  1
  O  O363  1  0.37136705  0.10763828  0.37887854  1
  O  O364  1  0.36347066  0.12122966  0.87265543  1
  O  O365  1  0.37884238  0.62315426  0.36337592  1
  O  O366  1  0.36139768  0.63195656  0.86781650  1
  O  O367  1  0.86663893  0.11360966  0.38303421  1
  O  O368  1  0.86986975  0.12421994  0.86630443  1
  O  O369  1  0.87566823  0.61109438  0.37841678  1
  O  O370  1  0.87876330  0.62383685  0.85852758  1
  O  O371  1  0.12685269  0.38692761  0.13330565  1
  O  O372  1  0.11790610  0.37515323  0.64047141  1
  O  O373  1  0.14069007  0.87181658  0.12291496  1
  O  O374  1  0.13254151  0.88029595  0.62755443  1
  O  O375  1  0.62991826  0.38155259  0.12877242  1
  O  O376  1  0.63125853  0.37371301  0.63662347  1
  O  O377  1  0.62685242  0.88708295  0.11781400  1
  O  O378  1  0.63427016  0.88319980  0.62933993  1
  O  O379  1  0.12800414  0.25774482  0.25630958  1
  O  O380  1  0.11755173  0.26194458  0.75162387  1
  O  O381  1  0.12096254  0.74908571  0.25716693  1
  O  O382  1  0.12137188  0.75418188  0.75410294  1
  O  O383  1  0.62810065  0.23451652  0.25512121  1
  O  O384  1  0.62682329  0.25793206  0.75604262  1
  O  O385  1  0.61958589  0.74335391  0.25789183  1
  O  O386  1  0.62160679  0.75447639  0.75573681  1
  O  O387  1  0.35302314  0.24189237  0.22953639  1
  O  O388  1  0.37141884  0.24426333  0.73659101  1
  O  O389  1  0.38605318  0.74653578  0.24740412  1
  O  O390  1  0.38629620  0.75321446  0.74051481  1
  O  O391  1  0.89139507  0.25405469  0.25921316  1
  O  O392  1  0.87843393  0.24650118  0.74438670  1
  O  O393  1  0.88259915  0.75033704  0.24126514  1
  O  O394  1  0.88530420  0.74402137  0.75258197  1
  O  O395  1  0.36896820  0.49663626  0.49303571  1
  O  O396  1  0.39161585  0.50242101  1.01217243  1
  O  O397  1  0.38155082  0.99073853  0.49394375  1
  O  O398  1  0.38418261  0.99717168  0.99459857  1
  O  O399  1  0.88255368  0.49293938  0.49666888  1
  O  O400  1  0.87878706  0.50283959  1.00647093  1
  O  O401  1  0.88550658  0.99575647  0.49396151  1
  O  O402  1  0.88479525  0.99366279  0.99925344  1
  O  O403  1  0.11237213  0.00677251  -0.00224373  1
  O  O404  1  0.12206110  0.00526103  0.49885120  1
  O  O405  1  0.11530608  0.50304313  0.01108149  1
  O  O406  1  0.11968394  0.50896845  0.49485983  1
  O  O407  1  0.62216139  0.00471020  0.00340231  1
  O  O408  1  0.61889139  -0.00871926  0.50717857  1
  O  O409  1  0.61252224  0.50075943  0.01185449  1
  O  O410  1  0.62291528  0.51425031  0.50589656  1
  O  O411  1  0.36966268  0.36063464  0.12422840  1
  O  O412  1  0.37300578  0.36026553  0.61860398  1
  O  O413  1  0.36891851  0.86962007  0.11746930  1
  O  O414  1  0.37041837  0.86650370  0.61481512  1
  O  O415  1  0.85724102  0.37792275  0.12785537  1
  O  O416  1  0.86712347  0.37134932  0.61743857  1
  O  O417  1  0.88443101  0.86730060  0.11035086  1
  O  O418  1  0.86750749  0.88336482  0.61316276  1
  O  O419  1  0.12307357  0.13562396  0.38163563  1
  O  O420  1  0.13009807  0.12595984  0.88563785  1
  O  O421  1  0.12044982  0.63723594  0.38838810  1
  O  O422  1  0.13429243  0.63592659  0.87324063  1
  O  O423  1  0.64116996  0.11510186  0.38254639  1
  O  O424  1  0.63414621  0.12557247  0.88345487  1
  O  O425  1  0.62614073  0.63705329  0.38584580  1
  O  O426  1  0.62327413  0.63839129  0.87974735  1
