# generated using pymatgen
data_V85Zn86O256
_symmetry_space_group_name_H-M   'P 1'
_cell_length_a   16.93671557
_cell_length_b   16.93820534
_cell_length_c   16.93831453
_cell_angle_alpha   90.04788703
_cell_angle_beta   89.94654754
_cell_angle_gamma   89.94254172
_symmetry_Int_Tables_number   1
_chemical_formula_structural   V85Zn86O256
_chemical_formula_sum   'V85 Zn86 O256'
_cell_volume   4859.21618635
_cell_formula_units_Z   1
loop_
 _symmetry_equiv_pos_site_id
 _symmetry_equiv_pos_as_xyz
  1  'x, y, z'
loop_
 _atom_site_type_symbol
 _atom_site_label
 _atom_site_symmetry_multiplicity
 _atom_site_fract_x
 _atom_site_fract_y
 _atom_site_fract_z
 _atom_site_occupancy
  V  V0  1  0.00268176  0.87048224  0.87520011  1
  V  V1  1  0.62375280  0.49550631  0.12468500  1
  V  V2  1  0.24630597  -0.00553272  0.24951941  1
  V  V3  1  0.36225982  0.75842049  0.12826735  1
  V  V4  1  -0.00162709  0.50032233  0.50081424  1
  V  V5  1  0.74412692  0.00521565  0.74782873  1
  V  V6  1  0.24492217  0.63538219  0.87568859  1
  V  V7  1  0.38175731  0.87454730  0.49481214  1
  V  V8  1  0.87345803  0.74858355  0.12819988  1
  V  V9  1  0.00603752  0.12109058  0.12647377  1
  V  V10  1  0.36487133  0.36625423  0.49968230  1
  V  V11  1  0.37985726  0.00187888  0.37421053  1
  V  V12  1  0.00460013  -0.00078049  0.00223253  1
  V  V13  1  -0.00206680  0.49594124  0.00013514  1
  V  V14  1  0.87157599  0.62321261  0.75014407  1
  V  V15  1  0.49305503  0.49107498  -0.00209413  1
  V  V16  1  0.61280469  0.86818227  0.25081667  1
  V  V17  1  0.62786418  0.37303673  0.24955275  1
  V  V18  1  0.00100640  0.37343112  0.37464735  1
  V  V19  1  0.50435704  0.00213556  0.50412412  1
  V  V20  1  0.86977084  0.75284462  0.62703003  1
  V  V21  1  0.62662474  0.00018656  0.12736851  1
  V  V22  1  0.12517579  0.37343825  0.75021617  1
  V  V23  1  0.87220944  0.62349825  0.25351207  1
  V  V24  1  0.74885530  0.74652027  -0.00197209  1
  V  V25  1  0.24950757  0.49918492  0.24873683  1
  V  V26  1  0.85902167  0.37045355  0.00254789  1
  V  V27  1  0.50045392  -0.00290015  -0.00364097  1
  V  V28  1  0.74939928  -0.00143791  0.26246817  1
  V  V29  1  0.87322137  0.49993048  0.37646360  1
  V  V30  1  0.61089459  0.74840195  0.37572635  1
  V  V31  1  0.50197524  0.12771661  0.12532845  1
  V  V32  1  0.00346182  0.24837613  0.25144306  1
  V  V33  1  0.89221588  -0.00456169  0.37516164  1
  V  V34  1  0.37653721  0.63684950  0.74844265  1
  V  V35  1  0.00367331  0.10661905  0.61711844  1
  V  V36  1  0.25534430  0.25757247  -0.00532665  1
  V  V37  1  0.63376368  0.25176712  0.87802876  1
  V  V38  1  0.50112684  0.24898282  0.25175956  1
  V  V39  1  0.86377739  0.25179339  0.12403331  1
  V  V40  1  0.36612369  0.12780214  0.25409616  1
  V  V41  1  0.12180072  0.62948240  -0.00430072  1
  V  V42  1  0.25087863  0.50211931  0.74686449  1
  V  V43  1  0.12469787  0.49663723  0.12410318  1
  V  V44  1  0.12628544  0.62423058  0.49944606  1
  V  V45  1  0.12307240  0.88063341  0.74475466  1
  V  V46  1  0.63770855  0.13013947  -0.00025253  1
  V  V47  1  0.37679031  0.12229393  0.75678869  1
  V  V48  1  0.73828821  0.88547016  0.62087776  1
  V  V49  1  0.37256957  0.24523663  0.62374393  1
  V  V50  1  0.63913878  0.12171877  0.50298418  1
  V  V51  1  0.87193455  0.12364187  0.25697244  1
  V  V52  1  0.24809469  0.88009704  0.62153732  1
  V  V53  1  -0.00289055  0.75705656  0.25727125  1
  V  V54  1  0.12230869  0.76063703  0.37619574  1
  V  V55  1  0.37159195  -0.00699175  0.87551733  1
  V  V56  1  0.49884571  0.63799655  0.12402132  1
  V  V57  1  0.13030913  0.24210190  0.87403332  1
  V  V58  1  0.74600269  0.36603075  0.62235697  1
  V  V59  1  0.37741599  0.25901323  0.11893321  1
  V  V60  1  0.38063419  0.62823913  0.24914739  1
  V  V61  1  0.74521191  0.74586641  0.49736726  1
  V  V62  1  0.87431812  0.87526768  -0.00501065  1
  V  V63  1  0.13935564  0.24877146  0.38488624  1
  V  V64  1  0.74979059  0.49567350  0.24610697  1
  V  V65  1  0.50239075  0.24414486  0.75689792  1
  V  V66  1  0.88841761  0.87725651  0.49558664  1
  V  V67  1  0.61529871  0.37710484  0.75036971  1
  V  V68  1  0.00490459  0.74951480  0.75135285  1
  V  V69  1  0.12617172  0.50046166  0.62468109  1
  V  V70  1  0.74593750  0.49667921  0.74912465  1
  V  V71  1  0.62302016  0.62429030  -0.00338860  1
  V  V72  1  0.13560364  0.11251163  0.50066491  1
  V  V73  1  -0.00257857  0.62206135  0.12701589  1
  V  V74  1  0.37759930  0.49261401  0.87630907  1
  V  V75  1  -0.00142284  0.37102829  0.87763988  1
  V  V76  1  0.50306677  0.37104135  0.38186992  1
  V  V77  1  0.87027802  0.36776291  0.49880047  1
  V  V78  1  0.13263171  0.12324312  0.00175858  1
  V  V79  1  0.24517271  0.00876030  0.74974111  1
  V  V80  1  0.63911286  0.24181890  0.37919333  1
  V  V81  1  0.37675631  0.49704413  0.37469376  1
  V  V82  1  0.88059001  0.24777800  0.62302037  1
  V  V83  1  0.74963102  0.87507536  0.12707862  1
  V  V84  1  0.24942256  0.62748523  0.37626562  1
  Zn  Zn85  1  0.56365904  0.81594648  0.82119298  1
  Zn  Zn86  1  0.50767618  0.50610392  0.50064707  1
  Zn  Zn87  1  0.18701724  -0.06111441  0.08570619  1
  Zn  Zn88  1  0.87557635  0.00342301  0.87287959  1
  Zn  Zn89  1  0.73983512  0.62130342  0.38042444  1
  Zn  Zn90  1  0.24910518  0.75457422  0.50155487  1
  Zn  Zn91  1  0.24904143  0.37018159  0.62165495  1
  Zn  Zn92  1  0.11908489  0.88163035  0.24904546  1
  Zn  Zn93  1  0.25676646  0.37959299  0.11898222  1
  Zn  Zn94  1  0.36166327  0.88171229  0.00525812  1
  Zn  Zn95  1  0.00235187  0.24549973  0.74718213  1
  Zn  Zn96  1  0.75715552  0.12754737  0.87753339  1
  Zn  Zn97  1  0.74867197  0.62458105  0.87236500  1
  Zn  Zn98  1  0.38071182  0.75401994  0.62637165  1
  Zn  Zn99  1  0.12775718  0.37133862  0.24931746  1
  Zn  Zn100  1  0.23742282  0.76312603  0.00186384  1
  Zn  Zn101  1  -0.00079251  0.62505582  0.62499133  1
  Zn  Zn102  1  0.62593293  0.50794900  0.61438371  1
  Zn  Zn103  1  0.50587998  0.12042409  0.62670291  1
  Zn  Zn104  1  0.87336928  0.49632695  0.87423683  1
  Zn  Zn105  1  0.88050903  0.12461765  0.75241662  1
  Zn  Zn106  1  0.51552362  0.63393497  0.61478863  1
  Zn  Zn107  1  0.19004976  0.18978334  0.18516613  1
  Zn  Zn108  1  0.18691398  0.18531790  0.68137480  1
  Zn  Zn109  1  0.18370636  0.68585249  0.19017688  1
  Zn  Zn110  1  0.19091602  0.68960924  0.68392777  1
  Zn  Zn111  1  0.68911601  0.18440929  0.19291451  1
  Zn  Zn112  1  0.69020817  0.18579223  0.68717268  1
  Zn  Zn113  1  0.68544376  0.68535239  0.18772509  1
  Zn  Zn114  1  0.66785365  0.69145528  0.69461213  1
  Zn  Zn115  1  0.31442263  0.31374232  0.30819533  1
  Zn  Zn116  1  0.31329747  0.31193092  0.81070508  1
  Zn  Zn117  1  0.31395229  0.81486776  0.31305875  1
  Zn  Zn118  1  0.30736984  0.81643020  0.81516739  1
  Zn  Zn119  1  0.81378223  0.31311888  0.30949733  1
  Zn  Zn120  1  0.81351903  0.31042055  0.80822158  1
  Zn  Zn121  1  0.80794572  0.81320370  0.31676031  1
  Zn  Zn122  1  0.76753324  0.79671970  0.79339234  1
  Zn  Zn123  1  0.18835159  0.43588375  0.43647898  1
  Zn  Zn124  1  0.18909220  0.43886741  0.93442867  1
  Zn  Zn125  1  0.19618584  0.94285591  0.43084129  1
  Zn  Zn126  1  0.18506763  0.93887232  0.92054170  1
  Zn  Zn127  1  0.68834279  0.43488160  0.43738007  1
  Zn  Zn128  1  0.68163338  0.43900605  0.93171768  1
  Zn  Zn129  1  0.68751361  0.93323544  0.43692125  1
  Zn  Zn130  1  0.68664330  0.94049420  0.93074264  1
  Zn  Zn131  1  0.31553895  0.07262651  0.06359166  1
  Zn  Zn132  1  0.31454795  0.06133555  0.56588558  1
  Zn  Zn133  1  0.31120066  0.56664364  0.05990351  1
  Zn  Zn134  1  0.34362899  0.57374425  0.54985980  1
  Zn  Zn135  1  0.81725196  0.06038455  0.06941168  1
  Zn  Zn136  1  0.81835035  0.06077963  0.55879974  1
  Zn  Zn137  1  0.81105032  0.55740234  0.06367696  1
  Zn  Zn138  1  0.80652537  0.56142351  0.56628024  1
  Zn  Zn139  1  0.44288082  0.43956933  0.18860192  1
  Zn  Zn140  1  0.44010619  0.44077618  0.68387715  1
  Zn  Zn141  1  0.43692081  0.94081578  0.18537097  1
  Zn  Zn142  1  0.44006813  0.92531720  0.68482909  1
  Zn  Zn143  1  0.93620803  0.43290032  0.18655296  1
  Zn  Zn144  1  0.93782733  0.43585680  0.68618214  1
  Zn  Zn145  1  0.93948743  0.93743641  0.18592125  1
  Zn  Zn146  1  0.92917260  0.93672414  0.68866946  1
  Zn  Zn147  1  0.06735971  0.06864736  0.31814349  1
  Zn  Zn148  1  0.05830524  0.06173364  0.81118589  1
  Zn  Zn149  1  0.06187892  0.56477044  0.31318561  1
  Zn  Zn150  1  0.05965323  0.56137742  0.81271313  1
  Zn  Zn151  1  0.56088957  0.06132887  0.31547507  1
  Zn  Zn152  1  0.54211710  0.01022345  0.79055708  1
  Zn  Zn153  1  0.56124370  0.56217697  0.31447119  1
  Zn  Zn154  1  0.53483029  0.62121436  0.83632647  1
  Zn  Zn155  1  0.44145693  0.18456812  0.43881240  1
  Zn  Zn156  1  0.44108634  0.18272342  0.93543787  1
  Zn  Zn157  1  0.43654376  0.69074551  0.43846328  1
  Zn  Zn158  1  0.42876352  0.69765552  0.94300293  1
  Zn  Zn159  1  0.94167292  0.18382618  0.43851235  1
  Zn  Zn160  1  0.93833505  0.18851116  0.94023166  1
  Zn  Zn161  1  0.93561396  0.68772337  0.43953422  1
  Zn  Zn162  1  0.93434603  0.68714592  0.93517376  1
  Zn  Zn163  1  0.06132615  0.30966385  0.06277692  1
  Zn  Zn164  1  0.06209212  0.31227709  0.56050205  1
  Zn  Zn165  1  0.05754882  0.80945802  0.06805211  1
  Zn  Zn166  1  0.06286084  0.81124705  0.56625869  1
  Zn  Zn167  1  0.56456465  0.31464277  0.05935756  1
  Zn  Zn168  1  0.56006238  0.30566686  0.56386459  1
  Zn  Zn169  1  0.57127301  0.82615680  0.01860290  1
  Zn  Zn170  1  0.55847060  0.81099286  0.56229521  1
  O  O171  1  0.11656569  0.13252008  0.11627303  1
  O  O172  1  0.11334253  0.12906589  0.61234571  1
  O  O173  1  0.11838038  0.61328816  0.12049036  1
  O  O174  1  0.12533765  0.61877115  0.61734981  1
  O  O175  1  0.61907368  0.12220539  0.12331631  1
  O  O176  1  0.62559606  0.13339036  0.60643056  1
  O  O177  1  0.61561145  0.61471082  0.12337950  1
  O  O178  1  0.63011790  0.62446446  0.62055543  1
  O  O179  1  0.38339442  0.37365059  0.37961636  1
  O  O180  1  0.37311951  0.39347836  0.86888353  1
  O  O181  1  0.36990591  0.88650502  0.38300466  1
  O  O182  1  0.36977818  0.88894244  0.88025592  1
  O  O183  1  0.87948098  0.37879982  0.38149547  1
  O  O184  1  0.88338656  0.37072660  0.88274559  1
  O  O185  1  0.87349089  0.87861845  0.38762074  1
  O  O186  1  0.88007148  0.87547396  0.88993544  1
  O  O187  1  0.26505931  0.00593546  0.36025547  1
  O  O188  1  0.25796050  0.00424121  0.86208878  1
  O  O189  1  0.25401484  0.50559016  0.36638406  1
  O  O190  1  0.25692641  0.50707737  0.86724636  1
  O  O191  1  0.76050032  -0.00813261  0.36437386  1
  O  O192  1  0.75221803  0.00077369  0.86110574  1
  O  O193  1  0.75655762  0.50186504  0.36684000  1
  O  O194  1  0.75387654  0.49702654  0.86042382  1
  O  O195  1  0.24320424  0.50062355  0.13020338  1
  O  O196  1  0.24513093  0.49674031  0.63876959  1
  O  O197  1  0.25835214  1.00818012  0.14237714  1
  O  O198  1  0.25403879  0.98884489  0.63561643  1
  O  O199  1  0.73706050  0.50296144  0.13426295  1
  O  O200  1  0.75095657  0.48491688  0.63337885  1
  O  O201  1  0.74553924  0.99360356  0.13499856  1
  O  O202  1  0.75582863  0.99166078  0.62769832  1
  O  O203  1  0.00204235  0.36563123  0.25611221  1
  O  O204  1  0.01117625  0.37396233  0.75745088  1
  O  O205  1  -0.00642615  0.86002214  0.25230837  1
  O  O206  1  0.00238590  0.87026894  0.75477862  1
  O  O207  1  0.50686226  0.37014538  0.26132864  1
  O  O208  1  0.51003029  0.36415570  0.74501308  1
  O  O209  1  0.51497499  0.87869396  0.24442295  1
  O  O210  1  0.51248720  0.90197863  0.76299593  1
  O  O211  1  0.49633899  0.12937077  0.24029090  1
  O  O212  1  0.49341865  0.12384728  0.74718212  1
  O  O213  1  0.48660445  0.61811222  0.24197528  1
  O  O214  1  0.47642775  0.61770966  0.73821449  1
  O  O215  1  0.99686424  0.13029062  0.24462338  1
  O  O216  1  1.00302750  0.12587855  0.73203857  1
  O  O217  1  0.99069846  0.62922169  0.24607226  1
  O  O218  1  0.99214599  0.63296451  0.74907684  1
  O  O219  1  0.36815699  0.24237375  0.00613424  1
  O  O220  1  0.38199105  0.25340294  0.51065061  1
  O  O221  1  0.36328567  0.75499274  0.01483090  1
  O  O222  1  0.36764945  0.76442477  0.49641936  1
  O  O223  1  0.87977718  0.25808280  0.01233335  1
  O  O224  1  0.88123906  0.26054172  0.50329466  1
  O  O225  1  0.87257784  0.75484979  0.01038368  1
  O  O226  1  0.86901901  0.75921216  0.50508110  1
  O  O227  1  0.12548650  0.24888460  0.48812110  1
  O  O228  1  0.13176418  0.24487488  0.99271293  1
  O  O229  1  0.12668904  0.74314748  0.49352327  1
  O  O230  1  0.12001985  0.73335618  1.00736371  1
  O  O231  1  0.62258544  0.23820790  0.48654898  1
  O  O232  1  0.62090032  0.24316876  0.99197486  1
  O  O233  1  0.63109529  0.76065504  0.48308245  1
  O  O234  1  0.63733132  0.73410087  1.01705289  1
  O  O235  1  0.49717473  0.24605782  0.12956237  1
  O  O236  1  0.49120915  0.24550827  0.63802790  1
  O  O237  1  0.48654065  0.73864636  0.11826837  1
  O  O238  1  0.49452280  0.74745911  0.62484499  1
  O  O239  1  0.99633260  0.24285072  0.13697679  1
  O  O240  1  0.99020779  0.25050271  0.62522092  1
  O  O241  1  0.99093785  0.73942290  0.13581419  1
  O  O242  1  0.98566413  0.74929802  0.63334576  1
  O  O243  1  0.00577367  0.25289764  0.36490837  1
  O  O244  1  0.00947998  0.25938511  0.87415237  1
  O  O245  1  0.00955222  0.74090276  0.36772048  1
  O  O246  1  -0.00866535  0.76183111  0.86600738  1
  O  O247  1  0.50782442  0.25483531  0.36840920  1
  O  O248  1  0.51014584  0.24262413  0.86290549  1
  O  O249  1  0.51136929  0.75067034  0.37599091  1
  O  O250  1  0.50636944  0.72659278  0.87152680  1
  O  O251  1  0.23500673  0.12399652  0.51041437  1
  O  O252  1  0.23788858  0.13695561  1.00513947  1
  O  O253  1  0.25097989  0.62446098  0.48619635  1
  O  O254  1  0.23770209  0.62383995  0.99119988  1
  O  O255  1  0.73840193  0.11886981  0.49807953  1
  O  O256  1  0.74040373  0.12007353  1.00611375  1
  O  O257  1  0.75880221  0.64222678  0.49950695  1
  O  O258  1  0.74352533  0.62949157  1.00342759  1
  O  O259  1  0.24625628  0.36272052  0.00089531  1
  O  O260  1  0.26057325  0.37121864  0.49937412  1
  O  O261  1  0.24284305  0.88037819  0.00163470  1
  O  O262  1  0.25695511  0.88025430  0.50676784  1
  O  O263  1  0.76052004  0.38125632  -0.00405752  1
  O  O264  1  0.76095226  0.37534234  0.50756953  1
  O  O265  1  0.75770033  0.86825769  0.00767271  1
  O  O266  1  0.75774101  0.86898078  0.50670869  1
  O  O267  1  0.13230000  0.50021024  0.24262987  1
  O  O268  1  0.12951496  0.49290547  0.74639796  1
  O  O269  1  0.14264501  1.00482205  0.25845574  1
  O  O270  1  0.13280956  0.99323980  0.75422496  1
  O  O271  1  0.63070127  0.49546223  0.24547062  1
  O  O272  1  0.63471541  0.48601119  0.74416235  1
  O  O273  1  0.63176502  0.99165713  0.24892204  1
  O  O274  1  0.64507482  1.01449096  0.74325184  1
  O  O275  1  0.37213371  0.00887124  0.25447667  1
  O  O276  1  0.36829292  0.00536211  0.75672174  1
  O  O277  1  0.36748008  0.50597570  0.25337183  1
  O  O278  1  0.36612870  0.50618458  0.75783649  1
  O  O279  1  0.86974639  0.00457622  0.25496902  1
  O  O280  1  0.86652176  0.00535777  0.75257688  1
  O  O281  1  0.86781074  0.50215369  0.25321550  1
  O  O282  1  0.86911592  0.50628062  0.74789667  1
  O  O283  1  0.11968955  0.36444441  0.37360069  1
  O  O284  1  0.11928687  0.36735604  0.86870816  1
  O  O285  1  0.13039666  0.86334788  0.37157317  1
  O  O286  1  0.11444539  0.87149524  0.85892686  1
  O  O287  1  0.61998907  0.36163814  0.37116844  1
  O  O288  1  0.62553450  0.36625733  0.86295668  1
  O  O289  1  0.62934330  0.86513809  0.35865857  1
  O  O290  1  0.60332925  0.87185636  0.91677742  1
  O  O291  1  0.38491572  0.13786202  0.13263310  1
  O  O292  1  0.37849893  0.13010532  0.63580429  1
  O  O293  1  0.37814870  0.63172036  0.13126177  1
  O  O294  1  0.34798052  0.63300849  0.64709989  1
  O  O295  1  0.88442933  0.13191078  0.13581136  1
  O  O296  1  0.88907615  0.13169648  0.61780914  1
  O  O297  1  0.87818685  0.62673775  0.13408770  1
  O  O298  1  0.87374137  0.63297331  0.63447189  1
  O  O299  1  0.26028910  0.25483918  0.11707257  1
  O  O300  1  0.26736766  0.25350038  0.63537080  1
  O  O301  1  0.25845034  0.74336498  0.12425290  1
  O  O302  1  0.25118123  0.76694284  0.62371414  1
  O  O303  1  0.76459777  0.24792590  0.13480354  1
  O  O304  1  0.76380507  0.25882600  0.62835035  1
  O  O305  1  0.75675456  0.75380368  0.12104945  1
  O  O306  1  0.75849399  0.76431975  0.61886568  1
  O  O307  1  0.23703939  0.25376703  0.36932741  1
  O  O308  1  0.24197606  0.25277921  0.88061302  1
  O  O309  1  0.24085752  0.74168046  0.37256828  1
  O  O310  1  0.24764446  0.73914778  0.88019233  1
  O  O311  1  0.73751990  0.25115833  0.36993029  1
  O  O312  1  0.73809778  0.24788674  0.86930072  1
  O  O313  1  0.74150413  0.74726622  0.38306630  1
  O  O314  1  0.76375103  0.74417306  0.89626634  1
  O  O315  1  0.01051035  0.12177855  0.00847237  1
  O  O316  1  0.01042537  0.12702767  0.51151307  1
  O  O317  1  0.00217253  0.61638781  0.00407383  1
  O  O318  1  0.00516500  0.61747815  0.50234410  1
  O  O319  1  0.50668744  0.12099572  0.01307868  1
  O  O320  1  0.51126227  0.11739970  0.50151286  1
  O  O321  1  0.50663148  0.61814578  0.00917895  1
  O  O322  1  0.45456167  0.61179746  0.51437209  1
  O  O323  1  0.49361417  0.36865581  0.48865380  1
  O  O324  1  0.50116285  0.39161454  1.00153987  1
  O  O325  1  0.48878056  0.88437660  0.49940270  1
  O  O326  1  0.48170694  0.89720735  1.02114595  1
  O  O327  1  0.99271276  0.38130438  0.49343089  1
  O  O328  1  0.99693983  0.37823147  0.99293207  1
  O  O329  1  0.98689427  0.86803434  0.50103672  1
  O  O330  1  0.99545680  0.87618575  0.99273306  1
  O  O331  1  0.49358469  0.48894883  0.37454091  1
  O  O332  1  0.48313954  0.51476043  0.88219099  1
  O  O333  1  0.48817387  1.00330128  0.38239773  1
  O  O334  1  0.48623389  1.01481551  0.89013368  1
  O  O335  1  0.99402950  0.49375089  0.37894010  1
  O  O336  1  0.99803796  0.48603590  0.87956154  1
  O  O337  1  0.99133506  0.99608108  0.36422474  1
  O  O338  1  0.99932894  0.98732864  0.88216231  1
  O  O339  1  -0.00405612  0.01421875  0.12065026  1
  O  O340  1  -0.00327614  0.00858919  0.62261489  1
  O  O341  1  0.00595988  0.50322924  0.12206523  1
  O  O342  1  0.00783366  0.50082903  0.61899312  1
  O  O343  1  0.50588490  0.01204035  0.12301609  1
  O  O344  1  0.49577905  0.00121720  0.60773420  1
  O  O345  1  0.50304204  0.50902789  0.11762460  1
  O  O346  1  0.50593459  0.50360004  0.61993565  1
  O  O347  1  0.24919941  0.38844425  0.24618968  1
  O  O348  1  0.23797352  0.38320685  0.75195699  1
  O  O349  1  0.24853092  0.89114041  0.25112175  1
  O  O350  1  0.24022985  0.88295676  0.74545740  1
  O  O351  1  0.74435357  0.38722194  0.25369238  1
  O  O352  1  0.74426258  0.37790910  0.74129532  1
  O  O353  1  0.74578381  0.88091024  0.24313977  1
  O  O354  1  0.75867560  0.89176833  0.72978806  1
  O  O355  1  0.26266709  0.12282641  0.24640220  1
  O  O356  1  0.25619110  0.11457668  0.74191896  1
  O  O357  1  0.25471280  0.61562400  0.25734373  1
  O  O358  1  0.24595807  0.61853530  0.76039460  1
  O  O359  1  0.76119859  0.11249713  0.24748000  1
  O  O360  1  0.75875041  0.11512675  0.74652151  1
  O  O361  1  0.75570793  0.61381015  0.25132189  1
  O  O362  1  0.75682202  0.61341589  0.75077483  1
  O  O363  1  0.38221349  0.12118215  0.36249079  1
  O  O364  1  0.37416442  0.12063727  0.86173548  1
  O  O365  1  0.36726589  0.62172748  0.36477075  1
  O  O366  1  0.36165505  0.62023029  0.86404508  1
  O  O367  1  0.88231758  0.11612309  0.36408629  1
  O  O368  1  0.87490159  0.12338887  0.87455024  1
  O  O369  1  0.87316474  0.61740431  0.36767862  1
  O  O370  1  0.87432225  0.62010489  0.86206348  1
  O  O371  1  0.12477693  0.38673988  0.12636346  1
  O  O372  1  0.12682025  0.37961381  0.63313276  1
  O  O373  1  0.10898016  0.87962699  0.13602420  1
  O  O374  1  0.12926992  0.87394230  0.63583827  1
  O  O375  1  0.61715798  0.38734331  0.13347594  1
  O  O376  1  0.63386241  0.36566569  0.63160813  1
  O  O377  1  0.63132289  0.88008162  0.13263180  1
  O  O378  1  0.64033476  0.87824072  0.61437947  1
  O  O379  1  0.11896937  0.24893802  0.25882281  1
  O  O380  1  0.12633167  0.25651813  0.75646798  1
  O  O381  1  0.11378960  0.74743493  0.25883901  1
  O  O382  1  0.10831658  0.75444944  0.74262356  1
  O  O383  1  0.62107035  0.25199206  0.25910698  1
  O  O384  1  0.61961880  0.25273883  0.75584266  1
  O  O385  1  0.62826820  0.76119497  0.25675216  1
  O  O386  1  0.65853620  0.76364019  0.77420799  1
  O  O387  1  0.38150473  0.24448814  0.24323164  1
  O  O388  1  0.38339061  0.24262577  0.74890215  1
  O  O389  1  0.36817168  0.74052809  0.24044635  1
  O  O390  1  0.36800977  0.73996362  0.75412942  1
  O  O391  1  0.88332886  0.24230921  0.24785554  1
  O  O392  1  0.88118897  0.24699843  0.73842654  1
  O  O393  1  0.87755227  0.74285665  0.24952045  1
  O  O394  1  0.87183821  0.74386332  0.74249839  1
  O  O395  1  0.37190720  0.48123472  0.48767592  1
  O  O396  1  0.37732273  0.50581703  0.98660216  1
  O  O397  1  0.38096801  0.99882128  0.49121091  1
  O  O398  1  0.37786439  1.00733822  0.99232709  1
  O  O399  1  0.87815134  0.49178058  0.49653217  1
  O  O400  1  0.88182531  0.48991610  1.00015894  1
  O  O401  1  0.87538554  0.98644706  0.49016104  1
  O  O402  1  0.88417100  0.99112283  1.00184846  1
  O  O403  1  0.12308472  0.00807705  -0.00110360  1
  O  O404  1  0.12639090  0.01382078  0.48856696  1
  O  O405  1  0.11882244  0.50502948  0.00703937  1
  O  O406  1  0.12088984  0.50412009  0.50388434  1
  O  O407  1  0.61728489  0.01183235  0.00900130  1
  O  O408  1  0.61895959  0.01270151  0.48672799  1
  O  O409  1  0.61818646  0.50378361  0.00865524  1
  O  O410  1  0.62151383  0.49724021  0.49783787  1
  O  O411  1  0.37856110  0.36276004  0.12987511  1
  O  O412  1  0.37457408  0.36696042  0.61547319  1
  O  O413  1  0.37217529  0.86023218  0.13312800  1
  O  O414  1  0.36632109  0.87546658  0.61441652  1
  O  O415  1  0.87928319  0.36401124  0.11539573  1
  O  O416  1  0.87096681  0.36738437  0.61700890  1
  O  O417  1  0.87107264  0.86920286  0.11707087  1
  O  O418  1  0.87069112  0.86958292  0.61245275  1
  O  O419  1  0.12261630  0.13931918  0.38914016  1
  O  O420  1  0.11669074  0.13648539  0.88321337  1
  O  O421  1  0.13329616  0.62999557  0.37987230  1
  O  O422  1  0.13025782  0.61705734  0.88492455  1
  O  O423  1  0.62388405  0.13628740  0.37956457  1
  O  O424  1  0.63247224  0.13417740  0.88965992  1
  O  O425  1  0.62419513  0.64274957  0.36584971  1
  O  O426  1  0.63312388  0.61038312  0.89368574  1
