# generated using pymatgen
data_V85Zn86O256
_symmetry_space_group_name_H-M   'P 1'
_cell_length_a   16.95875037
_cell_length_b   16.97404302
_cell_length_c   16.96383205
_cell_angle_alpha   90.05706994
_cell_angle_beta   89.98944743
_cell_angle_gamma   90.05083232
_symmetry_Int_Tables_number   1
_chemical_formula_structural   V85Zn86O256
_chemical_formula_sum   'V85 Zn86 O256'
_cell_volume   4883.17981055
_cell_formula_units_Z   1
loop_
 _symmetry_equiv_pos_site_id
 _symmetry_equiv_pos_as_xyz
  1  'x, y, z'
loop_
 _atom_site_type_symbol
 _atom_site_label
 _atom_site_symmetry_multiplicity
 _atom_site_fract_x
 _atom_site_fract_y
 _atom_site_fract_z
 _atom_site_occupancy
  V  V0  1  0.13455180  0.75088891  0.87610802  1
  V  V1  1  0.88153439  0.87581355  0.49435630  1
  V  V2  1  0.49909658  0.74912353  0.75074892  1
  V  V3  1  0.80305976  0.07117267  0.93255957  1
  V  V4  1  0.25575188  0.00502416  0.74983935  1
  V  V5  1  0.00165303  0.62981739  0.13043011  1
  V  V6  1  0.74917570  0.86980408  0.12102311  1
  V  V7  1  0.37709855  0.00224516  0.37525579  1
  V  V8  1  0.62364619  0.74863292  0.37479021  1
  V  V9  1  0.36969908  0.50720903  0.88054748  1
  V  V10  1  0.24288141  0.74396598  0.48945243  1
  V  V11  1  0.75282268  0.87783582  0.62382474  1
  V  V12  1  0.49494475  0.37154181  0.36563316  1
  V  V13  1  0.63912354  0.49517443  0.12759698  1
  V  V14  1  0.37381851  0.87653773  -0.00000471  1
  V  V15  1  0.12301698  0.38010117  0.75055443  1
  V  V16  1  0.75108062  0.12571216  0.37568233  1
  V  V17  1  0.24679307  0.50851167  0.75659584  1
  V  V18  1  0.37192998  0.74957006  0.62504935  1
  V  V19  1  0.24242203  0.49683411  0.25366344  1
  V  V20  1  0.37277633  0.49936736  0.37567000  1
  V  V21  1  0.01628363  0.26366779  0.25659734  1
  V  V22  1  -0.00573832  0.37823636  0.87620990  1
  V  V23  1  -0.00050808  0.50474386  0.00243090  1
  V  V24  1  0.25384487  0.37388302  0.62888019  1
  V  V25  1  0.61624582  -0.00018135  0.12325677  1
  V  V26  1  0.74824690  -0.00125903  0.25754253  1
  V  V27  1  0.62764823  0.87382384  0.74906510  1
  V  V28  1  0.62288394  0.62523246  0.50149632  1
  V  V29  1  0.86771388  0.12959344  0.72437885  1
  V  V30  1  0.62113241  0.25129064  0.36956695  1
  V  V31  1  0.00246652  0.62423138  0.61201568  1
  V  V32  1  0.49948600  0.62258175  0.12554560  1
  V  V33  1  0.50032236  0.49508646  0.00310904  1
  V  V34  1  -0.00760052  0.24988574  0.73903340  1
  V  V35  1  0.62362340  0.12823264  0.50143956  1
  V  V36  1  0.63754247  0.37774792  0.24803695  1
  V  V37  1  0.86739409  0.38016843  0.00440721  1
  V  V38  1  0.36860649  0.74986665  0.12024142  1
  V  V39  1  0.24010773  0.37377846  0.12995704  1
  V  V40  1  0.12135859  0.12943587  0.49933648  1
  V  V41  1  0.11758424  0.87645691  0.75496943  1
  V  V42  1  0.93312426  -0.05758611  0.31017575  1
  V  V43  1  0.49779867  0.74813684  0.25085516  1
  V  V44  1  0.38243650  0.00519345  0.87535349  1
  V  V45  1  0.62575770  0.62427848  -0.00713480  1
  V  V46  1  0.37711883  0.25112133  0.13665402  1
  V  V47  1  0.06724461  0.06755710  -0.04483710  1
  V  V48  1  0.49703995  0.13079552  0.63914385  1
  V  V49  1  0.36858744  0.62464831  0.25505083  1
  V  V50  1  0.11376267  0.75475636  0.36127045  1
  V  V51  1  0.37290018  0.36998313  0.00184840  1
  V  V52  1  0.24960214  0.87616054  0.62540486  1
  V  V53  1  0.37598194  0.87614189  0.50040153  1
  V  V54  1  0.89375772  0.49824703  0.37612787  1
  V  V55  1  0.62863290  0.00151987  0.62909680  1
  V  V56  1  0.87129701  0.26013163  0.13127568  1
  V  V57  1  0.49292569  0.62243213  0.62752425  1
  V  V58  1  -0.00387868  0.00234724  0.49772093  1
  V  V59  1  0.74719446  0.50477510  0.75647481  1
  V  V60  1  0.25473085  0.24754988  0.50407518  1
  V  V61  1  0.12063109  0.25254071  0.88120475  1
  V  V62  1  0.74748575  0.61152212  0.36793665  1
  V  V63  1  0.87564146  0.62625862  0.75545700  1
  V  V64  1  0.50089024  0.87558192  0.87979735  1
  V  V65  1  0.12292739  0.00412188  0.62103444  1
  V  V66  1  0.62243353  0.87449457  0.25176166  1
  V  V67  1  0.00659079  0.12878162  0.12694850  1
  V  V68  1  0.75726158  0.74601358  -0.00704925  1
  V  V69  1  0.25254183  0.12379806  0.87546103  1
  V  V70  1  0.75659503  0.37574986  0.62726818  1
  V  V71  1  0.61295709  0.12230987  -0.00162214  1
  V  V72  1  0.74699451  0.25531743  0.00116185  1
  V  V73  1  0.62246295  0.24699497  0.87219369  1
  V  V74  1  0.61745267  0.37290655  0.74981961  1
  V  V75  1  0.75975327  0.25444596  0.50350287  1
  V  V76  1  0.75093734  0.74936683  0.49704092  1
  V  V77  1  0.24659623  0.87580417  0.12790856  1
  V  V78  1  0.13858165  0.62775163  -0.00370463  1
  V  V79  1  0.49924078  0.12918997  0.13208957  1
  V  V80  1  0.24822344  0.24396333  0.00222694  1
  V  V81  1  0.87849440  0.13368844  0.25991636  1
  V  V82  1  0.12748374  0.00277145  0.13206581  1
  V  V83  1  0.49641196  0.49700501  0.50123733  1
  V  V84  1  0.24894956  0.12882092  0.37577056  1
  Zn  Zn85  1  -0.00118490  0.75241300  0.75356426  1
  Zn  Zn86  1  0.50122483  0.00104125  0.50305043  1
  Zn  Zn87  1  0.86816980  0.50689308  0.87970739  1
  Zn  Zn88  1  0.02009053  0.37763095  0.38726794  1
  Zn  Zn89  1  0.10702081  0.49607280  0.60002774  1
  Zn  Zn90  1  0.88995269  0.38262074  0.50798757  1
  Zn  Zn91  1  0.49441376  0.36861424  0.87116539  1
  Zn  Zn92  1  0.62398860  0.49974228  0.62696330  1
  Zn  Zn93  1  0.62563951  0.74385151  0.87200140  1
  Zn  Zn94  1  0.37891620  0.24815011  0.64621564  1
  Zn  Zn95  1  0.25059777  -0.00085692  0.25291301  1
  Zn  Zn96  1  0.87726646  0.74796281  0.62187845  1
  Zn  Zn97  1  0.12276051  0.50018332  0.12929808  1
  Zn  Zn98  1  0.87599671  0.74969905  0.12403941  1
  Zn  Zn99  1  0.50069845  0.87642900  0.37844658  1
  Zn  Zn100  1  0.80762340  -0.03824758  0.79279119  1
  Zn  Zn101  1  0.37917759  0.36770974  0.50388266  1
  Zn  Zn102  1  0.37905690  0.12970666  0.25568338  1
  Zn  Zn103  1  -0.03198922  -0.12465970  -0.09137638  1
  Zn  Zn104  1  0.87175513  0.62314988  0.24725901  1
  Zn  Zn105  1  -0.00339906  0.76752320  0.24604153  1
  Zn  Zn106  1  0.36788927  0.62893579  0.75806975  1
  Zn  Zn107  1  0.19221401  0.18021496  0.18550396  1
  Zn  Zn108  1  0.18425290  0.18839435  0.68975840  1
  Zn  Zn109  1  0.18571118  0.68762343  0.18928879  1
  Zn  Zn110  1  0.18228200  0.68945098  0.68343559  1
  Zn  Zn111  1  0.68758083  0.19078112  0.18897587  1
  Zn  Zn112  1  0.68984103  0.19090911  0.68707493  1
  Zn  Zn113  1  0.68513257  0.68445777  0.18383052  1
  Zn  Zn114  1  0.68832656  0.68742502  0.68499493  1
  Zn  Zn115  1  0.19706428  0.31081220  0.31517790  1
  Zn  Zn116  1  0.30863126  0.31662415  0.81762658  1
  Zn  Zn117  1  0.31159200  0.81584985  0.31166782  1
  Zn  Zn118  1  0.31065560  0.81630867  0.81089819  1
  Zn  Zn119  1  0.81533826  0.31810142  0.31950431  1
  Zn  Zn120  1  0.80823363  0.31197798  0.81444253  1
  Zn  Zn121  1  0.80844709  0.80168448  0.30678707  1
  Zn  Zn122  1  0.81602822  0.80175619  0.81711109  1
  Zn  Zn123  1  0.18614495  0.44086965  0.44259643  1
  Zn  Zn124  1  0.18572362  0.43813375  0.94075572  1
  Zn  Zn125  1  0.18776758  0.93547813  0.43494426  1
  Zn  Zn126  1  0.19504049  0.92959509  0.93744506  1
  Zn  Zn127  1  0.68296302  0.43496996  0.44203544  1
  Zn  Zn128  1  0.68550732  0.43593507  0.93552039  1
  Zn  Zn129  1  0.68826789  0.93877411  0.43941273  1
  Zn  Zn130  1  0.68057779  0.93083557  0.94300575  1
  Zn  Zn131  1  0.31727675  0.06126755  0.05984631  1
  Zn  Zn132  1  0.31528894  0.06374009  0.56311879  1
  Zn  Zn133  1  0.31272838  0.55935050  0.06848930  1
  Zn  Zn134  1  0.28690827  0.54862094  0.55186301  1
  Zn  Zn135  1  0.80536370  0.07081628  0.09328173  1
  Zn  Zn136  1  0.81274300  0.06120414  0.55843654  1
  Zn  Zn137  1  0.81333629  0.56789574  0.06290075  1
  Zn  Zn138  1  0.81532873  0.56107270  0.56326889  1
  Zn  Zn139  1  0.43648787  0.43440641  0.18925291  1
  Zn  Zn140  1  0.43104020  0.43796593  0.69000007  1
  Zn  Zn141  1  0.43673175  0.93815614  0.18962313  1
  Zn  Zn142  1  0.44056962  0.93982164  0.68886920  1
  Zn  Zn143  1  0.93433349  0.44372519  0.19237102  1
  Zn  Zn144  1  0.93613693  0.44351286  0.68742303  1
  Zn  Zn145  1  0.95131257  0.92466517  0.10980185  1
  Zn  Zn146  1  0.94039966  0.94023765  0.67885176  1
  Zn  Zn147  1  0.06806022  0.07071899  0.31079820  1
  Zn  Zn148  1  0.05507471  0.06394137  0.79098663  1
  Zn  Zn149  1  0.07136199  0.57653500  0.32111563  1
  Zn  Zn150  1  0.05875795  0.56550872  0.81410918  1
  Zn  Zn151  1  0.56030328  0.06234428  0.31416986  1
  Zn  Zn152  1  0.57413265  0.05673664  0.81502951  1
  Zn  Zn153  1  0.56164860  0.55898958  0.31107844  1
  Zn  Zn154  1  0.55695660  0.55719059  0.81354493  1
  Zn  Zn155  1  0.43875830  0.18798855  0.44170086  1
  Zn  Zn156  1  0.44234022  0.18667345  0.82039558  1
  Zn  Zn157  1  0.43381542  0.68728216  0.43852779  1
  Zn  Zn158  1  0.43808379  0.68830967  0.93995237  1
  Zn  Zn159  1  0.94177537  0.19375458  0.43865557  1
  Zn  Zn160  1  0.93374466  0.19922342  0.93656376  1
  Zn  Zn161  1  0.93753206  0.68927131  0.43077177  1
  Zn  Zn162  1  0.94619820  0.69040241  0.93470518  1
  Zn  Zn163  1  0.05864488  0.31417731  0.06327820  1
  Zn  Zn164  1  0.06756259  0.31315526  0.56163318  1
  Zn  Zn165  1  0.06918955  0.80976728  0.05878982  1
  Zn  Zn166  1  0.06164079  0.81001881  0.56424024  1
  Zn  Zn167  1  0.56151269  0.31160549  0.06537387  1
  Zn  Zn168  1  0.56673701  0.31195774  0.56301987  1
  Zn  Zn169  1  0.56109705  0.80891097  0.06195125  1
  Zn  Zn170  1  0.56126649  0.81148367  0.56369486  1
  O  O171  1  0.11875136  0.12034877  0.12121607  1
  O  O172  1  0.13143766  0.11145239  0.61726607  1
  O  O173  1  0.12059478  0.62412771  0.11272058  1
  O  O174  1  0.10534892  0.62286199  0.63220491  1
  O  O175  1  0.62115438  0.11857443  0.12333801  1
  O  O176  1  0.62200036  0.11932397  0.62106759  1
  O  O177  1  0.61732592  0.61498136  0.11756928  1
  O  O178  1  0.61132138  0.62525186  0.61894887  1
  O  O179  1  0.38752749  0.38398567  0.38291012  1
  O  O180  1  0.37529087  0.38468346  0.88732321  1
  O  O181  1  0.37687625  0.88315716  0.38380855  1
  O  O182  1  0.38054439  0.88073277  0.88135575  1
  O  O183  1  0.88334633  0.39060741  0.37604890  1
  O  O184  1  0.87812327  0.37648269  0.88600559  1
  O  O185  1  0.87483719  0.88047503  0.37105723  1
  O  O186  1  0.87317352  0.88952894  0.85336097  1
  O  O187  1  0.25878853  0.00939298  0.37718018  1
  O  O188  1  0.25771097  0.00493329  0.86943749  1
  O  O189  1  0.26735694  0.49522709  0.36696490  1
  O  O190  1  0.25722677  0.49323662  0.86878489  1
  O  O191  1  0.74165096  0.01222649  0.36898572  1
  O  O192  1  0.74230996  0.00721705  0.87696899  1
  O  O193  1  0.74082370  0.51208604  0.37693145  1
  O  O194  1  0.74958524  0.49731910  0.86141977  1
  O  O195  1  0.24995501  0.48924372  0.13485603  1
  O  O196  1  0.26723333  0.48071047  0.64548422  1
  O  O197  1  0.24503906  0.99622093  0.12565218  1
  O  O198  1  0.24745454  0.99651772  0.63198896  1
  O  O199  1  0.73789042  0.50274988  0.12050250  1
  O  O200  1  0.74562975  0.49379151  0.63462988  1
  O  O201  1  0.73562418  0.99218029  0.13777966  1
  O  O202  1  0.74432663  0.98688547  0.61677480  1
  O  O203  1  0.00203690  0.36352604  0.24719051  1
  O  O204  1  0.00369046  0.36965525  0.75405944  1
  O  O205  1  -0.01954934  0.89098811  0.23745721  1
  O  O206  1  0.01413151  0.87875697  0.74184190  1
  O  O207  1  0.50712575  0.37821176  0.26268754  1
  O  O208  1  0.51365376  0.38279369  0.75128981  1
  O  O209  1  0.50997863  0.86949342  0.25133526  1
  O  O210  1  0.50589682  0.86799208  0.75650228  1
  O  O211  1  0.49992092  0.12363398  0.23784894  1
  O  O212  1  0.50782182  0.12288493  0.74239640  1
  O  O213  1  0.49139919  0.62733976  0.24361226  1
  O  O214  1  0.49670472  0.62997440  0.74390868  1
  O  O215  1  0.99643903  0.13807732  0.24531020  1
  O  O216  1  0.98624690  0.14278581  0.75253835  1
  O  O217  1  1.00533381  0.62025949  0.23459925  1
  O  O218  1  0.98600710  0.62556977  0.74628903  1
  O  O219  1  0.36287942  0.26357173  0.00707980  1
  O  O220  1  0.36307055  0.24472332  0.50850366  1
  O  O221  1  0.38095879  0.76111534  0.00926748  1
  O  O222  1  0.37216112  0.76091918  0.50590599  1
  O  O223  1  0.86762830  0.25980964  0.00966372  1
  O  O224  1  0.86269919  0.25737379  0.49258796  1
  O  O225  1  0.86022672  0.74336147  -0.00005268  1
  O  O226  1  0.86856772  0.75988122  0.49565668  1
  O  O227  1  0.13781184  0.23523303  0.51117922  1
  O  O228  1  0.13025628  0.25692599  0.98918289  1
  O  O229  1  0.14042389  0.75517139  0.50113356  1
  O  O230  1  0.12751758  0.73571675  0.99323145  1
  O  O231  1  0.63297968  0.24402926  0.49113598  1
  O  O232  1  0.63196726  0.24293837  0.99909358  1
  O  O233  1  0.62908115  0.74553039  0.49429065  1
  O  O234  1  0.62850712  0.73786146  0.99938296  1
  O  O235  1  0.48949082  0.24117777  0.12016236  1
  O  O236  1  0.50386666  0.23359029  0.62405798  1
  O  O237  1  0.48990208  0.74500127  0.13177407  1
  O  O238  1  0.49299539  0.74383357  0.63184819  1
  O  O239  1  0.99519971  0.24524706  0.13465821  1
  O  O240  1  1.00727932  0.25289855  0.64195995  1
  O  O241  1  0.99923091  0.74317467  0.12632552  1
  O  O242  1  0.99672678  0.74081887  0.63070672  1
  O  O243  1  0.00106409  0.25495618  0.35860234  1
  O  O244  1  0.00511592  0.25909327  0.86971344  1
  O  O245  1  0.00711319  0.75393196  0.36629814  1
  O  O246  1  0.00963832  0.76329432  0.87395883  1
  O  O247  1  0.50859011  0.25991516  0.38367672  1
  O  O248  1  0.51672028  0.25184251  0.88089577  1
  O  O249  1  0.50585920  0.75134178  0.36919180  1
  O  O250  1  0.49968334  0.75607138  0.86605747  1
  O  O251  1  0.24447459  0.12800376  0.49696228  1
  O  O252  1  0.25587882  0.13829403  0.99505272  1
  O  O253  1  0.26546270  0.64898717  0.50149645  1
  O  O254  1  0.23663686  0.61641468  1.00273027  1
  O  O255  1  0.74113126  0.13278003  0.49664260  1
  O  O256  1  0.74566192  0.13186395  1.00090971  1
  O  O257  1  0.74246074  0.63037717  0.49369336  1
  O  O258  1  0.73994869  0.63685541  1.00464288  1
  O  O259  1  0.25426794  0.36788125  0.00701708  1
  O  O260  1  0.25414353  0.36240475  0.51345181  1
  O  O261  1  0.26334533  0.87555344  0.01221427  1
  O  O262  1  0.26193662  0.87150200  0.50673172  1
  O  O263  1  0.75928699  0.37140136  0.00099746  1
  O  O264  1  0.74753863  0.36906341  0.50969880  1
  O  O265  1  0.73850995  0.85705453  0.00854659  1
  O  O266  1  0.76111019  0.87115008  0.50122369  1
  O  O267  1  0.14035814  0.51091924  0.25091702  1
  O  O268  1  0.13000015  0.49031073  0.75759305  1
  O  O269  1  0.12886865  1.00597018  0.23614295  1
  O  O270  1  0.13046546  0.99603459  0.74035445  1
  O  O271  1  0.62027264  0.49122620  0.23896534  1
  O  O272  1  0.63055568  0.49413166  0.74969301  1
  O  O273  1  0.62703367  0.99121279  0.24691148  1
  O  O274  1  0.62818167  0.99194405  0.73668749  1
  O  O275  1  0.37669756  0.00240036  0.26517980  1
  O  O276  1  0.36453444  -0.00741138  0.75925447  1
  O  O277  1  0.37105502  0.50627332  0.25618020  1
  O  O278  1  0.36731361  0.50148063  0.76520630  1
  O  O279  1  0.87152761  0.00974910  0.25805437  1
  O  O280  1  0.88388081  0.02339217  0.73568818  1
  O  O281  1  0.87487619  0.50553289  0.26856875  1
  O  O282  1  0.86658269  0.51004046  0.75415776  1
  O  O283  1  0.13175394  0.37991313  0.37192297  1
  O  O284  1  0.11749391  0.36856426  0.87027436  1
  O  O285  1  0.13271659  0.85539049  0.37931103  1
  O  O286  1  0.12668032  0.87129701  0.86685756  1
  O  O287  1  0.61777639  0.36911307  0.36950045  1
  O  O288  1  0.62229915  0.36675136  0.86780185  1
  O  O289  1  0.62381929  0.86911268  0.36839269  1
  O  O290  1  0.61632032  0.87245370  0.86762743  1
  O  O291  1  0.38355415  0.13201074  0.12481428  1
  O  O292  1  0.39419647  0.12362765  0.62534293  1
  O  O293  1  0.37978508  0.63285654  0.12957210  1
  O  O294  1  0.38524749  0.62981324  0.62746322  1
  O  O295  1  0.88404228  0.13899160  0.14006977  1
  O  O296  1  0.87078671  0.13530694  0.62505855  1
  O  O297  1  0.88577313  0.62614157  0.12720574  1
  O  O298  1  0.88299347  0.62569624  0.63317016  1
  O  O299  1  0.25405068  0.25458601  0.11844409  1
  O  O300  1  0.25123857  0.25745244  0.62535860  1
  O  O301  1  0.26261566  0.75694219  0.13037739  1
  O  O302  1  0.25496278  0.75818968  0.62070343  1
  O  O303  1  0.75968314  0.24509473  0.11480814  1
  O  O304  1  0.74329832  0.26206303  0.61421800  1
  O  O305  1  0.74707049  0.75486031  0.11559066  1
  O  O306  1  0.74965574  0.76153967  0.61401724  1
  O  O307  1  0.25174482  0.23684243  0.38710579  1
  O  O308  1  0.23896051  0.24333278  0.88217511  1
  O  O309  1  0.25229333  0.75532579  0.38667693  1
  O  O310  1  0.23530624  0.75418633  0.87011330  1
  O  O311  1  0.74205778  0.24566181  0.38203346  1
  O  O312  1  0.74082950  0.25493304  0.89224800  1
  O  O313  1  0.74199168  0.74097590  0.38132366  1
  O  O314  1  0.74340807  0.74983627  0.88907576  1
  O  O315  1  0.00205951  0.13208591  0.00641270  1
  O  O316  1  0.00999053  0.11704367  0.49011316  1
  O  O317  1  0.00479470  0.61897386  0.00848349  1
  O  O318  1  -0.00616793  0.63145117  0.51298246  1
  O  O319  1  0.51373794  0.12262492  0.01546713  1
  O  O320  1  0.51398214  0.12488045  0.50922317  1
  O  O321  1  0.50519132  0.61653459  0.00692238  1
  O  O322  1  0.50210377  0.61865724  0.50717669  1
  O  O323  1  0.50162615  0.38350136  0.49590426  1
  O  O324  1  0.49050633  0.38040508  1.00152693  1
  O  O325  1  0.48803605  0.87727352  0.50250394  1
  O  O326  1  0.49662099  0.87016415  0.98594888  1
  O  O327  1  1.00294137  0.37599025  0.50054241  1
  O  O328  1  0.98817964  0.38298599  0.99847582  1
  O  O329  1  0.98768937  0.88122634  0.50197422  1
  O  O330  1  0.99612185  0.88301516  1.01569055  1
  O  O331  1  0.49436824  0.49304854  0.38229241  1
  O  O332  1  0.49181295  0.49509672  0.88966094  1
  O  O333  1  0.49281555  0.99846738  0.38207173  1
  O  O334  1  0.49325627  0.98893275  0.86645499  1
  O  O335  1  0.99563157  0.50618258  0.37575892  1
  O  O336  1  0.99585029  0.49593299  0.88784672  1
  O  O337  1  0.99923085  0.99491364  0.37067249  1
  O  O338  1  1.01530833  1.01156524  0.88971342  1
  O  O339  1  0.00984114  0.02091326  0.12432648  1
  O  O340  1  0.01104327  0.00039091  0.60963979  1
  O  O341  1  0.00178075  0.50412231  0.11546226  1
  O  O342  1  -0.00210975  0.51512075  0.62490873  1
  O  O343  1  0.51085930  0.00520194  0.12950184  1
  O  O344  1  0.50975335  0.01112339  0.62497792  1
  O  O345  1  0.50046177  0.50204090  0.11465605  1
  O  O346  1  0.49720843  0.50685221  0.61879110  1
  O  O347  1  0.25220228  0.38250390  0.24043917  1
  O  O348  1  0.23720600  0.37886839  0.74957463  1
  O  O349  1  0.26078801  0.88137824  0.23314581  1
  O  O350  1  0.24012992  0.88700736  0.74506025  1
  O  O351  1  0.73684273  0.37164577  0.25490562  1
  O  O352  1  0.74247166  0.38187422  0.74470429  1
  O  O353  1  0.73651835  0.87583228  0.24609244  1
  O  O354  1  0.74622051  0.87338706  0.73898437  1
  O  O355  1  0.25574496  0.12227312  0.26177165  1
  O  O356  1  0.23973744  0.11257552  0.75925479  1
  O  O357  1  0.26351570  0.61641647  0.24189780  1
  O  O358  1  0.24765456  0.61128588  0.74361845  1
  O  O359  1  0.75965785  0.12083248  0.25347596  1
  O  O360  1  0.76876688  0.13192997  0.74594699  1
  O  O361  1  0.74569303  0.62903419  0.26553515  1
  O  O362  1  0.76105485  0.61731479  0.74206789  1
  O  O363  1  0.37071190  0.11856043  0.37810605  1
  O  O364  1  0.37326787  0.11068061  0.87738238  1
  O  O365  1  0.38375517  0.61482512  0.36414204  1
  O  O366  1  0.37729562  0.61177795  0.87919283  1
  O  O367  1  0.87107189  0.13432897  0.36536339  1
  O  O368  1  0.86808119  0.12519336  0.87679143  1
  O  O369  1  0.86185092  0.61585822  0.37509770  1
  O  O370  1  0.87872509  0.62609748  0.86066512  1
  O  O371  1  0.13630484  0.37838755  0.11919232  1
  O  O372  1  0.13351610  0.38044856  0.63604843  1
  O  O373  1  0.13709190  0.88696451  0.11814267  1
  O  O374  1  0.13176305  0.88610865  0.62857308  1
  O  O375  1  0.61951766  0.38255200  0.13544063  1
  O  O376  1  0.63228364  0.37699542  0.63437839  1
  O  O377  1  0.62775106  0.88030633  0.13123878  1
  O  O378  1  0.63144994  0.88219835  0.62680757  1
  O  O379  1  0.11947163  0.24860765  0.24711399  1
  O  O380  1  0.11480773  0.25593960  0.76148635  1
  O  O381  1  0.11920195  0.75463012  0.25504430  1
  O  O382  1  0.12346490  0.76007112  0.75648868  1
  O  O383  1  0.62724362  0.25522847  0.26336192  1
  O  O384  1  0.63327156  0.25913697  0.76113985  1
  O  O385  1  0.61861516  0.75569431  0.25326255  1
  O  O386  1  0.61894208  0.75539349  0.75019703  1
  O  O387  1  0.37184401  0.24922882  0.23521857  1
  O  O388  1  0.37460006  0.24969327  0.75961750  1
  O  O389  1  0.37928379  0.74241918  0.24579710  1
  O  O390  1  0.37879396  0.74887979  0.74396338  1
  O  O391  1  0.88050278  0.24954177  0.24638520  1
  O  O392  1  0.88474438  0.24547850  0.75289174  1
  O  O393  1  0.87968285  0.74196147  0.24444871  1
  O  O394  1  0.87374888  0.73612105  0.74405575  1
  O  O395  1  0.38302541  0.50073815  0.49350634  1
  O  O396  1  0.37916653  0.49068596  0.99990390  1
  O  O397  1  0.37675242  0.99399560  0.49236859  1
  O  O398  1  0.37541425  0.98700080  0.99029030  1
  O  O399  1  0.86509803  0.49866776  0.47986717  1
  O  O400  1  0.87909793  0.49555002  0.99966447  1
  O  O401  1  0.88798681  0.99617111  0.49789214  1
  O  O402  1  0.85481558  1.01824761  0.99950080  1
  O  O403  1  0.13283042  0.00715165  0.00577491  1
  O  O404  1  0.11761605  0.00465894  0.50309399  1
  O  O405  1  0.11623793  0.51005461  0.00055675  1
  O  O406  1  0.17966066  0.51573878  0.52005795  1
  O  O407  1  0.63203982  0.00971159  0.01229326  1
  O  O408  1  0.62542412  0.00872216  0.51119013  1
  O  O409  1  0.61737459  0.50222139  0.00578752  1
  O  O410  1  0.61070231  0.50619631  0.50254126  1
  O  O411  1  0.36689178  0.36899854  0.12026374  1
  O  O412  1  0.37039920  0.36594475  0.62466366  1
  O  O413  1  0.37477181  0.86984531  0.11708709  1
  O  O414  1  0.37029396  0.87234779  0.61990027  1
  O  O415  1  0.87924499  0.36676921  0.12133331  1
  O  O416  1  0.86113524  0.38072212  0.62573736  1
  O  O417  1  0.85195365  0.87413354  0.12899345  1
  O  O418  1  0.86817015  0.87381078  0.61334045  1
  O  O419  1  0.13645005  0.12004108  0.38709444  1
  O  O420  1  0.12269532  0.12724415  0.88410770  1
  O  O421  1  0.13033020  0.65344112  0.37746145  1
  O  O422  1  0.11896010  0.63329729  0.88811809  1
  O  O423  1  0.62673594  0.13300011  0.38256713  1
  O  O424  1  0.62279783  0.13167077  0.88610404  1
  O  O425  1  0.63062027  0.62781705  0.38016259  1
  O  O426  1  0.61695748  0.62204087  0.88945962  1
