# generated using pymatgen
data_V85Zn86O256
_symmetry_space_group_name_H-M   'P 1'
_cell_length_a   16.93787758
_cell_length_b   16.92972882
_cell_length_c   16.93748218
_cell_angle_alpha   89.89768847
_cell_angle_beta   89.96464479
_cell_angle_gamma   89.98981448
_symmetry_Int_Tables_number   1
_chemical_formula_structural   V85Zn86O256
_chemical_formula_sum   'V85 Zn86 O256'
_cell_volume   4856.87650445
_cell_formula_units_Z   1
loop_
 _symmetry_equiv_pos_site_id
 _symmetry_equiv_pos_as_xyz
  1  'x, y, z'
loop_
 _atom_site_type_symbol
 _atom_site_label
 _atom_site_symmetry_multiplicity
 _atom_site_fract_x
 _atom_site_fract_y
 _atom_site_fract_z
 _atom_site_occupancy
  V  V0  1  0.50580110  0.75052240  0.75369725  1
  V  V1  1  0.50669321  0.75222614  0.25318200  1
  V  V2  1  -0.00303599  0.25053180  0.25052493  1
  V  V3  1  0.49782135  0.25556506  0.75022562  1
  V  V4  1  0.00673927  0.11983224  0.12406987  1
  V  V5  1  0.75253512  0.37572013  0.12109593  1
  V  V6  1  0.75267741  0.50087211  0.74910202  1
  V  V7  1  0.62230019  0.24825204  0.38080729  1
  V  V8  1  0.25600753  0.12041209  0.87622647  1
  V  V9  1  0.12876300  0.24017206  0.37704133  1
  V  V10  1  0.88195834  0.25439577  0.62580224  1
  V  V11  1  0.00653923  0.87605144  0.37330346  1
  V  V12  1  0.75135940  0.49955931  0.24979356  1
  V  V13  1  0.62104951  0.37288144  0.25257540  1
  V  V14  1  0.24272346  0.49671483  0.74077463  1
  V  V15  1  0.00506909  0.12715003  0.63192275  1
  V  V16  1  0.62480930  0.25333992  0.87813456  1
  V  V17  1  0.38095492  0.25655093  0.61854486  1
  V  V18  1  0.51304945  0.01008810  0.49557216  1
  V  V19  1  0.37257189  0.87809265  -0.00742144  1
  V  V20  1  0.26237912  -0.00337611  0.75572819  1
  V  V21  1  0.49203439  0.00574773  0.00656705  1
  V  V22  1  0.49696687  0.48982702  0.48654643  1
  V  V23  1  0.87107444  0.75499358  0.12649645  1
  V  V24  1  0.75519777  0.37706841  0.61520657  1
  V  V25  1  0.61908731  0.12873331  0.00985313  1
  V  V26  1  0.88486752  0.62873082  0.75338542  1
  V  V27  1  0.12546433  0.87120874  0.75395405  1
  V  V28  1  0.50022409  0.62490477  0.62402386  1
  V  V29  1  0.86725492  0.87921310  0.00005291  1
  V  V30  1  0.24692949  0.37662185  0.12602093  1
  V  V31  1  0.25034342  0.74522161  0.49884793  1
  V  V32  1  0.86534771  0.11911787  0.74612850  1
  V  V33  1  0.87256687  0.49595383  0.38609367  1
  V  V34  1  -0.00213729  0.87172578  0.87072776  1
  V  V35  1  0.74245474  0.89086614  0.63272508  1
  V  V36  1  0.00647980  0.75390930  0.24844079  1
  V  V37  1  0.87230153  0.48923228  0.88196485  1
  V  V38  1  0.12772859  0.74437112  0.37563650  1
  V  V39  1  0.37103935  0.62637986  0.26195749  1
  V  V40  1  0.50127030  0.24233175  0.25046798  1
  V  V41  1  0.25277259  0.61431808  0.88267299  1
  V  V42  1  0.74834817  0.62789205  0.87490140  1
  V  V43  1  0.11979695  0.73974835  0.87718797  1
  V  V44  1  0.62323694  0.63032089  0.49347661  1
  V  V45  1  0.74628306  0.75322333  0.00408152  1
  V  V46  1  -0.00698355  0.37056699  0.38311766  1
  V  V47  1  0.86886270  0.11572572  0.24768171  1
  V  V48  1  0.37960517  0.24885130  0.12255175  1
  V  V49  1  0.12922441  -0.00240401  0.62603082  1
  V  V50  1  0.49150145  0.38572525  0.87741156  1
  V  V51  1  0.75502729  0.24634500  0.49796850  1
  V  V52  1  0.00291026  0.00033245  0.50040393  1
  V  V53  1  0.37301839  0.75450593  0.12756194  1
  V  V54  1  0.12189052  0.25123009  0.86376354  1
  V  V55  1  0.00222094  0.49072569  0.00060135  1
  V  V56  1  0.87677857  0.25312715  0.11923309  1
  V  V57  1  0.49699649  0.62196454  0.12617784  1
  V  V58  1  0.62707668  0.37722482  0.75018871  1
  V  V59  1  0.37720367  0.61729457  0.75654959  1
  V  V60  1  0.24774242  0.49924370  0.25672091  1
  V  V61  1  0.37173594  0.00661391  0.37266258  1
  V  V62  1  0.74637306  0.11787713  0.37449278  1
  V  V63  1  0.25178433  0.87566110  0.62500660  1
  V  V64  1  0.74606829  0.75355906  0.49927212  1
  V  V65  1  0.23312683  0.87691814  0.12910035  1
  V  V66  1  0.23394256  -0.00058808  0.24955607  1
  V  V67  1  0.62632104  0.50094056  0.62163075  1
  V  V68  1  0.62359235  0.50307288  0.12299596  1
  V  V69  1  0.87741004  0.87661945  0.50220804  1
  V  V70  1  0.24636904  0.24977343  0.00036373  1
  V  V71  1  0.63680751  -0.00371231  0.12584159  1
  V  V72  1  0.00573484  -0.00257845  0.00069580  1
  V  V73  1  0.00517340  0.62576824  0.11725252  1
  V  V74  1  0.75422731  0.25334682  -0.00334303  1
  V  V75  1  0.52571220  0.08863699  0.66125154  1
  V  V76  1  0.37709830  0.87768974  0.49831695  1
  V  V77  1  0.87609979  0.62457603  0.25041459  1
  V  V78  1  0.01457662  0.50670335  0.50247425  1
  V  V79  1  0.87896185  0.75272509  0.63148878  1
  V  V80  1  0.50673917  0.87396834  0.37297447  1
  V  V81  1  0.24433850  0.74399741  0.00176204  1
  V  V82  1  0.63898407  0.87688284  0.24799933  1
  V  V83  1  0.37537373  0.11728265  0.23972338  1
  V  V84  1  0.74918312  0.62794267  0.37639409  1
  Zn  Zn85  1  0.34328208  0.42619196  0.42569827  1
  Zn  Zn86  1  0.37050617  0.38417001  -0.00069061  1
  Zn  Zn87  1  -0.00588686  0.36548879  0.87201191  1
  Zn  Zn88  1  0.24500390  0.61224236  0.38517175  1
  Zn  Zn89  1  0.50027575  0.87924349  0.87504273  1
  Zn  Zn90  1  0.25251555  0.38154200  0.60387616  1
  Zn  Zn91  1  0.12577618  0.12003496  -0.00030987  1
  Zn  Zn92  1  0.49171657  0.50903344  -0.00526575  1
  Zn  Zn93  1  0.62235098  0.63022663  -0.00014616  1
  Zn  Zn94  1  0.12703057  0.50540738  0.12172341  1
  Zn  Zn95  1  0.37620252  0.75023805  0.62697007  1
  Zn  Zn96  1  0.62730263  0.76209151  0.87251732  1
  Zn  Zn97  1  0.14585952  0.11776124  0.49652339  1
  Zn  Zn98  1  0.87074949  -0.00167968  0.86776241  1
  Zn  Zn99  1  0.01152083  0.61483408  0.63104234  1
  Zn  Zn100  1  0.87106953  -0.00411152  0.36989134  1
  Zn  Zn101  1  0.37544162  0.12704805  0.75150717  1
  Zn  Zn102  1  0.74600156  0.12163871  0.87152782  1
  Zn  Zn103  1  0.11944149  0.37742428  0.24909437  1
  Zn  Zn104  1  0.11386824  0.37439836  0.73156414  1
  Zn  Zn105  1  0.26431813  0.24582744  0.49020493  1
  Zn  Zn106  1  0.61838733  0.90712731  0.74617133  1
  Zn  Zn107  1  0.18755360  0.18443325  0.18977898  1
  Zn  Zn108  1  0.19301553  0.18624172  0.68312246  1
  Zn  Zn109  1  0.18583519  0.68671251  0.19055457  1
  Zn  Zn110  1  0.19063201  0.68458666  0.69223534  1
  Zn  Zn111  1  0.68864867  0.18557870  0.18599581  1
  Zn  Zn112  1  0.68613979  0.19104776  0.68463392  1
  Zn  Zn113  1  0.68761636  0.68923565  0.18852091  1
  Zn  Zn114  1  0.69097863  0.69010771  0.68421232  1
  Zn  Zn115  1  0.30720682  0.30433823  0.30537994  1
  Zn  Zn116  1  0.31126519  0.31291423  0.81120326  1
  Zn  Zn117  1  0.31269114  0.81807503  0.31262050  1
  Zn  Zn118  1  0.31312563  0.80358586  0.81362276  1
  Zn  Zn119  1  0.81135214  0.31038315  0.31025184  1
  Zn  Zn120  1  0.81354264  0.30865485  0.80543562  1
  Zn  Zn121  1  0.81758510  0.81075417  0.31668507  1
  Zn  Zn122  1  0.80750028  0.81593477  0.81164270  1
  Zn  Zn123  1  0.17704749  0.42515612  0.43698569  1
  Zn  Zn124  1  0.18365208  0.43535251  0.93789039  1
  Zn  Zn125  1  0.18798093  0.93428995  0.43454570  1
  Zn  Zn126  1  0.18786785  0.93452673  0.93840781  1
  Zn  Zn127  1  0.68367714  0.43677918  0.43648251  1
  Zn  Zn128  1  0.68423839  0.43873361  0.93978402  1
  Zn  Zn129  1  0.68813579  0.93493399  0.43586113  1
  Zn  Zn130  1  0.68501927  0.94328993  0.93229894  1
  Zn  Zn131  1  0.30658344  0.06073445  0.06600323  1
  Zn  Zn132  1  0.32723652  0.07310070  0.56733784  1
  Zn  Zn133  1  0.31591223  0.56102132  0.06787535  1
  Zn  Zn134  1  0.31842308  0.56404039  0.56443824  1
  Zn  Zn135  1  0.81368821  0.06615894  0.05596184  1
  Zn  Zn136  1  0.81297106  0.06479567  0.55980493  1
  Zn  Zn137  1  0.81580977  0.56637930  0.06081520  1
  Zn  Zn138  1  0.81710193  0.56794621  0.56513325  1
  Zn  Zn139  1  0.41657824  0.41772528  0.23450086  1
  Zn  Zn140  1  0.43531502  0.43938321  0.68542319  1
  Zn  Zn141  1  0.44107571  0.93687534  0.18247524  1
  Zn  Zn142  1  0.43890981  0.93306936  0.68544569  1
  Zn  Zn143  1  0.93617777  0.43655865  0.18858937  1
  Zn  Zn144  1  0.93881787  0.43716967  0.68860113  1
  Zn  Zn145  1  0.93867276  0.93632036  0.18527880  1
  Zn  Zn146  1  0.93946315  0.93604573  0.68583048  1
  Zn  Zn147  1  0.05502539  0.06357506  0.31157961  1
  Zn  Zn148  1  0.06521901  0.06099376  0.81352011  1
  Zn  Zn149  1  0.06079310  0.56337961  0.31336853  1
  Zn  Zn150  1  0.06324095  0.55524839  0.81681123  1
  Zn  Zn151  1  0.56377095  0.06268181  0.30840793  1
  Zn  Zn152  1  0.55715389  0.06540733  0.83224594  1
  Zn  Zn153  1  0.56396661  0.56475098  0.31070042  1
  Zn  Zn154  1  0.56748767  0.56527188  0.81125331  1
  Zn  Zn155  1  0.43772972  0.18579515  0.43128198  1
  Zn  Zn156  1  0.43666900  0.19134014  0.93835402  1
  Zn  Zn157  1  0.43962245  0.69090629  0.43781430  1
  Zn  Zn158  1  0.43525038  0.69100109  0.93838151  1
  Zn  Zn159  1  0.93463312  0.18274427  0.43997524  1
  Zn  Zn160  1  0.93798728  0.18410824  0.93518944  1
  Zn  Zn161  1  0.93661967  0.68834706  0.43859018  1
  Zn  Zn162  1  0.93477623  0.68620270  0.93901780  1
  Zn  Zn163  1  0.06400016  0.31225622  0.05997427  1
  Zn  Zn164  1  0.06623538  0.31357029  0.55945400  1
  Zn  Zn165  1  0.05913231  0.81124623  0.05780317  1
  Zn  Zn166  1  0.08375264  0.77482099  0.58547066  1
  Zn  Zn167  1  0.56066987  0.31667142  0.06410374  1
  Zn  Zn168  1  0.56627995  0.31047509  0.56224179  1
  Zn  Zn169  1  0.56143796  0.81705428  0.06547945  1
  Zn  Zn170  1  0.56352330  0.81462067  0.56391650  1
  O  O171  1  0.10998694  0.13001652  0.12276435  1
  O  O172  1  0.12008164  0.11819972  0.62134540  1
  O  O173  1  0.10938750  0.62566950  0.12889792  1
  O  O174  1  0.10892228  0.66706310  0.62117326  1
  O  O175  1  0.62597759  0.11696050  0.11701386  1
  O  O176  1  0.60322963  0.13925412  0.62358667  1
  O  O177  1  0.61717909  0.61935573  0.12689339  1
  O  O178  1  0.62118066  0.62046887  0.61438333  1
  O  O179  1  0.38729738  0.37357299  0.33915623  1
  O  O180  1  0.38941816  0.37297754  0.87502766  1
  O  O181  1  0.38634115  0.88527643  0.37768284  1
  O  O182  1  0.37209920  0.86878000  0.88997699  1
  O  O183  1  0.88061966  0.38348560  0.36837326  1
  O  O184  1  0.87132965  0.38617653  0.87051110  1
  O  O185  1  0.88465293  0.87537000  0.38521561  1
  O  O186  1  0.88207126  0.87348250  0.88088114  1
  O  O187  1  0.25953878  -0.00991620  0.35968402  1
  O  O188  1  0.24437547  0.00712861  0.86809902  1
  O  O189  1  0.24951386  0.49520243  0.37018608  1
  O  O190  1  0.24259801  0.51154121  0.87083658  1
  O  O191  1  0.75195027  0.01324247  0.38011637  1
  O  O192  1  0.75925261  0.01032637  0.88409037  1
  O  O193  1  0.75500827  0.50448755  0.36972002  1
  O  O194  1  0.75513601  0.50688195  0.87378118  1
  O  O195  1  0.24498111  0.49209774  0.13177946  1
  O  O196  1  0.25480573  0.50027205  0.63643174  1
  O  O197  1  0.24799899  0.99029317  0.13812775  1
  O  O198  1  0.24778014  0.99462024  0.63389290  1
  O  O199  1  0.74424216  0.49904686  0.12922891  1
  O  O200  1  0.74880292  0.49446954  0.62663021  1
  O  O201  1  0.73602517  1.00394299  0.11769431  1
  O  O202  1  0.74821844  0.98902989  0.61852676  1
  O  O203  1  -0.00140287  0.36631150  0.25803754  1
  O  O204  1  0.00621901  0.38874474  0.76112052  1
  O  O205  1  -0.00842121  0.86537004  0.25956652  1
  O  O206  1  0.00798337  0.87959938  0.76286998  1
  O  O207  1  0.51618764  0.36110494  0.23926042  1
  O  O208  1  0.50510343  0.37594130  0.76007225  1
  O  O209  1  0.50659947  0.86908200  0.25485930  1
  O  O210  1  0.50045231  0.86360210  0.75047465  1
  O  O211  1  0.49390697  0.13452626  0.24678462  1
  O  O212  1  0.49775489  0.14116022  0.76051430  1
  O  O213  1  0.49358371  0.63352774  0.24672525  1
  O  O214  1  0.49497896  0.62640085  0.74387508  1
  O  O215  1  0.98989776  0.13060654  0.24202944  1
  O  O216  1  0.99561220  0.11947181  0.73543422  1
  O  O217  1  0.99295836  0.63233938  0.24421590  1
  O  O218  1  0.98802864  0.61829733  0.75248168  1
  O  O219  1  0.36436977  0.25590037  0.00691073  1
  O  O220  1  0.38928233  0.24713026  0.51498317  1
  O  O221  1  0.36435996  0.75626376  0.00931949  1
  O  O222  1  0.37120147  0.76420769  0.49726424  1
  O  O223  1  0.86769325  0.24472183  0.00704541  1
  O  O224  1  0.86492513  0.24698269  0.51009590  1
  O  O225  1  0.86588116  0.75614132  0.00685651  1
  O  O226  1  0.87005786  0.76070933  0.50675293  1
  O  O227  1  0.12475838  0.24421194  0.48304650  1
  O  O228  1  0.13658194  0.24663903  0.99484058  1
  O  O229  1  0.14087723  0.76367656  0.48673343  1
  O  O230  1  0.13606679  0.75372389  0.99237469  1
  O  O231  1  0.63436237  0.25475089  0.48769829  1
  O  O232  1  0.62904939  0.24570690  0.99989031  1
  O  O233  1  0.63320992  0.74279904  0.50364053  1
  O  O234  1  0.63652332  0.75356253  1.00156713  1
  O  O235  1  0.48590402  0.25441761  0.12852157  1
  O  O236  1  0.49535409  0.26454978  0.64111574  1
  O  O237  1  0.49259114  0.74390871  0.13233372  1
  O  O238  1  0.50039887  0.73847117  0.62942356  1
  O  O239  1  0.99382881  0.24593676  0.13001955  1
  O  O240  1  0.99210805  0.23967005  0.61302477  1
  O  O241  1  0.99399499  0.74450220  0.12984317  1
  O  O242  1  0.97796251  0.76978789  0.62770783  1
  O  O243  1  -0.00166921  0.25390147  0.36931023  1
  O  O244  1  0.01771684  0.24755021  0.88166875  1
  O  O245  1  0.00518542  0.75524768  0.36901830  1
  O  O246  1  0.00889068  0.75675458  0.88323361  1
  O  O247  1  0.51139603  0.24479417  0.36414607  1
  O  O248  1  0.50449059  0.26267832  0.86822014  1
  O  O249  1  0.49713768  0.76030719  0.36463169  1
  O  O250  1  0.50466823  0.75265590  0.86829430  1
  O  O251  1  0.25885048  0.13050264  0.50037348  1
  O  O252  1  0.24682799  0.13037078  0.99505889  1
  O  O253  1  0.26122338  0.64046043  0.49883745  1
  O  O254  1  0.25396627  0.63337000  0.99641924  1
  O  O255  1  0.75333945  0.13577148  0.49076287  1
  O  O256  1  0.74140725  0.14026549  1.00132757  1
  O  O257  1  0.74296117  0.63303782  0.49845703  1
  O  O258  1  0.74944254  0.63522332  0.99278590  1
  O  O259  1  0.24972592  0.36787410  0.00733042  1
  O  O260  1  0.26146945  0.36601696  0.48720836  1
  O  O261  1  0.25486654  0.86865337  0.00930657  1
  O  O262  1  0.26036968  0.87123750  0.50286567  1
  O  O263  1  0.74364830  0.36261849  0.00560349  1
  O  O264  1  0.74587296  0.36959650  0.51000198  1
  O  O265  1  0.76109507  0.86876470  -0.00518946  1
  O  O266  1  0.75586870  0.87014028  0.50555080  1
  O  O267  1  0.13405863  0.50102566  0.24842419  1
  O  O268  1  0.13989018  0.50451289  0.74740425  1
  O  O269  1  0.13547413  1.00335562  0.25574798  1
  O  O270  1  0.13407637  0.98781098  0.74729849  1
  O  O271  1  0.62971100  0.49329330  0.24245780  1
  O  O272  1  0.63309180  0.49748386  0.74145590  1
  O  O273  1  0.62136092  0.99321640  0.23463278  1
  O  O274  1  0.57813689  1.01802735  0.73039194  1
  O  O275  1  0.37576338  0.00424939  0.25301712  1
  O  O276  1  0.36547288  -0.00196958  0.74931802  1
  O  O277  1  0.35818885  0.51506327  0.24155702  1
  O  O278  1  0.36756710  0.51170072  0.74877331  1
  O  O279  1  0.87675661  0.01156924  0.24832173  1
  O  O280  1  0.87792474  0.01540179  0.74537044  1
  O  O281  1  0.86886429  0.50563401  0.25667101  1
  O  O282  1  0.86806234  0.50980766  0.75837361  1
  O  O283  1  0.11075157  0.35806726  0.36912480  1
  O  O284  1  0.12707905  0.35721812  0.87412058  1
  O  O285  1  0.11134833  0.86793089  0.37503514  1
  O  O286  1  0.11782314  0.86673979  0.87198663  1
  O  O287  1  0.63333530  0.36352953  0.36260521  1
  O  O288  1  0.61856427  0.37159974  0.86944300  1
  O  O289  1  0.61401315  0.88146926  0.36474961  1
  O  O290  1  0.62143409  0.87963871  0.86209830  1
  O  O291  1  0.37064596  0.13266689  0.13229178  1
  O  O292  1  0.40604652  0.13018632  0.63518996  1
  O  O293  1  0.38019244  0.63805402  0.13518601  1
  O  O294  1  0.38584665  0.62847461  0.63349751  1
  O  O295  1  0.88014939  0.13487054  0.12994299  1
  O  O296  1  0.88141127  0.13003381  0.63138979  1
  O  O297  1  0.88270528  0.63558189  0.13037406  1
  O  O298  1  0.88069774  0.63537294  0.63464775  1
  O  O299  1  0.25467815  0.25345087  0.11944546  1
  O  O300  1  0.27589908  0.24091994  0.62546969  1
  O  O301  1  0.25447099  0.75378601  0.12144327  1
  O  O302  1  0.25556295  0.75869008  0.61664407  1
  O  O303  1  0.75779602  0.25437335  0.11781441  1
  O  O304  1  0.75503049  0.25735645  0.61576117  1
  O  O305  1  0.75966557  0.74493441  0.11736968  1
  O  O306  1  0.75833118  0.75722969  0.61491469  1
  O  O307  1  0.23131165  0.24491430  0.36531563  1
  O  O308  1  0.24351934  0.24461417  0.88223067  1
  O  O309  1  0.24278699  0.75379275  0.37983799  1
  O  O310  1  0.24325568  0.73978962  0.88491565  1
  O  O311  1  0.74675817  0.24363147  0.38206196  1
  O  O312  1  0.74423634  0.24897029  0.88074031  1
  O  O313  1  0.75765749  0.74410144  0.39112469  1
  O  O314  1  0.74805453  0.74412671  0.88325739  1
  O  O315  1  -0.00123354  0.11493864  0.00683638  1
  O  O316  1  -0.00405907  0.10922676  0.50860153  1
  O  O317  1  -0.00768305  0.61513553  0.00989514  1
  O  O318  1  -0.00540615  0.60899234  0.49733077  1
  O  O319  1  0.50600008  0.12100754  -0.00020526  1
  O  O320  1  0.50114968  0.10926397  0.49016648  1
  O  O321  1  0.50229270  0.62922314  0.01108211  1
  O  O322  1  0.50680564  0.62237469  0.50539959  1
  O  O323  1  0.50874722  0.39171705  0.50212068  1
  O  O324  1  0.50076510  0.37681286  0.98543759  1
  O  O325  1  0.49553790  0.87901428  0.49093321  1
  O  O326  1  0.48738932  0.87912287  1.00251970  1
  O  O327  1  1.00139445  0.38483705  0.48804121  1
  O  O328  1  0.99782274  0.38641821  0.99709953  1
  O  O329  1  0.99221114  0.88562294  0.49457749  1
  O  O330  1  0.99017436  0.87876843  0.99160700  1
  O  O331  1  0.50577143  0.50256458  0.38714837  1
  O  O332  1  0.50800301  0.48906405  0.87529937  1
  O  O333  1  0.49416423  0.99432636  0.37951255  1
  O  O334  1  0.49776960  0.99596321  0.89936354  1
  O  O335  1  0.99246378  0.49282884  0.38182321  1
  O  O336  1  0.99035648  0.50222055  0.88951010  1
  O  O337  1  0.99654487  0.99283796  0.38161758  1
  O  O338  1  0.99501558  0.99162450  0.88150741  1
  O  O339  1  -0.00434347  0.00868299  0.11657364  1
  O  O340  1  0.00986255  0.00249807  0.61863602  1
  O  O341  1  -0.00295525  0.50551557  0.11505441  1
  O  O342  1  -0.00560502  0.49956543  0.60625271  1
  O  O343  1  0.51152507  -0.00387579  0.11312652  1
  O  O344  1  0.49284235  -0.00264652  0.60380731  1
  O  O345  1  0.50733475  0.51573008  0.13176633  1
  O  O346  1  0.50502372  0.51106357  0.61907977  1
  O  O347  1  0.24211026  0.38222473  0.24299734  1
  O  O348  1  0.25090047  0.39447654  0.75619243  1
  O  O349  1  0.25273809  0.88727915  0.24115530  1
  O  O350  1  0.24717644  0.87883091  0.74873110  1
  O  O351  1  0.74099950  0.37843892  0.24159032  1
  O  O352  1  0.74594427  0.38110778  0.73990492  1
  O  O353  1  0.73805990  0.86781065  0.25837006  1
  O  O354  1  0.74612855  0.87927559  0.73648163  1
  O  O355  1  0.25797084  0.10812006  0.24395614  1
  O  O356  1  0.25233498  0.11330167  0.75716909  1
  O  O357  1  0.25527955  0.61979582  0.25553942  1
  O  O358  1  0.25820113  0.61709485  0.75764155  1
  O  O359  1  0.75990316  0.13346715  0.25900903  1
  O  O360  1  0.76161126  0.12825119  0.74562157  1
  O  O361  1  0.75446728  0.62119254  0.25659986  1
  O  O362  1  0.75551951  0.61994632  0.75667563  1
  O  O363  1  0.37866434  0.11246187  0.36096182  1
  O  O364  1  0.36003204  0.13247451  0.87408597  1
  O  O365  1  0.37264268  0.63100129  0.36422298  1
  O  O366  1  0.36498859  0.62989543  0.86858331  1
  O  O367  1  0.86772222  0.12280094  0.36476523  1
  O  O368  1  0.87754237  0.13004940  0.85351959  1
  O  O369  1  0.86905777  0.61811709  0.36989039  1
  O  O370  1  0.86441997  0.62005933  0.87052420  1
  O  O371  1  0.13488182  0.37434586  0.12769673  1
  O  O372  1  0.14358958  0.35762404  0.62461878  1
  O  O373  1  0.13406269  0.86796681  0.12340547  1
  O  O374  1  0.13223433  0.87481944  0.63627439  1
  O  O375  1  0.63114542  0.38433217  0.13004832  1
  O  O376  1  0.63417668  0.38151531  0.63019157  1
  O  O377  1  0.62710150  0.88700825  0.13140773  1
  O  O378  1  0.63813926  0.87353108  0.62865830  1
  O  O379  1  0.10966205  0.24522943  0.25653360  1
  O  O380  1  0.13258887  0.24779134  0.76198002  1
  O  O381  1  0.11268549  0.74985820  0.25576726  1
  O  O382  1  0.13477318  0.76412321  0.76438855  1
  O  O383  1  0.61909477  0.25421034  0.25266444  1
  O  O384  1  0.61902461  0.25829466  0.75647316  1
  O  O385  1  0.61312475  0.75927522  0.24217190  1
  O  O386  1  0.61168325  0.74109990  0.74981401  1
  O  O387  1  0.38104661  0.23614969  0.24218902  1
  O  O388  1  0.38360632  0.25096967  0.74457859  1
  O  O389  1  0.38177323  0.74729220  0.24470659  1
  O  O390  1  0.38616073  0.73843881  0.74942852  1
  O  O391  1  0.88364314  0.24240541  0.24327908  1
  O  O392  1  0.87331192  0.23946691  0.73332796  1
  O  O393  1  0.88315705  0.74610889  0.24324361  1
  O  O394  1  0.86485295  0.74002081  0.74442763  1
  O  O395  1  0.39051694  0.50218150  0.49846359  1
  O  O396  1  0.38028655  0.49634820  1.00587650  1
  O  O397  1  0.38025799  0.99141796  0.48927965  1
  O  O398  1  0.37921642  0.98962646  1.01256877  1
  O  O399  1  0.87323690  0.50202899  0.48775115  1
  O  O400  1  0.88274090  0.50192407  0.99206000  1
  O  O401  1  0.88101128  0.98907332  0.50026307  1
  O  O402  1  0.88468010  0.99128768  1.00134500  1
  O  O403  1  0.11066805  -0.00160788  -0.00350902  1
  O  O404  1  0.11952190  -0.00120429  0.50488286  1
  O  O405  1  0.10748464  0.49895209  0.00119853  1
  O  O406  1  0.11364727  0.50261346  0.49464606  1
  O  O407  1  0.61843030  0.00832567  0.01026356  1
  O  O408  1  0.61154113  -0.00308453  0.49462765  1
  O  O409  1  0.62020329  0.50378569  0.01401095  1
  O  O410  1  0.61806449  0.50898122  0.50380033  1
  O  O411  1  0.36058222  0.36423310  0.13406271  1
  O  O412  1  0.37150341  0.36187796  0.62792679  1
  O  O413  1  0.36857043  0.86337470  0.12190909  1
  O  O414  1  0.37015985  0.87307785  0.61382382  1
  O  O415  1  0.86935178  0.36101356  0.13034820  1
  O  O416  1  0.86664413  0.36704621  0.62881086  1
  O  O417  1  0.87994492  0.86271311  0.11597378  1
  O  O418  1  0.86211048  0.87414208  0.62060457  1
  O  O419  1  0.11284830  0.13675873  0.37804135  1
  O  O420  1  0.13461651  0.13391668  0.87640313  1
  O  O421  1  0.12636030  0.63970927  0.37288828  1
  O  O422  1  0.13181042  0.63510830  0.87045297  1
  O  O423  1  0.63509572  0.13571867  0.36450825  1
  O  O424  1  0.62580353  0.13603230  0.89073393  1
  O  O425  1  0.63158764  0.62330882  0.38575282  1
  O  O426  1  0.63862194  0.62623078  0.87862615  1
