# generated using pymatgen
data_V85Zn86O256
_symmetry_space_group_name_H-M   'P 1'
_cell_length_a   16.96942756
_cell_length_b   16.95745884
_cell_length_c   16.97746600
_cell_angle_alpha   89.93064328
_cell_angle_beta   89.96955891
_cell_angle_gamma   90.01767284
_symmetry_Int_Tables_number   1
_chemical_formula_structural   V85Zn86O256
_chemical_formula_sum   'V85 Zn86 O256'
_cell_volume   4885.40343139
_cell_formula_units_Z   1
loop_
 _symmetry_equiv_pos_site_id
 _symmetry_equiv_pos_as_xyz
  1  'x, y, z'
loop_
 _atom_site_type_symbol
 _atom_site_label
 _atom_site_symmetry_multiplicity
 _atom_site_fract_x
 _atom_site_fract_y
 _atom_site_fract_z
 _atom_site_occupancy
  V  V0  1  0.87229884  0.51097705  0.87483772  1
  V  V1  1  0.87304471  0.13666454  0.73994413  1
  V  V2  1  0.12158169  0.25632445  0.88987302  1
  V  V3  1  0.12390508  0.50058401  0.62621888  1
  V  V4  1  0.62100443  0.63305239  0.49643381  1
  V  V5  1  0.13252679  0.74569447  0.37217065  1
  V  V6  1  0.62325956  0.25421949  0.87714113  1
  V  V7  1  0.49418576  0.74703407  0.75377818  1
  V  V8  1  0.62952069  0.38392968  0.25252887  1
  V  V9  1  0.74934063  0.25383110  0.00176883  1
  V  V10  1  0.26412880  0.63044234  0.87382161  1
  V  V11  1  0.00181563  0.87922984  0.37556750  1
  V  V12  1  0.87481895  0.75058978  0.11914779  1
  V  V13  1  0.13102783  0.62212080  0.49545252  1
  V  V14  1  0.26491144  0.50744665  0.75250708  1
  V  V15  1  0.35987555  0.49904399  0.37002703  1
  V  V16  1  0.62789277  0.86659531  0.75485392  1
  V  V17  1  0.75104172  0.38372777  0.12992925  1
  V  V18  1  0.49142230  0.62524246  0.62828935  1
  V  V19  1  0.19256464  0.19544516  0.54636497  1
  V  V20  1  0.75905739  0.12500918  0.87640052  1
  V  V21  1  0.37803420  0.12164180  0.75298683  1
  V  V22  1  0.74883103  -0.00165521  0.25568182  1
  V  V23  1  0.14002370  0.49334091  0.13739757  1
  V  V24  1  0.75058205  0.37285754  0.62401964  1
  V  V25  1  0.87763622  0.37503131  0.49929924  1
  V  V26  1  0.25255820  0.74991372  0.49837193  1
  V  V27  1  0.00085533  0.74783541  0.24983676  1
  V  V28  1  0.87616511  0.12687345  0.24560891  1
  V  V29  1  0.37426966  0.00218840  0.37580770  1
  V  V30  1  0.74743036  0.50254696  0.75141594  1
  V  V31  1  0.75944374  0.74705765  0.50280648  1
  V  V32  1  0.00427448  0.25238362  0.24046649  1
  V  V33  1  0.12244266  0.38116507  0.75054570  1
  V  V34  1  0.49896042  0.62439779  0.12560005  1
  V  V35  1  0.50505777  0.86841628  0.37848582  1
  V  V36  1  0.75601903  0.00006460  0.75409169  1
  V  V37  1  0.37775860  -0.00096491  0.87922958  1
  V  V38  1  0.62797139  -0.00322598  0.62828290  1
  V  V39  1  0.62062475  0.00136915  0.12976743  1
  V  V40  1  0.34809149  0.26983726  0.13426824  1
  V  V41  1  -0.00318445  0.38177078  0.87140174  1
  V  V42  1  0.36502564  0.87209132  0.00673089  1
  V  V43  1  0.30458959  0.30754340  -0.03041501  1
  V  V44  1  0.86912134  0.62332151  0.24810374  1
  V  V45  1  0.62873321  0.12403952  0.50222953  1
  V  V46  1  0.36135860  0.62115021  0.25201343  1
  V  V47  1  0.50438404  0.24464706  0.24951082  1
  V  V48  1  0.24276176  -0.00296988  0.75338081  1
  V  V49  1  0.86850414  0.49914051  0.36649180  1
  V  V50  1  0.24382220  0.87338286  0.62928534  1
  V  V51  1  0.50049572  0.25233693  0.75164562  1
  V  V52  1  0.00092775  0.62385617  0.12250286  1
  V  V53  1  0.13073272  0.63138352  -0.00567494  1
  V  V54  1  0.48580782  0.12867994  0.12967024  1
  V  V55  1  0.49881935  0.37585461  0.37492162  1
  V  V56  1  0.24858562  0.37845290  0.61809433  1
  V  V57  1  0.74989522  0.12452177  0.37622463  1
  V  V58  1  0.00946701  0.37475587  0.37104745  1
  V  V59  1  0.12712000  0.11171772  0.01259981  1
  V  V60  1  0.76227140  0.86980687  0.62702096  1
  V  V61  1  0.25648460  -0.00593756  0.23834135  1
  V  V62  1  0.88293536  0.89431487  -0.00412261  1
  V  V63  1  0.13400480  0.87339705  0.23671696  1
  V  V64  1  -0.00057558  0.50086785  0.49704244  1
  V  V65  1  0.36262405  0.75111870  0.12424457  1
  V  V66  1  0.87192494  0.37821411  0.00044861  1
  V  V67  1  0.49229904  0.49693164  -0.00700845  1
  V  V68  1  0.74736108  0.87410212  0.12634698  1
  V  V69  1  -0.00086484  0.75920536  0.74152307  1
  V  V70  1  0.25018364  0.12468083  0.36215404  1
  V  V71  1  0.74678418  0.75472889  -0.00928976  1
  V  V72  1  0.75502304  0.24918217  0.50161002  1
  V  V73  1  0.50160870  0.12186627  0.62573858  1
  V  V74  1  0.62357645  0.12465552  0.00190478  1
  V  V75  1  0.37713071  0.24762465  0.61553714  1
  V  V76  1  -0.00642897  0.25709510  0.74213198  1
  V  V77  1  0.74279490  0.62769999  0.36917747  1
  V  V78  1  0.62381335  0.63010877  -0.00748722  1
  V  V79  1  0.12534132  0.23599868  0.36955453  1
  V  V80  1  0.50150874  -0.00394509  0.50188094  1
  V  V81  1  0.50376610  0.74614247  0.25418569  1
  V  V82  1  0.00125781  0.50549770  0.00087087  1
  V  V83  1  0.50474018  0.86937895  0.88007431  1
  V  V84  1  0.62138191  0.50043610  0.62254896  1
  Zn  Zn85  1  0.01724002  0.88642001  0.87346166  1
  Zn  Zn86  1  0.00465907  0.01190155  0.50474052  1
  Zn  Zn87  1  0.50008975  -0.00328808  0.00519691  1
  Zn  Zn88  1  0.37527794  0.87182888  0.50346561  1
  Zn  Zn89  1  0.37170563  0.37072713  0.49351651  1
  Zn  Zn90  1  0.12763905  0.75604553  0.86797994  1
  Zn  Zn91  1  -0.00605651  0.63253014  0.62136703  1
  Zn  Zn92  1  0.74418104  0.63507536  0.86839365  1
  Zn  Zn93  1  0.62748559  0.50391594  0.12530722  1
  Zn  Zn94  1  0.88330518  0.87174897  0.50572967  1
  Zn  Zn95  1  0.47883981  0.37623361  0.87992151  1
  Zn  Zn96  1  0.49599869  0.50065882  0.49675622  1
  Zn  Zn97  1  0.87052658  0.63494598  0.73287905  1
  Zn  Zn98  1  -0.02724105  0.06217729  0.07625824  1
  Zn  Zn99  1  0.87567646  0.24712433  0.12139187  1
  Zn  Zn100  1  0.87761486  -0.00053123  0.37928117  1
  Zn  Zn101  1  0.36965747  0.74669163  0.63135849  1
  Zn  Zn102  1  0.25329318  0.13111438  0.88240010  1
  Zn  Zn103  1  0.62680174  0.86776756  0.25661231  1
  Zn  Zn104  1  0.62581032  0.25195179  0.37702260  1
  Zn  Zn105  1  0.61940797  0.37951674  0.75274090  1
  Zn  Zn106  1  0.12581637  0.00212605  0.61889573  1
  Zn  Zn107  1  0.18889208  0.21455541  0.16713229  1
  Zn  Zn108  1  0.18659579  0.19053106  0.71282996  1
  Zn  Zn109  1  0.18478391  0.68150448  0.18365304  1
  Zn  Zn110  1  0.18223667  0.68679993  0.68782612  1
  Zn  Zn111  1  0.68537619  0.19139521  0.18827476  1
  Zn  Zn112  1  0.68756378  0.18970675  0.68773413  1
  Zn  Zn113  1  0.68512183  0.68745936  0.18369627  1
  Zn  Zn114  1  0.68350662  0.68715506  0.68436075  1
  Zn  Zn115  1  0.31518076  0.30207255  0.30924168  1
  Zn  Zn116  1  0.31041391  0.31411511  0.79939932  1
  Zn  Zn117  1  0.31828703  0.81365706  0.31354323  1
  Zn  Zn118  1  0.31275145  0.81547893  0.81552682  1
  Zn  Zn119  1  0.81300393  0.31052651  0.31231771  1
  Zn  Zn120  1  0.81006396  0.31844895  0.81429171  1
  Zn  Zn121  1  0.81299890  0.80791523  0.31482724  1
  Zn  Zn122  1  0.82497455  0.81723224  0.81283828  1
  Zn  Zn123  1  0.18466652  0.43036196  0.43729433  1
  Zn  Zn124  1  0.18407619  0.45092847  0.93360700  1
  Zn  Zn125  1  0.18363017  0.93775770  0.43724891  1
  Zn  Zn126  1  0.18915701  0.94168892  0.94266699  1
  Zn  Zn127  1  0.68636951  0.44244672  0.43689089  1
  Zn  Zn128  1  0.68184509  0.44154596  0.93957115  1
  Zn  Zn129  1  0.68804869  0.93310841  0.44102050  1
  Zn  Zn130  1  0.68869970  0.93906998  0.93871362  1
  Zn  Zn131  1  0.31350252  0.06926001  0.05994355  1
  Zn  Zn132  1  0.31433771  0.05509895  0.56350984  1
  Zn  Zn133  1  0.31257428  0.56197330  0.06082886  1
  Zn  Zn134  1  0.31290129  0.56019051  0.55618630  1
  Zn  Zn135  1  0.80083560  0.06369554  0.06686200  1
  Zn  Zn136  1  0.82369605  0.05678985  0.56258734  1
  Zn  Zn137  1  0.80945312  0.56628324  0.05952348  1
  Zn  Zn138  1  0.80871087  0.55916770  0.55651811  1
  Zn  Zn139  1  0.44145878  0.44018596  0.19122342  1
  Zn  Zn140  1  0.43808559  0.43360058  0.68523337  1
  Zn  Zn141  1  0.43647587  0.93396436  0.19181467  1
  Zn  Zn142  1  0.43431291  0.93137104  0.68809734  1
  Zn  Zn143  1  0.93881248  0.43668015  0.18661827  1
  Zn  Zn144  1  0.93190808  0.45203621  0.68183069  1
  Zn  Zn145  1  0.93288037  0.92958613  0.19303361  1
  Zn  Zn146  1  0.96813145  0.97113886  0.72468225  1
  Zn  Zn147  1  0.05401228  0.04907454  0.25960193  1
  Zn  Zn148  1  0.06179005  0.07295415  0.82657809  1
  Zn  Zn149  1  0.06260608  0.56378801  0.31197431  1
  Zn  Zn150  1  0.06184867  0.57510358  0.80768752  1
  Zn  Zn151  1  0.56282848  0.06078587  0.31551159  1
  Zn  Zn152  1  0.56670263  0.05994840  0.81545950  1
  Zn  Zn153  1  0.55785058  0.56073686  0.31317116  1
  Zn  Zn154  1  0.55957108  0.56367856  0.81476707  1
  Zn  Zn155  1  0.43932194  0.18262318  0.43434471  1
  Zn  Zn156  1  0.44233247  0.18683184  0.94231591  1
  Zn  Zn157  1  0.43370554  0.68241944  0.43560997  1
  Zn  Zn158  1  0.43714877  0.69081935  0.94110493  1
  Zn  Zn159  1  0.93781859  0.18884607  0.43151177  1
  Zn  Zn160  1  0.94096790  0.19097881  0.93652267  1
  Zn  Zn161  1  0.93927118  0.68540180  0.43567168  1
  Zn  Zn162  1  0.94021695  0.69508135  0.92905550  1
  Zn  Zn163  1  0.06090888  0.32369860  0.06489779  1
  Zn  Zn164  1  0.00179353  0.13692452  0.61476869  1
  Zn  Zn165  1  0.06330397  0.81533881  0.05593410  1
  Zn  Zn166  1  0.06613507  0.81374809  0.56412232  1
  Zn  Zn167  1  0.56091868  0.31607283  0.06504297  1
  Zn  Zn168  1  0.56376396  0.31275462  0.55993882  1
  Zn  Zn169  1  0.55897471  0.81120319  0.06572999  1
  Zn  Zn170  1  0.56617988  0.80990946  0.56688680  1
  O  O171  1  0.12930844  0.13591602  0.11160805  1
  O  O172  1  0.13811127  0.14280145  0.61713257  1
  O  O173  1  0.11744809  0.61684791  0.11629814  1
  O  O174  1  0.12372763  0.61238189  0.61522226  1
  O  O175  1  0.62419943  0.11366860  0.12256412  1
  O  O176  1  0.62108038  0.11817307  0.62223491  1
  O  O177  1  0.61612885  0.62395911  0.11639532  1
  O  O178  1  0.61559201  0.61700970  0.61740444  1
  O  O179  1  0.37966061  0.37913995  0.37003411  1
  O  O180  1  0.36589097  0.35049688  0.89061734  1
  O  O181  1  0.38643907  0.88398009  0.38099843  1
  O  O182  1  0.38361588  0.88115494  0.88410871  1
  O  O183  1  0.87689414  0.38210216  0.37951623  1
  O  O184  1  0.87607353  0.38867461  0.88276932  1
  O  O185  1  0.89157852  0.87119074  0.37218865  1
  O  O186  1  0.86953460  0.88385775  0.89661959  1
  O  O187  1  0.25965738  0.00344567  0.37365592  1
  O  O188  1  0.26551058  0.00062205  0.86952401  1
  O  O189  1  0.26131523  0.48775650  0.37238549  1
  O  O190  1  0.24862592  0.50994814  0.85781635  1
  O  O191  1  0.74962604  0.00404395  0.37026635  1
  O  O192  1  0.74226505  0.01354165  0.86709349  1
  O  O193  1  0.75757461  0.51360164  0.37781130  1
  O  O194  1  0.75314662  0.50194839  0.86628864  1
  O  O195  1  0.23916785  0.50686916  0.12733489  1
  O  O196  1  0.24749485  0.49618310  0.63236028  1
  O  O197  1  0.26445338  1.00298792  0.14070624  1
  O  O198  1  0.25020407  0.99302260  0.63523012  1
  O  O199  1  0.74924737  0.48806277  0.12013159  1
  O  O200  1  0.73798584  0.49185829  0.62922446  1
  O  O201  1  0.73984755  0.99359625  0.13552398  1
  O  O202  1  0.74411143  0.99302107  0.63232158  1
  O  O203  1  -0.01084888  0.36176820  0.25951680  1
  O  O204  1  0.00085830  0.37753264  0.75433878  1
  O  O205  1  0.00742118  0.85970425  0.25653932  1
  O  O206  1  -0.00352819  0.86073524  0.74423881  1
  O  O207  1  0.50936069  0.36885462  0.25937822  1
  O  O208  1  0.49844739  0.36600369  0.75735576  1
  O  O209  1  0.50069427  0.86441214  0.26059542  1
  O  O210  1  0.50927947  0.86953017  0.75754916  1
  O  O211  1  0.51037838  0.13239709  0.24193671  1
  O  O212  1  0.49385008  0.12962866  0.74671777  1
  O  O213  1  0.49280261  0.62858841  0.24344826  1
  O  O214  1  0.50808042  0.63539873  0.74202427  1
  O  O215  1  0.98807478  0.14235594  0.25762928  1
  O  O216  1  0.98663451  0.14270566  0.75585837  1
  O  O217  1  0.99236649  0.63463344  0.24542616  1
  O  O218  1  0.99072399  0.63353068  0.74452782  1
  O  O219  1  0.39351753  0.26345939  0.01232797  1
  O  O220  1  0.38095727  0.24788887  0.51210983  1
  O  O221  1  0.37885098  0.75862060  0.01230039  1
  O  O222  1  0.36067921  0.74556466  0.49963487  1
  O  O223  1  0.86864125  0.25917358  0.00007364  1
  O  O224  1  0.86201135  0.26162044  0.49318810  1
  O  O225  1  0.86880773  0.75434626  0.00880465  1
  O  O226  1  0.86345282  0.74898545  0.49725163  1
  O  O227  1  0.13201151  0.24855371  0.48851450  1
  O  O228  1  0.11588157  0.25644541  0.99109648  1
  O  O229  1  0.13404007  0.74261825  0.49244827  1
  O  O230  1  0.12050795  0.73293574  1.00179770  1
  O  O231  1  0.63692087  0.24344736  0.50060371  1
  O  O232  1  0.62809120  0.24577344  0.99347743  1
  O  O233  1  0.63340054  0.73684892  0.50423545  1
  O  O234  1  0.63544513  0.74499066  1.00809976  1
  O  O235  1  0.51313918  0.23855274  0.13444289  1
  O  O236  1  0.49482967  0.24523818  0.63200696  1
  O  O237  1  0.49336933  0.73772547  0.13174559  1
  O  O238  1  0.49894440  0.74169211  0.63423827  1
  O  O239  1  0.99631192  0.25864100  0.13730162  1
  O  O240  1  1.00606420  0.25306434  0.64420360  1
  O  O241  1  0.99264976  0.74483039  0.12937709  1
  O  O242  1  1.00331141  0.74859567  0.63313310  1
  O  O243  1  0.00671612  0.25733788  0.36560055  1
  O  O244  1  0.00525379  0.26478677  0.87023146  1
  O  O245  1  0.00709155  0.75296866  0.36548719  1
  O  O246  1  0.00322779  0.75991341  0.86390682  1
  O  O247  1  0.50291092  0.25512364  0.36890852  1
  O  O248  1  0.50717418  0.25122759  0.86813825  1
  O  O249  1  0.49244762  0.75613358  0.36769847  1
  O  O250  1  0.49908349  0.76141143  0.87015664  1
  O  O251  1  0.25020161  0.12823251  0.49458020  1
  O  O252  1  0.23510692  0.11870230  0.99508638  1
  O  O253  1  0.23803019  0.63057863  0.50277122  1
  O  O254  1  0.24405898  0.61543125  0.98254858  1
  O  O255  1  0.75063505  0.13219443  0.49893535  1
  O  O256  1  0.74363603  0.13204451  0.99354479  1
  O  O257  1  0.74187925  0.63048980  0.49379447  1
  O  O258  1  0.74096750  0.63716364  0.99919229  1
  O  O259  1  0.25912992  0.39142988  -0.00283695  1
  O  O260  1  0.25258460  0.37638308  0.51360816  1
  O  O261  1  0.26679075  0.88115433  0.00364135  1
  O  O262  1  0.25147519  0.86486763  0.50747522  1
  O  O263  1  0.75251866  0.37248084  0.00577614  1
  O  O264  1  0.75314904  0.36981998  0.50461327  1
  O  O265  1  0.75778994  0.87322432  0.00840496  1
  O  O266  1  0.74994294  0.86350736  0.50878626  1
  O  O267  1  0.12120531  0.50571022  0.23609154  1
  O  O268  1  0.12996938  0.49937795  0.74111176  1
  O  O269  1  0.14753638  0.98575876  0.25666682  1
  O  O270  1  0.14412791  1.02031466  0.74928947  1
  O  O271  1  0.62052659  0.48780243  0.24748480  1
  O  O272  1  0.63006257  0.50021496  0.74254670  1
  O  O273  1  0.63471820  0.99813517  0.24645579  1
  O  O274  1  0.63503726  0.99372793  0.74605528  1
  O  O275  1  0.36565294  -0.00714158  0.26187852  1
  O  O276  1  0.37348857  0.00738568  0.75734521  1
  O  O277  1  0.37726130  0.50574913  0.26073228  1
  O  O278  1  0.36289707  0.49605690  0.74669051  1
  O  O279  1  0.85974928  0.00483856  0.25355049  1
  O  O280  1  0.85800183  0.01595923  0.74595077  1
  O  O281  1  0.87905241  0.50537580  0.25976281  1
  O  O282  1  0.86270663  0.49879702  0.76152787  1
  O  O283  1  0.11314556  0.36455677  0.37675233  1
  O  O284  1  0.11743512  0.37684927  0.87075114  1
  O  O285  1  0.11688130  0.86213459  0.36536003  1
  O  O286  1  0.12784871  0.86753391  0.89045686  1
  O  O287  1  0.61870948  0.37587666  0.37017554  1
  O  O288  1  0.62778504  0.36149114  0.87305712  1
  O  O289  1  0.60978071  0.87924877  0.37539763  1
  O  O290  1  0.61664989  0.88265290  0.86715741  1
  O  O291  1  0.38381247  0.14285585  0.12200653  1
  O  O292  1  0.38010743  0.12906775  0.63314327  1
  O  O293  1  0.38082627  0.63013659  0.13171766  1
  O  O294  1  0.38828529  0.62374056  0.61958966  1
  O  O295  1  0.87372943  0.12471419  0.13478312  1
  O  O296  1  0.86851378  0.13280681  0.63816063  1
  O  O297  1  0.87891213  0.63229944  0.12771146  1
  O  O298  1  0.88527363  0.59405613  0.62641720  1
  O  O299  1  0.26498400  0.25493651  0.06830752  1
  O  O300  1  0.25256679  0.25256989  0.62046176  1
  O  O301  1  0.26352783  0.74538813  0.12929184  1
  O  O302  1  0.25004847  0.75372326  0.61952064  1
  O  O303  1  0.74984580  0.25994046  0.11641364  1
  O  O304  1  0.74403092  0.26550821  0.61934480  1
  O  O305  1  0.75743835  0.75663693  0.11909842  1
  O  O306  1  0.74549100  0.75685167  0.61644075  1
  O  O307  1  0.24275758  0.23781894  0.37078522  1
  O  O308  1  0.24509684  0.25817667  0.88838175  1
  O  O309  1  0.24183072  0.75625437  0.38225212  1
  O  O310  1  0.24882021  0.73354083  0.86419372  1
  O  O311  1  0.74741312  0.24297057  0.38420015  1
  O  O312  1  0.74206858  0.24591133  0.88120274  1
  O  O313  1  0.75096975  0.73659962  0.38360675  1
  O  O314  1  0.75500535  0.75487148  0.88782391  1
  O  O315  1  0.01525027  0.12753960  -0.00427588  1
  O  O316  1  -0.01113462  0.12612248  0.50347435  1
  O  O317  1  0.00289439  0.61820071  0.00026596  1
  O  O318  1  0.01217915  0.61888557  0.49818685  1
  O  O319  1  0.50761138  0.12070761  0.01244625  1
  O  O320  1  0.50778067  0.11800853  0.50748842  1
  O  O321  1  0.50628465  0.62149666  0.00614598  1
  O  O322  1  0.50634068  0.62414896  0.50648845  1
  O  O323  1  0.49745708  0.37352268  0.48638266  1
  O  O324  1  0.50935453  0.39313445  0.99853292  1
  O  O325  1  0.50061115  0.87718804  0.49692679  1
  O  O326  1  0.49695608  0.87692098  0.99268984  1
  O  O327  1  0.98644350  0.38217025  0.48611494  1
  O  O328  1  0.99253084  0.39050393  0.99436289  1
  O  O329  1  1.00229211  0.86761917  0.48252320  1
  O  O330  1  0.98453155  0.87618484  1.00010042  1
  O  O331  1  0.49055088  0.48878116  0.37540888  1
  O  O332  1  0.50129482  0.49618535  0.88689437  1
  O  O333  1  0.49382097  0.99412540  0.38139536  1
  O  O334  1  0.49156174  0.99104389  0.87463651  1
  O  O335  1  0.99412395  0.49281937  0.37700625  1
  O  O336  1  0.99098339  0.50121574  0.88023657  1
  O  O337  1  1.00216987  0.98145596  0.35904358  1
  O  O338  1  0.99172144  0.99063602  0.83646184  1
  O  O339  1  0.00762534  0.00455349  0.16194609  1
  O  O340  1  0.01067622  0.01919494  0.63237640  1
  O  O341  1  -0.00053528  0.50704220  0.11561424  1
  O  O342  1  0.01332553  0.49265960  0.61218800  1
  O  O343  1  0.50454992  0.00978234  0.13106311  1
  O  O344  1  0.50648004  0.00243377  0.62313139  1
  O  O345  1  0.50147186  0.51203711  0.11919889  1
  O  O346  1  0.50657541  0.50428742  0.62342363  1
  O  O347  1  0.26721729  0.28681198  0.20569327  1
  O  O348  1  0.24458147  0.38642343  0.74027310  1
  O  O349  1  0.24781894  0.88307884  0.25209066  1
  O  O350  1  0.25663824  0.88645089  0.74436816  1
  O  O351  1  0.74285107  0.36991717  0.24179672  1
  O  O352  1  0.74624379  0.38584327  0.74133607  1
  O  O353  1  0.74774175  0.88029641  0.24739732  1
  O  O354  1  0.74654536  0.88203777  0.74866791  1
  O  O355  1  0.24981860  0.11005851  0.26016490  1
  O  O356  1  0.26647258  0.12335071  0.75982425  1
  O  O357  1  0.26272470  0.63005946  0.25064022  1
  O  O358  1  0.24993638  0.61416525  0.75558022  1
  O  O359  1  0.75331814  0.11873248  0.25443334  1
  O  O360  1  0.75233532  0.12420817  0.75821052  1
  O  O361  1  0.75544698  0.63241167  0.25712417  1
  O  O362  1  0.74954853  0.61605188  0.74953674  1
  O  O363  1  0.36790445  0.11135876  0.37909529  1
  O  O364  1  0.37919274  0.11843797  0.87106261  1
  O  O365  1  0.37646228  0.60736535  0.36742251  1
  O  O366  1  0.36321872  0.62799361  0.87799224  1
  O  O367  1  0.86571320  0.12269165  0.36153531  1
  O  O368  1  0.86130886  0.13413221  0.86976652  1
  O  O369  1  0.86788990  0.61814826  0.36821045  1
  O  O370  1  0.86765185  0.61607537  0.87869861  1
  O  O371  1  0.12474427  0.39408767  0.12398402  1
  O  O372  1  0.13614003  0.38792500  0.63183741  1
  O  O373  1  0.12437382  0.86426651  0.13818569  1
  O  O374  1  0.14024983  0.87589694  0.62639771  1
  O  O375  1  0.63324073  0.37835059  0.13434845  1
  O  O376  1  0.62849934  0.38502339  0.62586903  1
  O  O377  1  0.62546457  0.88727344  0.12910735  1
  O  O378  1  0.63182114  0.88036000  0.63646547  1
  O  O379  1  0.10940228  0.24853513  0.25273716  1
  O  O380  1  0.11807652  0.26298369  0.76568830  1
  O  O381  1  0.11985833  0.74927880  0.25534697  1
  O  O382  1  0.10710510  0.74034407  0.75201876  1
  O  O383  1  0.62028328  0.26143737  0.25483629  1
  O  O384  1  0.61274428  0.25015848  0.75556376  1
  O  O385  1  0.60868860  0.74932288  0.24479202  1
  O  O386  1  0.61903970  0.76238900  0.74808873  1
  O  O387  1  0.39963184  0.24986524  0.24227558  1
  O  O388  1  0.38395697  0.24215770  0.74067854  1
  O  O389  1  0.38429467  0.74232052  0.24518180  1
  O  O390  1  0.39069027  0.75579859  0.75001374  1
  O  O391  1  0.88042594  0.24179362  0.24620029  1
  O  O392  1  0.88065403  0.25023201  0.75528064  1
  O  O393  1  0.88180262  0.74668480  0.23841843  1
  O  O394  1  0.88752462  0.74695806  0.75321578  1
  O  O395  1  0.37585903  0.49475625  0.48454185  1
  O  O396  1  0.39427380  0.50615718  1.00305120  1
  O  O397  1  0.38539653  0.99715370  0.49458213  1
  O  O398  1  0.38008092  0.99638636  0.99403773  1
  O  O399  1  0.87695165  0.49287879  0.48343996  1
  O  O400  1  0.88007433  0.49913702  0.99368537  1
  O  O401  1  0.88460560  0.98987933  0.49501819  1
  O  O402  1  0.88051783  0.99658034  1.01548936  1
  O  O403  1  0.12247241  0.01194873  0.00716130  1
  O  O404  1  0.11776011  -0.00542808  0.50449138  1
  O  O405  1  0.11498955  0.51067174  0.00611191  1
  O  O406  1  0.12301895  0.50540059  0.50270446  1
  O  O407  1  0.62377328  0.00598223  0.01138815  1
  O  O408  1  0.62150874  0.00387255  0.50910266  1
  O  O409  1  0.61752566  0.51317523  0.00358309  1
  O  O410  1  0.62212759  0.50968996  0.50875640  1
  O  O411  1  0.38369093  0.36273597  0.12876272  1
  O  O412  1  0.36766219  0.36281293  0.62452758  1
  O  O413  1  0.38588384  0.86313593  0.11795703  1
  O  O414  1  0.36354574  0.86975341  0.62187785  1
  O  O415  1  0.86739852  0.37470742  0.11761084  1
  O  O416  1  0.86309937  0.38660074  0.60949242  1
  O  O417  1  0.86918801  0.86711471  0.11824412  1
  O  O418  1  0.86095995  0.87824740  0.62569473  1
  O  O419  1  0.13171550  0.13394962  0.36751396  1
  O  O420  1  0.13055272  0.14116963  0.88414507  1
  O  O421  1  0.12169659  0.63599097  0.38055838  1
  O  O422  1  0.13437237  0.62519324  0.88197766  1
  O  O423  1  0.63223791  0.12487304  0.38546917  1
  O  O424  1  0.63073058  0.13633063  0.87965596  1
  O  O425  1  0.63102196  0.61778564  0.38308914  1
  O  O426  1  0.62570585  0.62654052  0.88808655  1
