# generated using pymatgen
data_V85Zn86O256
_symmetry_space_group_name_H-M   'P 1'
_cell_length_a   16.92041682
_cell_length_b   16.91439985
_cell_length_c   16.92320427
_cell_angle_alpha   89.93779007
_cell_angle_beta   90.02940079
_cell_angle_gamma   90.02579878
_symmetry_Int_Tables_number   1
_chemical_formula_structural   V85Zn86O256
_chemical_formula_sum   'V85 Zn86 O256'
_cell_volume   4843.39500595
_cell_formula_units_Z   1
loop_
 _symmetry_equiv_pos_site_id
 _symmetry_equiv_pos_as_xyz
  1  'x, y, z'
loop_
 _atom_site_type_symbol
 _atom_site_label
 _atom_site_symmetry_multiplicity
 _atom_site_fract_x
 _atom_site_fract_y
 _atom_site_fract_z
 _atom_site_occupancy
  V  V0  1  0.87366211  0.25489274  0.61553177  1
  V  V1  1  0.62432974  0.49641788  0.11956888  1
  V  V2  1  -0.00878381  0.12058508  0.62574506  1
  V  V3  1  0.88313962  0.87488499  0.50043228  1
  V  V4  1  0.25249085  0.12730995  0.38503493  1
  V  V5  1  -0.00300261  0.11989373  0.12794556  1
  V  V6  1  0.37453373  0.62319883  0.74960151  1
  V  V7  1  0.63199658  0.12549461  0.00038182  1
  V  V8  1  0.50196428  0.38161074  0.87905327  1
  V  V9  1  0.62968582  0.88302450  0.75081048  1
  V  V10  1  0.12145042  -0.00044904  0.61395692  1
  V  V11  1  0.75546681  0.12323667  0.86199328  1
  V  V12  1  0.36592514  0.38077675  0.49269541  1
  V  V13  1  0.24451179  0.63240970  0.87647620  1
  V  V14  1  0.87706321  0.87889830  0.00046479  1
  V  V15  1  0.12219340  0.11806491  0.00181966  1
  V  V16  1  0.12294700  0.25039843  0.87563487  1
  V  V17  1  -0.01176037  0.24667643  0.75163916  1
  V  V18  1  0.24879273  0.74579681  0.49918343  1
  V  V19  1  0.13235161  0.49164874  0.12817859  1
  V  V20  1  0.24932815  0.12655393  0.87435718  1
  V  V21  1  0.37580021  0.74629853  0.62542079  1
  V  V22  1  -0.01892127  0.49206295  0.49228674  1
  V  V23  1  0.37621444  0.50173190  0.88123992  1
  V  V24  1  -0.00051421  0.61451727  0.12282858  1
  V  V25  1  0.62732863  0.37249772  0.24788722  1
  V  V26  1  0.12661495  0.86843263  0.75356549  1
  V  V27  1  0.25220009  0.24812606  0.00913876  1
  V  V28  1  0.62846401  0.25247462  0.87362056  1
  V  V29  1  0.24339635  0.88790597  0.13357096  1
  V  V30  1  0.75172992  0.38208390  0.61321602  1
  V  V31  1  0.49881242  0.13076224  0.12375240  1
  V  V32  1  0.12649658  0.25186523  0.35251020  1
  V  V33  1  0.87993459  0.00292463  0.38084120  1
  V  V34  1  0.50501327  0.49883275  0.49260338  1
  V  V35  1  0.75585894  0.26234926  0.00395037  1
  V  V36  1  0.62696621  0.38550830  0.74205261  1
  V  V37  1  0.75055668  0.74916463  -0.00163282  1
  V  V38  1  0.75270804  0.87823124  0.62734390  1
  V  V39  1  -0.00571660  0.74288121  0.74988023  1
  V  V40  1  0.50130305  0.87549931  0.87404462  1
  V  V41  1  0.12467438  0.75108122  0.37297308  1
  V  V42  1  0.37683757  0.12696715  0.74819370  1
  V  V43  1  0.11965954  0.62611672  -0.00139836  1
  V  V44  1  0.75668687  0.62523832  0.87023440  1
  V  V45  1  0.76082290  0.50353551  0.74438489  1
  V  V46  1  0.50402611  0.12877382  0.61542445  1
  V  V47  1  0.49817088  0.62037087  0.11800085  1
  V  V48  1  0.62522675  0.74933851  0.87480912  1
  V  V49  1  0.24866225  -0.00019843  0.74885226  1
  V  V50  1  0.50264023  0.00204832  -0.00123228  1
  V  V51  1  0.37225664  -0.00114926  0.37130319  1
  V  V52  1  0.00527144  0.87151308  0.87616178  1
  V  V53  1  0.62485131  0.86975082  0.25874373  1
  V  V54  1  0.37442732  0.75014686  0.12886831  1
  V  V55  1  0.37391935  0.87462530  0.00260836  1
  V  V56  1  0.49725721  0.24941798  0.24973488  1
  V  V57  1  0.11999405  0.37542420  0.75203861  1
  V  V58  1  0.12143964  0.49983968  0.61868944  1
  V  V59  1  0.62803770  0.00457166  0.61968103  1
  V  V60  1  0.74823570  0.87633728  0.12575002  1
  V  V61  1  0.74379879  0.75179606  0.49335339  1
  V  V62  1  -0.00488391  0.37585267  0.89044153  1
  V  V63  1  0.37544402  0.37174991  0.00476741  1
  V  V64  1  0.87676656  0.26245309  0.12685074  1
  V  V65  1  0.87439156  0.12795458  0.24965076  1
  V  V66  1  0.75346721  0.49571136  0.24923526  1
  V  V67  1  0.37011063  0.12305270  0.24460177  1
  V  V68  1  0.25043706  0.87432910  0.62569449  1
  V  V69  1  0.37635381  0.00059807  0.87231996  1
  V  V70  1  0.37132918  0.61665281  0.25729366  1
  V  V71  1  0.24608332  0.49939604  0.75155338  1
  V  V72  1  0.87809244  0.49888383  0.89121652  1
  V  V73  1  0.87390501  0.00171943  0.86044549  1
  V  V74  1  0.87839999  0.74888243  0.12543685  1
  V  V75  1  0.50900234  0.61723704  0.62614836  1
  V  V76  1  0.50071397  0.25380315  0.74889102  1
  V  V77  1  0.74076990  0.12561153  0.38335230  1
  V  V78  1  0.12413104  0.14240739  0.50599860  1
  V  V79  1  0.73737494  0.62661544  0.37082847  1
  V  V80  1  0.37826209  0.87556949  0.49908723  1
  V  V81  1  0.87782921  0.62205109  0.26109628  1
  V  V82  1  -0.00645543  0.36903966  0.36425535  1
  V  V83  1  0.36756398  0.25395967  0.62107046  1
  V  V84  1  0.00548007  0.75368062  0.25009541  1
  Zn  Zn85  1  0.12009127  0.62206246  0.49812659  1
  Zn  Zn86  1  0.24833959  0.48378180  0.26424211  1
  Zn  Zn87  1  0.74977021  0.00068865  0.25089556  1
  Zn  Zn88  1  0.00369328  -0.00275829  0.00215165  1
  Zn  Zn89  1  0.25054699  0.62012666  0.37594457  1
  Zn  Zn90  1  0.62583933  -0.00068645  0.12596172  1
  Zn  Zn91  1  0.50166810  0.74928329  0.74737914  1
  Zn  Zn92  1  0.62042307  0.24892812  0.38443269  1
  Zn  Zn93  1  0.12536114  0.90570614  0.24956517  1
  Zn  Zn94  1  0.62401058  0.62647098  0.49911042  1
  Zn  Zn95  1  0.24502422  0.37120490  0.62289645  1
  Zn  Zn96  1  0.50433905  0.74440792  0.25947174  1
  Zn  Zn97  1  0.62068001  0.61879386  -0.00324159  1
  Zn  Zn98  1  0.00366138  0.87999723  0.37714303  1
  Zn  Zn99  1  0.24385122  0.75350900  -0.00083463  1
  Zn  Zn100  1  -0.00858803  0.61868137  0.62427915  1
  Zn  Zn101  1  0.74331217  0.25132479  0.50075231  1
  Zn  Zn102  1  0.49613396  0.37676138  0.37136198  1
  Zn  Zn103  1  0.50430674  0.87190695  0.37807050  1
  Zn  Zn104  1  0.50380457  0.00432990  0.49613579  1
  Zn  Zn105  1  0.87022074  0.74148978  0.62714764  1
  Zn  Zn106  1  0.24987443  0.36312722  0.13301695  1
  Zn  Zn107  1  0.16985248  0.11203126  0.20540177  1
  Zn  Zn108  1  0.18346805  0.18793905  0.68945324  1
  Zn  Zn109  1  0.18911556  0.68785561  0.18368045  1
  Zn  Zn110  1  0.18202712  0.68431845  0.68610992  1
  Zn  Zn111  1  0.68998709  0.18892705  0.18831617  1
  Zn  Zn112  1  0.68623967  0.19388303  0.68332577  1
  Zn  Zn113  1  0.68720700  0.68657741  0.18593737  1
  Zn  Zn114  1  0.68998424  0.69135726  0.68864090  1
  Zn  Zn115  1  0.31113205  0.30527789  0.31212529  1
  Zn  Zn116  1  0.31112374  0.31347467  0.81440485  1
  Zn  Zn117  1  0.31340427  0.81022377  0.31103358  1
  Zn  Zn118  1  0.31461652  0.81086593  0.81216552  1
  Zn  Zn119  1  0.81037471  0.31116061  0.31149758  1
  Zn  Zn120  1  0.81206965  0.31731595  0.81246668  1
  Zn  Zn121  1  0.81465652  0.81184156  0.31367081  1
  Zn  Zn122  1  0.81398180  0.81603113  0.81211697  1
  Zn  Zn123  1  0.18397900  0.43147817  0.43238462  1
  Zn  Zn124  1  0.18591728  0.44057648  0.94335413  1
  Zn  Zn125  1  0.19041481  0.93720643  0.43430921  1
  Zn  Zn126  1  0.18975401  0.93699336  0.93821607  1
  Zn  Zn127  1  0.68420225  0.44093331  0.43037224  1
  Zn  Zn128  1  0.68912836  0.44016933  0.93478416  1
  Zn  Zn129  1  0.69403472  0.94123192  0.43997730  1
  Zn  Zn130  1  0.69200641  0.94070306  0.93619880  1
  Zn  Zn131  1  0.31416717  0.06347609  0.06129028  1
  Zn  Zn132  1  0.31359194  0.06266820  0.56172633  1
  Zn  Zn133  1  0.30960509  0.56207367  0.06217774  1
  Zn  Zn134  1  0.31187838  0.55815995  0.56236170  1
  Zn  Zn135  1  0.81437456  0.06277944  0.05963915  1
  Zn  Zn136  1  0.81430167  0.06064726  0.56462055  1
  Zn  Zn137  1  0.80853306  0.56367284  0.06595869  1
  Zn  Zn138  1  0.81309367  0.56686497  0.56036040  1
  Zn  Zn139  1  0.43787687  0.43774341  0.18645047  1
  Zn  Zn140  1  0.43624774  0.43956372  0.68623207  1
  Zn  Zn141  1  0.44098468  0.94032833  0.18699274  1
  Zn  Zn142  1  0.44154376  0.93845350  0.68521494  1
  Zn  Zn143  1  0.94021408  0.43875511  0.19090832  1
  Zn  Zn144  1  0.93546991  0.43764119  0.68879356  1
  Zn  Zn145  1  0.93766097  0.94025617  0.19177173  1
  Zn  Zn146  1  0.94014260  0.93318145  0.68538811  1
  Zn  Zn147  1  0.05406883  0.06963089  0.32180895  1
  Zn  Zn148  1  0.06091533  0.05931460  0.81006362  1
  Zn  Zn149  1  0.06597299  0.55926866  0.31468677  1
  Zn  Zn150  1  0.06023964  0.55915460  0.81713562  1
  Zn  Zn151  1  0.56103479  0.05458492  0.30900628  1
  Zn  Zn152  1  0.56566685  0.06535979  0.80866985  1
  Zn  Zn153  1  0.55885317  0.56027336  0.30666504  1
  Zn  Zn154  1  0.56455294  0.56220901  0.81159506  1
  Zn  Zn155  1  0.43610502  0.19376392  0.43695935  1
  Zn  Zn156  1  0.43968198  0.19090987  0.93599039  1
  Zn  Zn157  1  0.44173839  0.68928823  0.43614378  1
  Zn  Zn158  1  0.43656441  0.68921439  0.93827076  1
  Zn  Zn159  1  0.94038286  0.19027752  0.43758484  1
  Zn  Zn160  1  0.93520714  0.18672320  0.93939083  1
  Zn  Zn161  1  0.93672176  0.68665580  0.44072090  1
  Zn  Zn162  1  0.93907079  0.68768908  0.93595126  1
  Zn  Zn163  1  0.06390419  0.30386348  0.06913444  1
  Zn  Zn164  1  0.05558952  0.31750074  0.56317655  1
  Zn  Zn165  1  0.06567882  0.80888480  0.06453585  1
  Zn  Zn166  1  0.06307708  0.80972547  0.56547230  1
  Zn  Zn167  1  0.56437285  0.31328193  0.06258915  1
  Zn  Zn168  1  0.56296299  0.31532347  0.55954655  1
  Zn  Zn169  1  0.56175090  0.80993889  0.06477781  1
  Zn  Zn170  1  0.56321327  0.81036556  0.56360739  1
  O  O171  1  0.11019816  0.13456962  0.11288746  1
  O  O172  1  0.11911707  0.11780290  0.62188968  1
  O  O173  1  0.11843442  0.61904467  0.11890190  1
  O  O174  1  0.11486891  0.61444558  0.62251689  1
  O  O175  1  0.62149582  0.12305145  0.11578482  1
  O  O176  1  0.61692446  0.11658685  0.63331048  1
  O  O177  1  0.61550293  0.61936433  0.12319874  1
  O  O178  1  0.61183363  0.63135746  0.62557776  1
  O  O179  1  0.37703995  0.36753916  0.39068509  1
  O  O180  1  0.38246698  0.38287082  0.87861355  1
  O  O181  1  0.37139436  0.88249594  0.38312743  1
  O  O182  1  0.37951264  0.88018792  0.88213759  1
  O  O183  1  0.89346015  0.36021875  0.37259978  1
  O  O184  1  0.88069858  0.38772553  0.87538978  1
  O  O185  1  0.87524891  0.88429968  0.38246715  1
  O  O186  1  0.88134931  0.88083645  0.88300015  1
  O  O187  1  0.26299020  0.00943713  0.37985493  1
  O  O188  1  0.25718860  0.00563676  0.86871684  1
  O  O189  1  0.23784218  0.50848286  0.37413023  1
  O  O190  1  0.25565725  0.50779220  0.87007405  1
  O  O191  1  0.75995640  0.01134212  0.37429644  1
  O  O192  1  0.76046460  0.01023669  0.87637148  1
  O  O193  1  0.74661496  0.51021452  0.35975833  1
  O  O194  1  0.76039551  0.50672070  0.87091148  1
  O  O195  1  0.23887133  0.49636993  0.12584556  1
  O  O196  1  0.23955659  0.49842865  0.63452953  1
  O  O197  1  0.25431913  0.98765282  0.12386301  1
  O  O198  1  0.24422969  0.99447655  0.63052761  1
  O  O199  1  0.73932209  0.50873875  0.13924670  1
  O  O200  1  0.75374400  0.49506722  0.63295877  1
  O  O201  1  0.75212292  0.98598655  0.12320615  1
  O  O202  1  0.74343264  0.98860799  0.62282600  1
  O  O203  1  0.00339219  0.37867995  0.26463027  1
  O  O204  1  0.00715256  0.36833976  0.75774520  1
  O  O205  1  0.00650302  0.86777356  0.25052583  1
  O  O206  1  0.00872423  0.86811790  0.75681812  1
  O  O207  1  0.50275744  0.36532589  0.24937098  1
  O  O208  1  0.50762647  0.37498303  0.75697578  1
  O  O209  1  0.51617592  0.87548139  0.24734479  1
  O  O210  1  0.50787447  0.87294958  0.75688304  1
  O  O211  1  0.49614771  0.12847832  0.24151730  1
  O  O212  1  0.49461076  0.13284709  0.74286964  1
  O  O213  1  0.48873988  0.62587489  0.23880090  1
  O  O214  1  0.49402954  0.62410352  0.74288396  1
  O  O215  1  0.98312378  0.12649647  0.24353016  1
  O  O216  1  1.00767276  0.13632746  0.74004914  1
  O  O217  1  0.99360532  0.62962292  0.24477541  1
  O  O218  1  1.00757268  0.64169664  0.75598241  1
  O  O219  1  0.36430514  0.25905900  -0.01160726  1
  O  O220  1  0.38217851  0.26618207  0.51117665  1
  O  O221  1  0.37479921  0.76353587  0.00523987  1
  O  O222  1  0.36742398  0.75508589  0.50583777  1
  O  O223  1  0.86264034  0.24584063  0.00950502  1
  O  O224  1  0.87089312  0.24752925  0.51268617  1
  O  O225  1  0.87133689  0.76057653  0.00314376  1
  O  O226  1  0.86429690  0.75777657  0.50067796  1
  O  O227  1  0.12863640  0.24281151  0.51197179  1
  O  O228  1  0.13198599  0.24035378  0.99240748  1
  O  O229  1  0.13224610  0.75051268  0.49318675  1
  O  O230  1  0.12799607  0.73414627  1.00411094  1
  O  O231  1  0.62845861  0.25115015  0.49855559  1
  O  O232  1  0.63581733  0.24436874  0.99540615  1
  O  O233  1  0.63874298  0.74905940  0.50275762  1
  O  O234  1  0.63112310  0.75273744  0.98759865  1
  O  O235  1  0.50436317  0.23713857  0.12858131  1
  O  O236  1  0.49267626  0.24618476  0.63192314  1
  O  O237  1  0.48789745  0.74475426  0.12661941  1
  O  O238  1  0.49176514  0.73977015  0.62490992  1
  O  O239  1  0.98230730  0.23822651  0.11745137  1
  O  O240  1  0.99111088  0.24639069  0.63270104  1
  O  O241  1  0.99718586  0.74202414  0.13337068  1
  O  O242  1  0.99931078  0.74964513  0.64017844  1
  O  O243  1  0.01526276  0.25688698  0.37945220  1
  O  O244  1  0.00135278  0.25496706  0.86885949  1
  O  O245  1  0.00641038  0.75345096  0.36832481  1
  O  O246  1  -0.00335349  0.76292667  0.86573084  1
  O  O247  1  0.50361310  0.25045297  0.36383442  1
  O  O248  1  0.50732762  0.25837030  0.86687527  1
  O  O249  1  0.49914019  0.75878722  0.37250863  1
  O  O250  1  0.50863990  0.75626831  0.87378342  1
  O  O251  1  0.24307052  0.12321900  0.49254346  1
  O  O252  1  0.24508406  0.12888934  0.99303732  1
  O  O253  1  0.24898619  0.63730597  0.50304040  1
  O  O254  1  0.24412128  0.62770905  0.99185916  1
  O  O255  1  0.75406440  0.12430177  0.48600617  1
  O  O256  1  0.74104858  0.13006279  0.99372209  1
  O  O257  1  0.74638035  0.63113437  0.48854953  1
  O  O258  1  0.74735476  0.63231034  0.98885102  1
  O  O259  1  0.25739100  0.36526025  -0.00051844  1
  O  O260  1  0.26286058  0.37859557  0.50442549  1
  O  O261  1  0.25823726  0.87457426  0.00780886  1
  O  O262  1  0.25907441  0.86546512  0.50476199  1
  O  O263  1  0.74690628  0.36043023  -0.00396542  1
  O  O264  1  0.74398700  0.38115254  0.51057863  1
  O  O265  1  0.75772081  0.86963435  0.00491776  1
  O  O266  1  0.75743265  0.86862368  0.50611405  1
  O  O267  1  0.12799745  0.50823771  0.23162299  1
  O  O268  1  0.12330003  0.49283596  0.74233002  1
  O  O269  1  0.12522580  1.01884805  0.25304878  1
  O  O270  1  0.13079364  0.99003662  0.74180508  1
  O  O271  1  0.62947127  0.49263569  0.24117496  1
  O  O272  1  0.64018130  0.49227928  0.75950011  1
  O  O273  1  0.63042526  0.98705244  0.24409483  1
  O  O274  1  0.62139320  0.98898616  0.74150439  1
  O  O275  1  0.38232583  0.00924907  0.25968860  1
  O  O276  1  0.36969095  0.00526703  0.75222252  1
  O  O277  1  0.37348337  0.51419083  0.24458920  1
  O  O278  1  0.36734268  0.50351211  0.75985027  1
  O  O279  1  0.87080277  0.00755392  0.26007733  1
  O  O280  1  0.87796945  -0.00677878  0.76116983  1
  O  O281  1  0.86618641  0.51062402  0.24246199  1
  O  O282  1  0.86396691  0.49679195  0.76094102  1
  O  O283  1  0.12060604  0.35591122  0.37348508  1
  O  O284  1  0.11687329  0.37300679  0.87083682  1
  O  O285  1  0.12530127  0.86632349  0.37005847  1
  O  O286  1  0.11818759  0.87993621  0.86685738  1
  O  O287  1  0.61908411  0.37476684  0.36001680  1
  O  O288  1  0.61858780  0.37261545  0.86915268  1
  O  O289  1  0.62979566  0.88120318  0.36147529  1
  O  O290  1  0.62351691  0.87151471  0.86912304  1
  O  O291  1  0.38413461  0.12008764  0.13317492  1
  O  O292  1  0.38184610  0.13295480  0.62958700  1
  O  O293  1  0.37901746  0.63199115  0.12800047  1
  O  O294  1  0.38012195  0.62758043  0.63162315  1
  O  O295  1  0.87618003  0.13006427  0.13139082  1
  O  O296  1  0.88455870  0.13108025  0.62455371  1
  O  O297  1  0.88217749  0.63132487  0.13059127  1
  O  O298  1  0.87837715  0.62799419  0.62645164  1
  O  O299  1  0.24824739  0.24518956  0.10836772  1
  O  O300  1  0.26394849  0.25008206  0.63399384  1
  O  O301  1  0.26233827  0.75891790  0.12178642  1
  O  O302  1  0.25347836  0.75464800  0.61950523  1
  O  O303  1  0.75933689  0.24681261  0.11165374  1
  O  O304  1  0.75789512  0.26104186  0.62492163  1
  O  O305  1  0.75695042  0.75856228  0.11933307  1
  O  O306  1  0.75024988  0.76223661  0.61885147  1
  O  O307  1  0.23720416  0.23962930  0.37529840  1
  O  O308  1  0.24201176  0.24301266  0.87783519  1
  O  O309  1  0.24359892  0.74776850  0.38294429  1
  O  O310  1  0.25518807  0.73629701  0.87648137  1
  O  O311  1  0.74786323  0.23594863  0.37595849  1
  O  O312  1  0.74977432  0.24515379  0.88505931  1
  O  O313  1  0.75362224  0.74123491  0.38153710  1
  O  O314  1  0.74619518  0.74386481  0.87641260  1
  O  O315  1  0.00668795  0.12240082  0.00466029  1
  O  O316  1  0.01031965  0.13011801  0.51371806  1
  O  O317  1  0.00576246  0.62991419  0.01012996  1
  O  O318  1  0.00046437  0.60643599  0.49591838  1
  O  O319  1  0.51042833  0.12484781  0.00335984  1
  O  O320  1  0.49436425  0.12585564  0.51265364  1
  O  O321  1  0.50041225  0.62898324  0.01232912  1
  O  O322  1  0.49761497  0.61391147  0.50729312  1
  O  O323  1  0.49220304  0.38834628  0.50120171  1
  O  O324  1  0.49364315  0.36628064  0.98566283  1
  O  O325  1  0.48671133  0.87591418  0.50443378  1
  O  O326  1  0.49414272  0.88065950  0.99493916  1
  O  O327  1  1.00169117  0.38613111  0.49042299  1
  O  O328  1  1.00459770  0.36512522  0.98859787  1
  O  O329  1  0.98698274  0.86851207  0.50066894  1
  O  O330  1  0.99567313  0.87398996  0.99437988  1
  O  O331  1  0.49797603  0.50068450  0.38835108  1
  O  O332  1  0.49142727  0.49265004  0.87180301  1
  O  O333  1  0.48925131  0.99443304  0.37909640  1
  O  O334  1  0.49597928  0.99645682  0.87850537  1
  O  O335  1  1.00793879  0.48526440  0.38487741  1
  O  O336  1  0.98572425  0.49262578  0.87459274  1
  O  O337  1  0.98524450  0.99972799  0.38011151  1
  O  O338  1  0.99376262  0.98835570  0.87623991  1
  O  O339  1  -0.00870299  0.01421241  0.12053156  1
  O  O340  1  0.00906959  0.00893616  0.63151958  1
  O  O341  1  0.00817987  0.51048190  0.12779494  1
  O  O342  1  0.00323395  0.49473417  0.61254169  1
  O  O343  1  0.50271958  0.01197835  0.11563814  1
  O  O344  1  0.50785323  0.01140476  0.62397661  1
  O  O345  1  0.50981125  0.50904333  0.12770497  1
  O  O346  1  0.49579576  0.50922681  0.61556422  1
  O  O347  1  0.26115100  0.37390113  0.24302473  1
  O  O348  1  0.23527298  0.38029848  0.75331332  1
  O  O349  1  0.24842178  0.87414590  0.23680699  1
  O  O350  1  0.24442249  0.87814012  0.74665102  1
  O  O351  1  0.74184618  0.38340909  0.25277030  1
  O  O352  1  0.74389854  0.38431528  0.74379986  1
  O  O353  1  0.74348187  0.87398230  0.24182770  1
  O  O354  1  0.74138775  0.87136949  0.74148843  1
  O  O355  1  0.26592267  0.12844266  0.26319881  1
  O  O356  1  0.25533723  0.12021936  0.75494934  1
  O  O357  1  0.26549664  0.62733795  0.24723358  1
  O  O358  1  0.25187399  0.61949459  0.75684964  1
  O  O359  1  0.75849720  0.12311871  0.25767448  1
  O  O360  1  0.74469977  0.13347012  0.76352604  1
  O  O361  1  0.75773358  0.62327242  0.25454668  1
  O  O362  1  0.74543807  0.61945598  0.76205604  1
  O  O363  1  0.36865120  0.12018411  0.37375407  1
  O  O364  1  0.37219363  0.11966488  0.86833854  1
  O  O365  1  0.37404321  0.62886680  0.35992867  1
  O  O366  1  0.36994531  0.61852269  0.87103988  1
  O  O367  1  0.87000449  0.12232915  0.36965779  1
  O  O368  1  0.86791774  0.11439630  0.87896844  1
  O  O369  1  0.86850304  0.62885690  0.36321283  1
  O  O370  1  0.86912624  0.61330498  0.87812692  1
  O  O371  1  0.12497326  0.38804238  0.11792461  1
  O  O372  1  0.12441055  0.37963417  0.63567387  1
  O  O373  1  0.13983335  0.87439878  0.12582830  1
  O  O374  1  0.13040924  0.88206818  0.63046267  1
  O  O375  1  0.61915865  0.38275241  0.13547214  1
  O  O376  1  0.63221245  0.37379101  0.63717837  1
  O  O377  1  0.63460630  0.87600817  0.12824096  1
  O  O378  1  0.63014309  0.88067084  0.63304354  1
  O  O379  1  0.12684013  0.23320314  0.25706319  1
  O  O380  1  0.11598521  0.25804545  0.75588628  1
  O  O381  1  0.11517934  0.74638923  0.25452328  1
  O  O382  1  0.11820697  0.76286431  0.74604769  1
  O  O383  1  0.61640018  0.25582012  0.24889378  1
  O  O384  1  0.62083246  0.26206408  0.75616427  1
  O  O385  1  0.62461916  0.76554499  0.24242037  1
  O  O386  1  0.62432584  0.76028341  0.76113616  1
  O  O387  1  0.38942677  0.23771280  0.25303101  1
  O  O388  1  0.38195395  0.24800679  0.74550976  1
  O  O389  1  0.37803290  0.74249210  0.24153104  1
  O  O390  1  0.37743647  0.74226501  0.74314814  1
  O  O391  1  0.86532630  0.24361000  0.23323447  1
  O  O392  1  0.88476449  0.25433733  0.74509093  1
  O  O393  1  0.88707114  0.74511639  0.24566099  1
  O  O394  1  0.89082083  0.75734132  0.74945329  1
  O  O395  1  0.38292926  0.48693161  0.50488094  1
  O  O396  1  0.36825575  0.49202263  0.98676875  1
  O  O397  1  0.37665193  0.99064956  0.49522289  1
  O  O398  1  0.38116682  0.99122000  0.99417417  1
  O  O399  1  0.88304678  0.49632262  0.49515927  1
  O  O400  1  0.86873668  0.50005525  0.99020197  1
  O  O401  1  0.86887799  0.98814079  0.49337845  1
  O  O402  1  0.87623147  0.98733101  0.99321943  1
  O  O403  1  0.12522273  0.01367716  -0.00475761  1
  O  O404  1  0.13070246  0.00427830  0.51154043  1
  O  O405  1  0.12824256  0.51322259  0.01358165  1
  O  O406  1  0.12420823  0.49632117  0.51309634  1
  O  O407  1  0.62087653  0.00939114  -0.00101218  1
  O  O408  1  0.62207497  -0.00639766  0.51482687  1
  O  O409  1  0.63220605  0.49953051  0.01409648  1
  O  O410  1  0.60929090  0.50354387  0.49831205  1
  O  O411  1  0.37862473  0.37861670  0.10687399  1
  O  O412  1  0.37172865  0.36854771  0.62004313  1
  O  O413  1  0.37064260  0.87142470  0.11977414  1
  O  O414  1  0.36952495  0.86947734  0.61998850  1
  O  O415  1  0.88130508  0.36133832  0.12686905  1
  O  O416  1  0.86456144  0.36696535  0.62981908  1
  O  O417  1  0.87092580  0.87000458  0.11896108  1
  O  O418  1  0.86782347  0.87294433  0.61837270  1
  O  O419  1  0.12809979  0.13652752  0.38848463  1
  O  O420  1  0.12800878  0.12979699  0.87948127  1
  O  O421  1  0.12488629  0.63987178  0.37729503  1
  O  O422  1  0.13332295  0.61694327  0.88425875  1
  O  O423  1  0.63896662  0.11986432  0.36876772  1
  O  O424  1  0.63104431  0.13212878  0.88125908  1
  O  O425  1  0.63404361  0.62412188  0.37044582  1
  O  O426  1  0.63111949  0.63396802  0.87677920  1
