# generated using pymatgen
data_V85Zn86O256
_symmetry_space_group_name_H-M   'P 1'
_cell_length_a   16.96232264
_cell_length_b   16.96842559
_cell_length_c   16.96545594
_cell_angle_alpha   89.92310139
_cell_angle_beta   90.00075058
_cell_angle_gamma   90.06168857
_symmetry_Int_Tables_number   1
_chemical_formula_structural   V85Zn86O256
_chemical_formula_sum   'V85 Zn86 O256'
_cell_volume   4883.05662670
_cell_formula_units_Z   1
loop_
 _symmetry_equiv_pos_site_id
 _symmetry_equiv_pos_as_xyz
  1  'x, y, z'
loop_
 _atom_site_type_symbol
 _atom_site_label
 _atom_site_symmetry_multiplicity
 _atom_site_fract_x
 _atom_site_fract_y
 _atom_site_fract_z
 _atom_site_occupancy
  V  V0  1  -0.00060566  0.86914897  0.87519384  1
  V  V1  1  0.75518176  0.00344692  0.24892222  1
  V  V2  1  0.24886581  0.62282218  0.38529286  1
  V  V3  1  0.12882659  0.87297549  0.74433401  1
  V  V4  1  0.70469552  0.70184349  0.53703488  1
  V  V5  1  0.49866675  0.12490443  0.12334080  1
  V  V6  1  0.74911721  0.87099168  0.12259248  1
  V  V7  1  0.06565202  0.05816173  0.67625783  1
  V  V8  1  0.37684487  0.62526984  0.74620518  1
  V  V9  1  0.37077068  -0.00454172  0.87520124  1
  V  V10  1  -0.00138594  0.50577370  0.50004889  1
  V  V11  1  0.37392964  0.61649012  0.25835632  1
  V  V12  1  0.74587585  0.12814116  0.37238341  1
  V  V13  1  0.62498220  0.88112665  0.74473963  1
  V  V14  1  -0.00239422  0.35987307  0.87814632  1
  V  V15  1  0.00555506  0.00045051  0.50295238  1
  V  V16  1  0.74987342  0.25534959  0.00233108  1
  V  V17  1  0.75646547  0.12860574  0.87268109  1
  V  V18  1  0.49487812  0.37810931  0.37236327  1
  V  V19  1  0.49959291  0.74780853  0.74550312  1
  V  V20  1  0.37885923  0.11999082  0.74552166  1
  V  V21  1  0.00459611  0.37418852  0.36060480  1
  V  V22  1  0.36911833  0.37477438  0.49300611  1
  V  V23  1  0.25471699  0.12338528  0.87092692  1
  V  V24  1  0.74759797  0.00535410  0.74402105  1
  V  V25  1  0.24324230  0.37527364  0.13126802  1
  V  V26  1  0.74976057  0.37845783  0.13505542  1
  V  V27  1  0.87065067  0.50428411  0.36279214  1
  V  V28  1  0.50121927  0.24793266  0.25031415  1
  V  V29  1  0.37438667  0.50046863  0.87667497  1
  V  V30  1  0.75873338  0.62985777  0.35924564  1
  V  V31  1  0.36727956  0.74995079  0.62003127  1
  V  V32  1  0.63268366  0.75149386  0.37606311  1
  V  V33  1  0.00217609  0.87499929  0.36469645  1
  V  V34  1  0.11492834  0.12863452  0.49921786  1
  V  V35  1  0.37569587  0.11748812  0.25479872  1
  V  V36  1  0.12403546  -0.01038778  0.13000061  1
  V  V37  1  0.25107763  0.24951975  0.00028487  1
  V  V38  1  0.88888307  0.24704913  0.63019771  1
  V  V39  1  -0.01506207  0.62497687  0.12509275  1
  V  V40  1  0.75347615  0.62082703  0.87756083  1
  V  V41  1  0.13183102  0.74913566  0.88472100  1
  V  V42  1  0.37426068  0.37471861  0.00103187  1
  V  V43  1  0.87810355  0.38165562  0.00343236  1
  V  V44  1  0.50728447  0.37725998  0.87090502  1
  V  V45  1  0.24768189  0.49970959  0.75262934  1
  V  V46  1  0.88077215  0.62224481  0.74157678  1
  V  V47  1  0.87194348  -0.00261394  0.87448560  1
  V  V48  1  0.11658231  0.36814175  0.75053674  1
  V  V49  1  0.12845698  0.12097745  0.00515662  1
  V  V50  1  0.49798674  0.00055735  -0.00367265  1
  V  V51  1  0.49808939  0.87605525  0.87376012  1
  V  V52  1  0.62541947  0.12767015  -0.00455280  1
  V  V53  1  0.00317498  0.74431007  0.74071344  1
  V  V54  1  -0.00210458  -0.00459833  0.00639619  1
  V  V55  1  0.49589908  0.74529244  0.25539583  1
  V  V56  1  0.13132494  0.75573550  0.37462351  1
  V  V57  1  0.62275365  0.87656723  0.24748856  1
  V  V58  1  0.75837637  0.74793448  0.00285626  1
  V  V59  1  0.62446654  0.62437986  0.00256714  1
  V  V60  1  0.12052720  0.24977385  0.35912916  1
  V  V61  1  0.36928139  0.87673793  0.49571467  1
  V  V62  1  0.25078391  0.12072038  0.37652595  1
  V  V63  1  0.50597118  0.24990733  0.74644935  1
  V  V64  1  0.13096348  0.61600882  0.00853849  1
  V  V65  1  0.49565069  0.62402399  0.13077909  1
  V  V66  1  0.50061407  0.49826496  0.00408468  1
  V  V67  1  0.87657243  0.87033963  0.50092704  1
  V  V68  1  0.74866057  0.87994136  0.61966145  1
  V  V69  1  0.87654617  0.36969187  0.49862626  1
  V  V70  1  0.25264832  -0.01186887  0.25314024  1
  V  V71  1  0.49740021  0.88594418  0.37485423  1
  V  V72  1  0.49632776  0.00539147  0.51589909  1
  V  V73  1  0.37825360  0.24773563  0.62474389  1
  V  V74  1  0.24801408  0.88970760  0.62528875  1
  V  V75  1  0.24099997  0.49830798  0.25549932  1
  V  V76  1  0.74715115  0.37585321  0.63011386  1
  V  V77  1  0.62657314  0.50206294  0.14501010  1
  V  V78  1  0.11873890  0.50821241  0.62627536  1
  V  V79  1  0.62404289  -0.00039143  0.12284124  1
  V  V80  1  0.88801995  0.50127574  0.87600394  1
  V  V81  1  0.25668024  0.87048815  0.10732510  1
  V  V82  1  0.87560173  0.00687380  0.37615099  1
  V  V83  1  0.62557444  0.11903735  0.51443064  1
  V  V84  1  0.24557026  0.37432036  0.62410914  1
  Zn  Zn85  1  -0.00552523  0.74013928  0.24743462  1
  Zn  Zn86  1  0.88345014  0.24968564  0.14553346  1
  Zn  Zn87  1  0.62851532  0.25655685  0.86774952  1
  Zn  Zn88  1  0.74881996  0.24914366  0.50178043  1
  Zn  Zn89  1  0.57189453  0.57650359  0.57221205  1
  Zn  Zn90  1  0.24596950  0.24764138  0.49750524  1
  Zn  Zn91  1  0.88788985  0.12711225  0.74645196  1
  Zn  Zn92  1  -0.01178081  0.12279278  0.14987815  1
  Zn  Zn93  1  0.25387435  0.62961984  0.88097424  1
  Zn  Zn94  1  0.12250410  0.24660995  0.87294141  1
  Zn  Zn95  1  0.58666876  0.43074446  0.69166961  1
  Zn  Zn96  1  0.62485850  0.75111101  0.87694683  1
  Zn  Zn97  1  0.87591578  0.86903619  -0.00111071  1
  Zn  Zn98  1  0.62231216  0.24953080  0.37845439  1
  Zn  Zn99  1  0.12388996  0.63010834  0.50466670  1
  Zn  Zn100  1  0.36295694  0.74585035  0.11625658  1
  Zn  Zn101  1  0.62456537  0.37609629  0.25605022  1
  Zn  Zn102  1  0.48838031  0.49629286  0.49567644  1
  Zn  Zn103  1  0.37345546  0.24819302  0.12613815  1
  Zn  Zn104  1  0.11618258  0.49496860  0.12800491  1
  Zn  Zn105  1  0.74700426  0.49833241  0.74811002  1
  Zn  Zn106  1  0.87789628  0.74465952  0.61945708  1
  Zn  Zn107  1  0.18861475  0.18103772  0.18599195  1
  Zn  Zn108  1  0.19433378  0.19199840  0.69143944  1
  Zn  Zn109  1  0.18464030  0.69074827  0.19470196  1
  Zn  Zn110  1  0.19299517  0.68927743  0.68988241  1
  Zn  Zn111  1  0.69024830  0.18929163  0.18655311  1
  Zn  Zn112  1  0.69347103  0.19349097  0.68427042  1
  Zn  Zn113  1  0.68475419  0.69057229  0.18762092  1
  Zn  Zn114  1  0.69305065  0.69217079  0.70510909  1
  Zn  Zn115  1  0.31019368  0.30531116  0.30977157  1
  Zn  Zn116  1  0.31472225  0.31196006  0.81181170  1
  Zn  Zn117  1  0.31507840  0.80602953  0.31405524  1
  Zn  Zn118  1  0.31043168  0.81470450  0.80940897  1
  Zn  Zn119  1  0.80881666  0.31705057  0.31770162  1
  Zn  Zn120  1  0.81790389  0.31057415  0.80984799  1
  Zn  Zn121  1  0.81474054  0.81301879  0.31191821  1
  Zn  Zn122  1  0.81253014  0.80818479  0.81187112  1
  Zn  Zn123  1  0.18387863  0.43859932  0.43665493  1
  Zn  Zn124  1  0.18595486  0.43573769  0.93686936  1
  Zn  Zn125  1  0.18719022  0.93836791  0.43924686  1
  Zn  Zn126  1  0.18807184  0.93578708  0.93526962  1
  Zn  Zn127  1  0.68684794  0.43910948  0.44377129  1
  Zn  Zn128  1  0.68818525  0.44232096  0.94061994  1
  Zn  Zn129  1  0.68441503  0.94056808  0.43856506  1
  Zn  Zn130  1  0.68422855  0.93703944  0.93396092  1
  Zn  Zn131  1  0.31479000  0.05756586  0.06351720  1
  Zn  Zn132  1  0.31232992  0.06343830  0.55920818  1
  Zn  Zn133  1  0.30831710  0.56247033  0.06617113  1
  Zn  Zn134  1  0.31527578  0.56109527  0.56388914  1
  Zn  Zn135  1  0.81239952  0.05976675  0.06243251  1
  Zn  Zn136  1  0.81757188  0.06594324  0.56150186  1
  Zn  Zn137  1  0.81022684  0.55802105  0.06524658  1
  Zn  Zn138  1  0.81535875  0.55421731  0.56019652  1
  Zn  Zn139  1  0.43151328  0.43698974  0.18961465  1
  Zn  Zn140  1  0.42798278  0.44061025  0.68050738  1
  Zn  Zn141  1  0.43495321  0.93632041  0.18634889  1
  Zn  Zn142  1  0.43278585  0.93676338  0.68891499  1
  Zn  Zn143  1  0.93847682  0.44469001  0.18276679  1
  Zn  Zn144  1  0.93748778  0.43481539  0.68819148  1
  Zn  Zn145  1  0.92505643  0.90787938  0.19959152  1
  Zn  Zn146  1  0.93097747  0.92974499  0.69353500  1
  Zn  Zn147  1  0.06862414  0.05228785  0.31516865  1
  Zn  Zn148  1  0.06029434  0.06269140  0.83789483  1
  Zn  Zn149  1  0.06160298  0.56630682  0.31093693  1
  Zn  Zn150  1  0.06451200  0.56281846  0.81560908  1
  Zn  Zn151  1  0.56595166  0.06301552  0.31369764  1
  Zn  Zn152  1  0.56308634  0.06530459  0.80846685  1
  Zn  Zn153  1  0.57855344  0.55049532  0.35869548  1
  Zn  Zn154  1  0.56248208  0.56622679  0.81406780  1
  Zn  Zn155  1  0.43627947  0.18692950  0.43753828  1
  Zn  Zn156  1  0.43767748  0.18965080  0.93348163  1
  Zn  Zn157  1  0.44054856  0.68715072  0.43988828  1
  Zn  Zn158  1  0.43525422  0.68781926  0.93668623  1
  Zn  Zn159  1  0.93587787  0.18744808  0.31924941  1
  Zn  Zn160  1  0.94125478  0.18982287  0.99949968  1
  Zn  Zn161  1  0.94076333  0.68819058  0.43422118  1
  Zn  Zn162  1  0.94550183  0.68287022  0.93978162  1
  Zn  Zn163  1  0.06294304  0.31295792  0.06229868  1
  Zn  Zn164  1  0.06166224  0.31626431  0.55365212  1
  Zn  Zn165  1  0.06411295  0.80890970  0.06668846  1
  Zn  Zn166  1  0.06577643  0.81256201  0.55801847  1
  Zn  Zn167  1  0.56428617  0.31386477  0.06511238  1
  Zn  Zn168  1  0.55941461  0.30736448  0.55509037  1
  Zn  Zn169  1  0.53133738  0.79523237  0.04866002  1
  Zn  Zn170  1  0.55504076  0.81908243  0.56603373  1
  O  O171  1  0.12810639  0.11192236  0.11332565  1
  O  O172  1  0.12927115  0.12173650  0.62364316  1
  O  O173  1  0.13186602  0.62344158  0.11419462  1
  O  O174  1  0.13372102  0.61162284  0.62622388  1
  O  O175  1  0.62064791  0.12132943  0.11222585  1
  O  O176  1  0.63142432  0.12344048  0.61285385  1
  O  O177  1  0.61970449  0.61764605  0.12224716  1
  O  O178  1  0.65305800  0.64153648  0.61104908  1
  O  O179  1  0.37795973  0.36096921  0.38437186  1
  O  O180  1  0.38493017  0.37982093  0.88065304  1
  O  O181  1  0.38510467  0.86655906  0.38524189  1
  O  O182  1  0.38309585  0.88569439  0.86535445  1
  O  O183  1  0.88169631  0.38512761  0.38103892  1
  O  O184  1  0.88094991  0.38218594  0.87869279  1
  O  O185  1  0.88100055  0.88868370  0.38587112  1
  O  O186  1  0.87962285  0.87799900  0.87537103  1
  O  O187  1  0.24161453  0.01168736  0.36673888  1
  O  O188  1  0.26113341  0.00785550  0.88016491  1
  O  O189  1  0.24574305  0.50814738  0.36831873  1
  O  O190  1  0.25813324  0.49855399  0.86927538  1
  O  O191  1  0.75489848  0.00405438  0.36826992  1
  O  O192  1  0.75307957  0.00644737  0.86621273  1
  O  O193  1  0.76442176  0.51128228  0.37868625  1
  O  O194  1  0.75985739  0.51136280  0.87858011  1
  O  O195  1  0.24731410  0.49050257  0.13427481  1
  O  O196  1  0.24345084  0.48859330  0.63115647  1
  O  O197  1  0.24599709  0.98783559  0.12998825  1
  O  O198  1  0.25458498  0.98918046  0.62607633  1
  O  O199  1  0.73819607  0.49161274  0.12394751  1
  O  O200  1  0.75344152  0.48136107  0.62448369  1
  O  O201  1  0.74208674  0.99931112  0.13137058  1
  O  O202  1  0.75797763  0.99541681  0.63721332  1
  O  O203  1  -0.00259229  0.38141484  0.26198794  1
  O  O204  1  0.00728070  0.37868942  0.76198953  1
  O  O205  1  0.01713023  0.90566249  0.27033089  1
  O  O206  1  0.00991579  0.86678900  0.75490905  1
  O  O207  1  0.49586576  0.36294028  0.25323732  1
  O  O208  1  0.49920702  0.36965653  0.75627363  1
  O  O209  1  0.50196560  0.86940944  0.25727485  1
  O  O210  1  0.50704888  0.87353931  0.75530231  1
  O  O211  1  0.49444090  0.12704833  0.24637296  1
  O  O212  1  0.48904211  0.13473629  0.75415368  1
  O  O213  1  0.48964362  0.63041412  0.25487490  1
  O  O214  1  0.49076496  0.63596862  0.75370450  1
  O  O215  1  1.00026450  0.11879967  0.25941163  1
  O  O216  1  1.01055268  0.11376329  0.74297990  1
  O  O217  1  1.00001724  0.62353412  0.23261292  1
  O  O218  1  0.99313412  0.63209260  0.75577280  1
  O  O219  1  0.36518407  0.25314884  0.00079415  1
  O  O220  1  0.37023310  0.25368691  0.50950077  1
  O  O221  1  0.42334994  0.75577586  0.02154665  1
  O  O222  1  0.38340443  0.76372722  0.51160031  1
  O  O223  1  0.85733889  0.26755987  -0.00983118  1
  O  O224  1  0.87526202  0.26580445  0.50822129  1
  O  O225  1  0.86147257  0.74867063  -0.00689199  1
  O  O226  1  0.88371469  0.76571106  0.50048121  1
  O  O227  1  0.12530968  0.24213386  0.49231773  1
  O  O228  1  0.13823951  0.23907964  0.99792358  1
  O  O229  1  0.11618666  0.74362729  0.48340213  1
  O  O230  1  0.12464731  0.74547172  0.98685926  1
  O  O231  1  0.62273163  0.23035819  0.49798427  1
  O  O232  1  0.63377002  0.24531463  0.99687717  1
  O  O233  1  0.62662332  0.76078774  0.49351044  1
  O  O234  1  0.62585449  0.73538227  0.99938181  1
  O  O235  1  0.49811732  0.24218575  0.13068141  1
  O  O236  1  0.48629316  0.25754859  0.63154997  1
  O  O237  1  0.51653227  0.73857862  0.14914503  1
  O  O238  1  0.48690725  0.76022125  0.63915008  1
  O  O239  1  0.99334340  0.23577614  0.10066964  1
  O  O240  1  0.98721274  0.26003323  0.62163499  1
  O  O241  1  1.00864713  0.73195816  0.12700987  1
  O  O242  1  1.00062976  0.75351295  0.63760507  1
  O  O243  1  0.00532808  0.26611083  0.37512099  1
  O  O244  1  0.00087349  0.25900700  0.88636571  1
  O  O245  1  0.00570075  0.76030452  0.37054122  1
  O  O246  1  0.01145407  0.75272480  0.86754878  1
  O  O247  1  0.49966516  0.25368428  0.36555481  1
  O  O248  1  0.50067211  0.26006464  0.86515993  1
  O  O249  1  0.50962390  0.75772656  0.36863926  1
  O  O250  1  0.49952007  0.76043154  0.86201451  1
  O  O251  1  0.23937473  0.12312463  0.49213323  1
  O  O252  1  0.24798307  0.12909169  0.99476988  1
  O  O253  1  0.25005884  0.61884140  0.48879628  1
  O  O254  1  0.23849488  0.62696281  0.99817198  1
  O  O255  1  0.73782620  0.11975729  0.49414053  1
  O  O256  1  0.74270616  0.13339638  0.99186427  1
  O  O257  1  0.76536081  0.63326341  0.48883062  1
  O  O258  1  0.74389228  0.63011778  0.99787276  1
  O  O259  1  0.25457916  0.36585484  0.00331746  1
  O  O260  1  0.25067391  0.37039617  0.50727108  1
  O  O261  1  0.25310728  0.87470528  0.00837527  1
  O  O262  1  0.26264736  0.88219688  0.50586545  1
  O  O263  1  0.75160592  0.37088231  0.00924018  1
  O  O264  1  0.75907783  0.37409120  0.50623208  1
  O  O265  1  0.74366021  0.86333932  0.00292405  1
  O  O266  1  0.75738316  0.88689473  0.51232818  1
  O  O267  1  0.13739313  0.50327882  0.24776210  1
  O  O268  1  0.12803745  0.49163682  0.74520691  1
  O  O269  1  0.14117498  1.00738485  0.23722408  1
  O  O270  1  0.11405002  0.99687791  0.74348769  1
  O  O271  1  0.61845393  0.50222023  0.24657988  1
  O  O272  1  0.63456801  0.50448686  0.75798975  1
  O  O273  1  0.63181667  0.99436390  0.24469262  1
  O  O274  1  0.63467167  0.99313559  0.75298166  1
  O  O275  1  0.36965912  0.01039960  0.24765949  1
  O  O276  1  0.37977589  0.01191491  0.75811915  1
  O  O277  1  0.36427754  0.51232325  0.24666967  1
  O  O278  1  0.36995753  0.50818925  0.75428130  1
  O  O279  1  0.86150555  -0.00654737  0.25992910  1
  O  O280  1  0.86833786  0.00521897  0.75697205  1
  O  O281  1  0.87355372  0.49493617  0.26481471  1
  O  O282  1  0.87279624  0.50661990  0.75854734  1
  O  O283  1  0.11202574  0.36703933  0.37723381  1
  O  O284  1  0.11534141  0.37349571  0.86912360  1
  O  O285  1  0.11824368  0.86340414  0.38467765  1
  O  O286  1  0.12171459  0.86526292  0.86834187  1
  O  O287  1  0.61290362  0.36976991  0.37387715  1
  O  O288  1  0.61109725  0.37627764  0.88354444  1
  O  O289  1  0.61952961  0.86933579  0.37018167  1
  O  O290  1  0.61900042  0.87350876  0.86108489  1
  O  O291  1  0.38233869  0.12392767  0.13257231  1
  O  O292  1  0.36597818  0.13509608  0.63409919  1
  O  O293  1  0.38009291  0.62634071  0.13485801  1
  O  O294  1  0.36694562  0.63366212  0.63793375  1
  O  O295  1  0.88404941  0.13640341  0.09700832  1
  O  O296  1  0.87542963  0.14204924  0.62466663  1
  O  O297  1  0.88582657  0.62570233  0.11548223  1
  O  O298  1  0.86897653  0.62432686  0.63803173  1
  O  O299  1  0.25146868  0.25429853  0.11811562  1
  O  O300  1  0.25672990  0.26132618  0.62435301  1
  O  O301  1  0.24679658  0.76737573  0.13109303  1
  O  O302  1  0.26286805  0.76145845  0.63174635  1
  O  O303  1  0.74930624  0.25990769  0.11588678  1
  O  O304  1  0.76270984  0.25995281  0.62047205  1
  O  O305  1  0.74256452  0.75952969  0.11512600  1
  O  O306  1  0.75326309  0.75915418  0.61986975  1
  O  O307  1  0.24027102  0.23719830  0.37437010  1
  O  O308  1  0.25194132  0.24199728  0.88345750  1
  O  O309  1  0.23780274  0.74286493  0.37285900  1
  O  O310  1  0.23534223  0.75016965  0.86887618  1
  O  O311  1  0.74481971  0.24085997  0.38193467  1
  O  O312  1  0.74681588  0.24458559  0.87779575  1
  O  O313  1  0.74667539  0.74843171  0.37660169  1
  O  O314  1  0.74729874  0.73765700  0.88157974  1
  O  O315  1  0.01702971  0.10553995  -0.01643400  1
  O  O316  1  0.01359148  0.11571986  0.50679065  1
  O  O317  1  0.01765211  0.62987432  0.01114713  1
  O  O318  1  -0.00045725  0.60985255  0.49657510  1
  O  O319  1  0.50807803  0.12286336  0.00077437  1
  O  O320  1  0.50727756  0.11202756  0.49625499  1
  O  O321  1  0.50848316  0.61456112  0.00585925  1
  O  O322  1  0.48732194  0.61246515  0.50465459  1
  O  O323  1  0.48718613  0.37022768  0.48871224  1
  O  O324  1  0.49374907  0.37906133  0.99555648  1
  O  O325  1  0.49362062  0.88807096  0.49496595  1
  O  O326  1  0.51413185  0.88687452  0.97947064  1
  O  O327  1  0.99362324  0.38585916  0.48890977  1
  O  O328  1  0.98899310  0.37611763  0.99282406  1
  O  O329  1  0.99390277  0.88400964  0.49617731  1
  O  O330  1  0.99979233  0.88046492  0.99711232  1
  O  O331  1  0.48721808  0.48035260  0.36493888  1
  O  O332  1  0.49330348  0.49467775  0.88215753  1
  O  O333  1  0.50349795  0.98785444  0.37751770  1
  O  O334  1  0.49310670  0.99521034  0.87561490  1
  O  O335  1  0.99379222  0.49331847  0.37867079  1
  O  O336  1  0.99033800  0.49449977  0.87509381  1
  O  O337  1  0.99193908  0.99847101  0.38860528  1
  O  O338  1  0.99222696  0.98610566  0.88338764  1
  O  O339  1  0.00786275  -0.00180466  0.11747242  1
  O  O340  1  -0.00133497  -0.00122410  0.62326484  1
  O  O341  1  0.00241134  0.51543178  0.12212164  1
  O  O342  1  0.00892325  0.49291893  0.61625150  1
  O  O343  1  0.50448062  0.00439165  0.11729926  1
  O  O344  1  0.49876570  -0.00251741  0.61420031  1
  O  O345  1  0.50592201  0.50484379  0.12386254  1
  O  O346  1  0.51259370  0.48711353  0.62174537  1
  O  O347  1  0.25810099  0.38311881  0.24174230  1
  O  O348  1  0.24440386  0.38035977  0.74387629  1
  O  O349  1  0.25765103  0.88703543  0.25402169  1
  O  O350  1  0.23559761  0.87643549  0.74471239  1
  O  O351  1  0.74365803  0.37205799  0.23841530  1
  O  O352  1  0.75467396  0.37389714  0.73476587  1
  O  O353  1  0.74118498  0.88288893  0.24120813  1
  O  O354  1  0.74456895  0.88048709  0.74136968  1
  O  O355  1  0.25908463  0.11649996  0.25531837  1
  O  O356  1  0.26052333  0.13088329  0.76382663  1
  O  O357  1  0.25501750  0.61806434  0.25885326  1
  O  O358  1  0.25796765  0.61752888  0.75622203  1
  O  O359  1  0.74119735  0.11424041  0.25845846  1
  O  O360  1  0.74861260  0.11924479  0.75628445  1
  O  O361  1  0.75553252  0.63588581  0.25964122  1
  O  O362  1  0.76333564  0.62503869  0.76328223  1
  O  O363  1  0.36390392  0.12831075  0.36763121  1
  O  O364  1  0.37110708  0.11809444  0.86814408  1
  O  O365  1  0.36217732  0.63746175  0.36612632  1
  O  O366  1  0.37454564  0.62061814  0.86665678  1
  O  O367  1  0.86090214  0.11265050  0.38184761  1
  O  O368  1  0.86189150  0.11971520  0.87240806  1
  O  O369  1  0.87480294  0.61343882  0.37399150  1
  O  O370  1  0.87241767  0.61807363  0.87223071  1
  O  O371  1  0.13860535  0.37710504  0.11744299  1
  O  O372  1  0.12946134  0.38015234  0.63163835  1
  O  O373  1  0.13660001  0.88402729  0.11992169  1
  O  O374  1  0.13433492  0.86988743  0.63143364  1
  O  O375  1  0.63012172  0.38564660  0.12934059  1
  O  O376  1  0.64204992  0.36207813  0.61784494  1
  O  O377  1  0.63167968  0.88380566  0.12801842  1
  O  O378  1  0.63279026  0.87254452  0.63581126  1
  O  O379  1  0.12781218  0.24363298  0.25973954  1
  O  O380  1  0.12946954  0.26394016  0.75367996  1
  O  O381  1  0.11738202  0.74763453  0.26935408  1
  O  O382  1  0.11993578  0.75507815  0.75665463  1
  O  O383  1  0.61072907  0.24764976  0.24980047  1
  O  O384  1  0.61063116  0.24307390  0.74843362  1
  O  O385  1  0.62149135  0.75972889  0.26004789  1
  O  O386  1  0.61572463  0.75891453  0.75397780  1
  O  O387  1  0.38455243  0.23593076  0.24700840  1
  O  O388  1  0.38319176  0.24362957  0.74379167  1
  O  O389  1  0.38333232  0.74146935  0.24497439  1
  O  O390  1  0.37975076  0.74362738  0.74557133  1
  O  O391  1  0.86612820  0.24637454  0.25508520  1
  O  O392  1  0.87804349  0.24596047  0.73638568  1
  O  O393  1  0.89977530  0.80176072  0.24362351  1
  O  O394  1  0.88539155  0.74084705  0.74899300  1
  O  O395  1  0.37008327  0.47829791  0.50723792  1
  O  O396  1  0.37966066  0.49542609  0.99676632  1
  O  O397  1  0.38850320  0.99503951  0.50149124  1
  O  O398  1  0.38614019  1.00584975  0.98769218  1
  O  O399  1  0.88280866  0.48951889  0.49285666  1
  O  O400  1  0.86777334  0.48841390  0.99119086  1
  O  O401  1  0.88461607  0.99471771  0.49672571  1
  O  O402  1  0.88317080  0.99636727  0.99124118  1
  O  O403  1  0.12090690  0.00219391  0.00570069  1
  O  O404  1  0.11254263  0.00509029  0.49922290  1
  O  O405  1  0.12891968  0.51370672  0.00038377  1
  O  O406  1  0.11672465  0.50053076  0.50991677  1
  O  O407  1  0.62035989  0.01055965  0.00116550  1
  O  O408  1  0.61139393  0.00961565  0.49812663  1
  O  O409  1  0.62055982  0.51017014  0.00947507  1
  O  O410  1  0.60779289  0.51274632  0.47204071  1
  O  O411  1  0.36441309  0.37225139  0.11655865  1
  O  O412  1  0.36281516  0.36565365  0.62027068  1
  O  O413  1  0.35940120  0.87505265  0.12649371  1
  O  O414  1  0.36698438  0.87035510  0.62015490  1
  O  O415  1  0.86760558  0.37578374  0.11846414  1
  O  O416  1  0.86880455  0.36884118  0.61945151  1
  O  O417  1  0.85208024  0.88997689  0.11245470  1
  O  O418  1  0.86587640  0.87124684  0.61933912  1
  O  O419  1  0.12849685  0.13174068  0.38376809  1
  O  O420  1  0.13962646  0.12595668  0.88503988  1
  O  O421  1  0.13259755  0.63256521  0.37829692  1
  O  O422  1  0.12648676  0.63460374  0.88480103  1
  O  O423  1  0.63549083  0.12295478  0.38279619  1
  O  O424  1  0.63343399  0.12687200  0.88364428  1
  O  O425  1  0.64066116  0.64428461  0.37201362  1
  O  O426  1  0.63490780  0.62559628  0.88658091  1
