# generated using pymatgen
data_V85Zn86O256
_symmetry_space_group_name_H-M   'P 1'
_cell_length_a   16.94414179
_cell_length_b   16.93816178
_cell_length_c   16.94076859
_cell_angle_alpha   90.01091155
_cell_angle_beta   90.01181197
_cell_angle_gamma   90.01294990
_symmetry_Int_Tables_number   1
_chemical_formula_structural   V85Zn86O256
_chemical_formula_sum   'V85 Zn86 O256'
_cell_volume   4862.04456723
_cell_formula_units_Z   1
loop_
 _symmetry_equiv_pos_site_id
 _symmetry_equiv_pos_as_xyz
  1  'x, y, z'
loop_
 _atom_site_type_symbol
 _atom_site_label
 _atom_site_symmetry_multiplicity
 _atom_site_fract_x
 _atom_site_fract_y
 _atom_site_fract_z
 _atom_site_occupancy
  V  V0  1  0.50271474  0.12950059  0.63318803  1
  V  V1  1  0.75141733  0.75241205  0.52345115  1
  V  V2  1  0.24615806  0.00359275  0.26426193  1
  V  V3  1  0.62382394  0.25189556  0.37585130  1
  V  V4  1  0.74449180  0.87118709  0.13065334  1
  V  V5  1  0.62147410  0.62778481  -0.00384250  1
  V  V6  1  0.50224110  0.00691593  -0.00110536  1
  V  V7  1  0.12882686  0.74984971  0.37486298  1
  V  V8  1  0.24880759  0.12223523  0.87057730  1
  V  V9  1  0.74784780  0.63043603  0.87263054  1
  V  V10  1  0.12369067  0.00938106  0.12282348  1
  V  V11  1  0.12288386  0.25180935  0.87204334  1
  V  V12  1  0.49813051  0.48762484  -0.00301703  1
  V  V13  1  0.12457125  0.62799392  -0.00074249  1
  V  V14  1  0.50467143  0.87110529  0.88359894  1
  V  V15  1  0.87384646  -0.00141241  0.37742450  1
  V  V16  1  0.00252363  0.62872062  0.12342159  1
  V  V17  1  0.25040178  0.62390296  0.88049283  1
  V  V18  1  0.41732090  -0.02606028  0.33972724  1
  V  V19  1  -0.00676108  0.87807190  0.87488600  1
  V  V20  1  0.62384064  0.63017436  0.49509084  1
  V  V21  1  0.49919862  0.50088085  0.50207304  1
  V  V22  1  0.37541796  0.25232948  0.11952823  1
  V  V23  1  0.25610759  0.74919662  0.50826457  1
  V  V24  1  0.12794058  0.87952289  0.74882098  1
  V  V25  1  0.62567127  0.77813694  0.34508351  1
  V  V26  1  0.75606221  0.50056285  0.25793885  1
  V  V27  1  0.00051096  0.87367775  0.37602862  1
  V  V28  1  -0.00557149  0.74923533  0.74135596  1
  V  V29  1  0.36597801  0.37413442  0.50452241  1
  V  V30  1  0.25683585  0.87711874  0.63824518  1
  V  V31  1  0.37191697  0.63419297  0.74678503  1
  V  V32  1  0.87506437  0.25021359  0.62485801  1
  V  V33  1  0.87027039  0.62351031  0.74249633  1
  V  V34  1  0.50275728  0.75049987  0.75373236  1
  V  V35  1  0.62133361  0.24110505  0.87573770  1
  V  V36  1  -0.00361751  0.50184205  0.48976308  1
  V  V37  1  0.00417880  -0.00370206  0.50535441  1
  V  V38  1  -0.00171323  0.50083083  -0.00256933  1
  V  V39  1  0.87207217  0.37288184  -0.00129804  1
  V  V40  1  0.12298965  0.49780044  0.62168879  1
  V  V41  1  0.49746292  0.37577844  0.37758066  1
  V  V42  1  0.87485062  0.75140755  0.12679655  1
  V  V43  1  0.00367784  0.12648602  0.62480585  1
  V  V44  1  0.86529228  0.49857741  0.86929700  1
  V  V45  1  0.25384831  0.25631212  -0.00414693  1
  V  V46  1  0.62749610  0.50121626  0.63312176  1
  V  V47  1  0.62485361  0.12471773  0.50204617  1
  V  V48  1  0.25007795  0.49950717  0.74202264  1
  V  V49  1  0.37276701  0.25335665  0.62955307  1
  V  V50  1  0.25223513  0.23967210  0.49172263  1
  V  V51  1  0.87461439  0.37897045  0.49179032  1
  V  V52  1  0.37418422  0.49017118  0.87503883  1
  V  V53  1  0.74209848  -0.00884033  0.25478612  1
  V  V54  1  0.49925207  -0.00270658  0.50426922  1
  V  V55  1  0.24930431  0.87827788  0.10023526  1
  V  V56  1  0.12630667  0.37519725  0.74401959  1
  V  V57  1  0.37265888  -0.00456444  0.87766652  1
  V  V58  1  0.75037076  0.36977949  0.12442585  1
  V  V59  1  0.12900800  0.62514389  0.49675209  1
  V  V60  1  0.11780854  0.24489653  0.36760569  1
  V  V61  1  0.75499357  -0.00524967  0.75763842  1
  V  V62  1  0.63317535  -0.00530975  0.62762251  1
  V  V63  1  0.62375966  0.50165605  0.12170579  1
  V  V64  1  0.36818293  0.50559672  0.37826076  1
  V  V65  1  0.37497404  0.12222538  0.75106705  1
  V  V66  1  0.63057256  0.86864568  0.75098722  1
  V  V67  1  0.75165611  0.12512048  0.37309357  1
  V  V68  1  0.87418267  0.12196727  0.75588922  1
  V  V69  1  -0.00228039  0.00763604  -0.00090387  1
  V  V70  1  0.62799744  0.00643916  0.11820475  1
  V  V71  1  0.00221357  0.75241068  0.25104913  1
  V  V72  1  0.36999259  0.12912031  0.25901447  1
  V  V73  1  0.87125712  0.86986297  0.51386463  1
  V  V74  1  0.87357966  0.87790147  0.00110467  1
  V  V75  1  0.12358765  0.75058102  0.87588046  1
  V  V76  1  0.74946003  0.25127124  0.50093491  1
  V  V77  1  0.24714936  0.50210731  0.25382853  1
  V  V78  1  0.75144854  0.37903364  0.63370653  1
  V  V79  1  0.49583498  0.63187410  0.62171382  1
  V  V80  1  0.37838160  0.87499891  0.50716335  1
  V  V81  1  0.62344621  0.37558849  0.24976052  1
  V  V82  1  0.89433053  0.24361130  0.12829926  1
  V  V83  1  0.25474359  0.37956841  0.12238679  1
  V  V84  1  0.49707296  0.25399453  0.24786741  1
  Zn  Zn85  1  0.11880271  0.37082131  0.24488392  1
  Zn  Zn86  1  0.74472402  0.23369178  0.00399307  1
  Zn  Zn87  1  0.88868875  0.13328423  0.25344008  1
  Zn  Zn88  1  0.74656404  0.75115789  -0.00158242  1
  Zn  Zn89  1  0.75538459  0.63170429  0.37633198  1
  Zn  Zn90  1  0.13514534  0.00384774  0.62986381  1
  Zn  Zn91  1  -0.00096401  0.25219228  0.74777771  1
  Zn  Zn92  1  0.88196139  0.61829053  0.25455175  1
  Zn  Zn93  1  0.74887494  0.11856383  0.88504258  1
  Zn  Zn94  1  0.29330769  0.66904371  0.33207387  1
  Zn  Zn95  1  0.50057069  0.12528430  0.12505116  1
  Zn  Zn96  1  0.49741948  0.36475995  0.86487666  1
  Zn  Zn97  1  0.37257138  0.76241153  0.07394398  1
  Zn  Zn98  1  -0.00356887  0.37402218  0.36430961  1
  Zn  Zn99  1  -0.00477113  0.62733958  0.62110285  1
  Zn  Zn100  1  0.61806811  0.36800104  0.74909130  1
  Zn  Zn101  1  0.12045735  0.13047900  0.00071586  1
  Zn  Zn102  1  0.44296044  0.68799364  0.20451743  1
  Zn  Zn103  1  -0.00286887  0.37580026  0.87017452  1
  Zn  Zn104  1  0.13290833  0.11966057  0.49937903  1
  Zn  Zn105  1  0.13482275  0.87173997  0.24561074  1
  Zn  Zn106  1  0.12691383  0.49858888  0.12375148  1
  Zn  Zn107  1  0.18945958  0.18651387  0.18525137  1
  Zn  Zn108  1  0.19214260  0.18959020  0.68487713  1
  Zn  Zn109  1  0.23051657  0.67290877  0.15851120  1
  Zn  Zn110  1  0.18497125  0.68915072  0.68652328  1
  Zn  Zn111  1  0.68946736  0.18564802  0.18828794  1
  Zn  Zn112  1  0.68932603  0.18690870  0.69322588  1
  Zn  Zn113  1  0.68495778  0.68366317  0.18498869  1
  Zn  Zn114  1  0.68562684  0.68290510  0.69019720  1
  Zn  Zn115  1  0.30943429  0.31888923  0.31164112  1
  Zn  Zn116  1  0.30941883  0.31165275  0.80520215  1
  Zn  Zn117  1  0.34337844  0.83638360  0.29340871  1
  Zn  Zn118  1  0.32987009  0.79350134  0.86580853  1
  Zn  Zn119  1  0.81485352  0.31158565  0.30833542  1
  Zn  Zn120  1  0.80634806  0.30564655  0.81440846  1
  Zn  Zn121  1  0.81334387  0.80924554  0.31621129  1
  Zn  Zn122  1  0.81206372  0.80942494  0.81111570  1
  Zn  Zn123  1  0.18551089  0.43026297  0.43694113  1
  Zn  Zn124  1  0.18712009  0.43698822  0.93456854  1
  Zn  Zn125  1  0.19028887  0.93242684  0.44288501  1
  Zn  Zn126  1  0.18045334  0.94458930  0.93040723  1
  Zn  Zn127  1  0.68603400  0.43900799  0.44209184  1
  Zn  Zn128  1  0.68573542  0.43128068  0.93359295  1
  Zn  Zn129  1  0.68557129  0.93198689  0.44088615  1
  Zn  Zn130  1  0.68702543  0.93671048  0.93770279  1
  Zn  Zn131  1  0.31290779  0.06500136  0.06104849  1
  Zn  Zn132  1  0.31479443  0.06053782  0.56719436  1
  Zn  Zn133  1  0.32488918  0.56695882  0.06376799  1
  Zn  Zn134  1  0.31198000  0.56475260  0.56270092  1
  Zn  Zn135  1  0.81603490  0.05989093  0.06667010  1
  Zn  Zn136  1  0.81470348  0.06126165  0.56490149  1
  Zn  Zn137  1  0.81009684  0.56253684  0.06362029  1
  Zn  Zn138  1  0.81106985  0.56171756  0.55946706  1
  Zn  Zn139  1  0.45617600  0.48660048  0.20777008  1
  Zn  Zn140  1  0.43832320  0.43969750  0.68829874  1
  Zn  Zn141  1  0.45587598  0.89762537  0.16215073  1
  Zn  Zn142  1  0.43950395  0.93804210  0.69083669  1
  Zn  Zn143  1  0.93997302  0.43539447  0.18423514  1
  Zn  Zn144  1  0.93913506  0.43949176  0.68306502  1
  Zn  Zn145  1  0.95375076  0.97124697  0.20593616  1
  Zn  Zn146  1  0.93922301  0.93826425  0.68941268  1
  Zn  Zn147  1  0.06751645  0.06599907  0.31759517  1
  Zn  Zn148  1  0.06035826  0.06186876  0.81314876  1
  Zn  Zn149  1  0.06764991  0.56349049  0.30999737  1
  Zn  Zn150  1  0.05758260  0.56198783  0.81149344  1
  Zn  Zn151  1  0.56746092  0.06870889  0.30544639  1
  Zn  Zn152  1  0.56405493  0.06131746  0.81251125  1
  Zn  Zn153  1  0.56506354  0.56775123  0.31513346  1
  Zn  Zn154  1  0.56059907  0.55943412  0.81282715  1
  Zn  Zn155  1  0.43745047  0.18224711  0.43703455  1
  Zn  Zn156  1  0.43936971  0.18615812  0.93794148  1
  Zn  Zn157  1  0.43567686  0.70827459  0.40845407  1
  Zn  Zn158  1  0.44627507  0.67667911  0.93106180  1
  Zn  Zn159  1  0.93836344  0.18606346  0.44081399  1
  Zn  Zn160  1  0.93399032  0.19121356  0.93713111  1
  Zn  Zn161  1  0.93422437  0.68529400  0.43690939  1
  Zn  Zn162  1  0.93486891  0.68996872  0.93411027  1
  Zn  Zn163  1  0.06596773  0.31693519  0.05872322  1
  Zn  Zn164  1  0.06432410  0.31360419  0.55699671  1
  Zn  Zn165  1  0.06664631  0.81781197  0.06310064  1
  Zn  Zn166  1  0.06578777  0.81307150  0.56449004  1
  Zn  Zn167  1  0.56287002  0.31127939  0.05646950  1
  Zn  Zn168  1  0.55973168  0.31375308  0.56681251  1
  Zn  Zn169  1  0.56376320  0.80641707  0.06892327  1
  Zn  Zn170  1  0.56158371  0.81191101  0.56500957  1
  O  O171  1  0.12865888  0.11474341  0.11976239  1
  O  O172  1  0.11823048  0.12326616  0.62371611  1
  O  O173  1  0.12783780  0.62424510  0.10880516  1
  O  O174  1  0.12243553  0.61519123  0.61611006  1
  O  O175  1  0.62272292  0.11058480  0.13045661  1
  O  O176  1  0.61935294  0.12098656  0.62154956  1
  O  O177  1  0.63340353  0.61137174  0.10910121  1
  O  O178  1  0.61886118  0.61870431  0.61716125  1
  O  O179  1  0.37931276  0.38162916  0.38523123  1
  O  O180  1  0.36993930  0.38717044  0.86766031  1
  O  O181  1  0.36190071  0.90048826  0.39654387  1
  O  O182  1  0.38887454  0.89018938  0.86252404  1
  O  O183  1  0.87542008  0.36774535  0.38829892  1
  O  O184  1  0.87421848  0.38003577  0.88044049  1
  O  O185  1  0.88281277  0.87834764  0.38505456  1
  O  O186  1  0.88412962  0.86651339  0.88465750  1
  O  O187  1  0.23849399  0.00352302  0.36324228  1
  O  O188  1  0.25911945  0.01032761  0.87739466  1
  O  O189  1  0.25522125  0.49239706  0.36858303  1
  O  O190  1  0.25151897  0.50606174  0.86313116  1
  O  O191  1  0.75026905  0.00635143  0.37389548  1
  O  O192  1  0.74869660  -0.00096231  0.86130263  1
  O  O193  1  0.74777406  0.49394339  0.35945359  1
  O  O194  1  0.76165393  0.50684175  0.88103355  1
  O  O195  1  0.25582334  0.49385173  0.13136008  1
  O  O196  1  0.24199672  0.50503798  0.63573660  1
  O  O197  1  0.24113997  0.99489161  0.12334600  1
  O  O198  1  0.25074430  0.98604499  0.62428453  1
  O  O199  1  0.74263803  0.48783568  0.12909532  1
  O  O200  1  0.73953477  0.49068398  0.61642988  1
  O  O201  1  0.74555706  0.99192123  0.13506504  1
  O  O202  1  0.73757076  1.00463670  0.63048111  1
  O  O203  1  0.00530083  0.37922628  0.25145765  1
  O  O204  1  0.01212321  0.37512449  0.74894423  1
  O  O205  1  0.00171067  0.87543844  0.26530450  1
  O  O206  1  0.00351867  0.86821093  0.75674830  1
  O  O207  1  0.50529365  0.37619408  0.25907191  1
  O  O208  1  0.50345995  0.37843034  0.75145572  1
  O  O209  1  0.45222837  0.89565641  0.27608990  1
  O  O210  1  0.50697483  0.86675199  0.75517917  1
  O  O211  1  0.49201662  0.13579751  0.24520791  1
  O  O212  1  0.49518005  0.12255340  0.73883425  1
  O  O213  1  0.49700548  0.59431995  0.23389361  1
  O  O214  1  0.49334647  0.63105834  0.74530751  1
  O  O215  1  0.98590136  0.07764101  0.24607681  1
  O  O216  1  0.99439988  0.12354658  0.73829366  1
  O  O217  1  1.00303886  0.63229093  0.24036376  1
  O  O218  1  0.99182729  0.63308635  0.74839665  1
  O  O219  1  0.36699317  0.24551355  0.00698868  1
  O  O220  1  0.36759828  0.25316297  0.50142309  1
  O  O221  1  0.36787505  0.74736206  -0.03608436  1
  O  O222  1  0.36773569  0.76270632  0.48970686  1
  O  O223  1  0.87384559  0.25811199  0.01022222  1
  O  O224  1  0.86907301  0.25557984  0.50669980  1
  O  O225  1  0.87693874  0.75808948  0.01078748  1
  O  O226  1  0.85902182  0.75585049  0.49749755  1
  O  O227  1  0.14032959  0.24797711  0.49656214  1
  O  O228  1  0.13140521  0.24959695  0.98839331  1
  O  O229  1  0.13098192  0.74258986  0.49800310  1
  O  O230  1  0.11597272  0.74059758  0.98812358  1
  O  O231  1  0.62999807  0.24564334  0.49581053  1
  O  O232  1  0.62990654  0.25464052  0.98511769  1
  O  O233  1  0.63939516  0.74361634  0.51221208  1
  O  O234  1  0.62411933  0.73150511  1.00519412  1
  O  O235  1  0.49197847  0.25279415  0.12912930  1
  O  O236  1  0.48681918  0.23902555  0.61633933  1
  O  O237  1  0.47638117  0.77981047  0.13470959  1
  O  O238  1  0.50181147  0.73832184  0.63528544  1
  O  O239  1  0.99282993  0.25071856  0.11955766  1
  O  O240  1  0.99576192  0.24195526  0.62305535  1
  O  O241  1  0.99640145  0.74861132  0.13028997  1
  O  O242  1  1.00326371  0.74843441  0.63740051  1
  O  O243  1  0.01407164  0.24945932  0.38202095  1
  O  O244  1  0.01165184  0.25171155  0.87127932  1
  O  O245  1  0.00723608  0.75764546  0.37433875  1
  O  O246  1  0.00724066  0.75636933  0.86611992  1
  O  O247  1  0.50320136  0.25570642  0.36976995  1
  O  O248  1  0.51359686  0.24766677  0.87928069  1
  O  O249  1  0.54094982  0.74105277  0.38787027  1
  O  O250  1  0.50423398  0.75614439  0.86193007  1
  O  O251  1  0.25507152  0.13589791  0.50100657  1
  O  O252  1  0.24903274  0.13743625  0.98639574  1
  O  O253  1  0.24165236  0.63488384  0.50534690  1
  O  O254  1  0.24088091  0.61518636  0.98566482  1
  O  O255  1  0.74517983  0.12834914  0.49150106  1
  O  O256  1  0.75492204  0.12013776  0.99848152  1
  O  O257  1  0.74489664  0.63847284  0.50173354  1
  O  O258  1  0.74018339  0.62434959  0.99266777  1
  O  O259  1  0.24801883  0.36449370  0.00289923  1
  O  O260  1  0.26155268  0.36379612  0.49975788  1
  O  O261  1  0.24140324  0.87877113  0.00023520  1
  O  O262  1  0.25660128  0.86819325  0.51349176  1
  O  O263  1  0.76214979  0.37696168  0.00743659  1
  O  O264  1  0.75663866  0.37018321  0.50629832  1
  O  O265  1  0.75813797  0.87187187  0.00443288  1
  O  O266  1  0.75531648  0.86126770  0.50187701  1
  O  O267  1  0.13411740  0.49585138  0.24520062  1
  O  O268  1  0.12825144  0.49697779  0.74195098  1
  O  O269  1  0.13638402  0.99929713  0.24220637  1
  O  O270  1  0.12035120  0.98350117  0.75128713  1
  O  O271  1  0.63477447  0.49227682  0.24058278  1
  O  O272  1  0.62420604  0.50268089  0.73559113  1
  O  O273  1  0.63593231  1.00159354  0.24236078  1
  O  O274  1  0.63326722  0.99307832  0.74407218  1
  O  O275  1  0.36133083  0.01243867  0.25015288  1
  O  O276  1  0.38158176  0.01437818  0.75875567  1
  O  O277  1  0.36066719  0.49261096  0.26679164  1
  O  O278  1  0.36466535  0.50833418  0.75233870  1
  O  O279  1  0.85477040  -0.00600494  0.26365339  1
  O  O280  1  0.86581479  0.00728046  0.74204471  1
  O  O281  1  0.85858328  0.49950603  0.23898155  1
  O  O282  1  0.88333189  0.50748152  0.76024517  1
  O  O283  1  0.12218031  0.35720861  0.37664995  1
  O  O284  1  0.12212000  0.36825900  0.86500902  1
  O  O285  1  0.11681044  0.86664910  0.37917496  1
  O  O286  1  0.11766167  0.86659215  0.86836038  1
  O  O287  1  0.61872806  0.36990777  0.37277679  1
  O  O288  1  0.62586242  0.36331544  0.86828470  1
  O  O289  1  0.62467539  0.87723730  0.36231025  1
  O  O290  1  0.61732614  0.87897004  0.86124843  1
  O  O291  1  0.37481674  0.13710561  0.13409025  1
  O  O292  1  0.38272730  0.12923706  0.63330609  1
  O  O293  1  0.34816724  0.65764876  0.12727829  1
  O  O294  1  0.38400164  0.62115388  0.63407523  1
  O  O295  1  0.87406357  0.14172193  0.12758724  1
  O  O296  1  0.88281931  0.13106921  0.63037203  1
  O  O297  1  0.88111555  0.63499236  0.12628294  1
  O  O298  1  0.87478073  0.61741655  0.63866489  1
  O  O299  1  0.25412188  0.25424521  0.11395512  1
  O  O300  1  0.26474743  0.24582946  0.61191630  1
  O  O301  1  0.23379568  0.77907762  0.12366474  1
  O  O302  1  0.24774708  0.75712266  0.61508957  1
  O  O303  1  0.75028838  0.26145286  0.12461255  1
  O  O304  1  0.75442239  0.25579569  0.61843618  1
  O  O305  1  0.75764356  0.75419003  0.12353140  1
  O  O306  1  0.75425649  0.74892506  0.62149089  1
  O  O307  1  0.24587305  0.25250255  0.38738429  1
  O  O308  1  0.24146281  0.24734452  0.87785906  1
  O  O309  1  0.23629271  0.75336782  0.38934737  1
  O  O310  1  0.23099491  0.73613790  0.86432886  1
  O  O311  1  0.74591618  0.24299129  0.37896179  1
  O  O312  1  0.74189063  0.24271239  0.88165338  1
  O  O313  1  0.72908649  0.75143659  0.37361759  1
  O  O314  1  0.75353159  0.73487423  0.87979580  1
  O  O315  1  -0.00276113  0.11109604  -0.00923992  1
  O  O316  1  -0.00035685  0.11442507  0.51145428  1
  O  O317  1  0.00530383  0.62056895  0.00162183  1
  O  O318  1  0.00635519  0.61976688  0.50234301  1
  O  O319  1  0.49789867  0.11096661  0.00575146  1
  O  O320  1  0.50654760  0.11818951  0.51011614  1
  O  O321  1  0.51586786  0.61089876  -0.00621712  1
  O  O322  1  0.50737804  0.62324647  0.50764970  1
  O  O323  1  0.49110427  0.37949119  0.49567504  1
  O  O324  1  0.50156001  0.38486166  0.98851949  1
  O  O325  1  0.49219301  0.88238500  0.50630740  1
  O  O326  1  0.50852799  0.87914145  0.98630247  1
  O  O327  1  0.99088521  0.38314830  0.49801233  1
  O  O328  1  0.98932108  0.38375121  0.99755025  1
  O  O329  1  0.99466656  0.87772604  0.49544239  1
  O  O330  1  0.99397180  0.87905668  0.99112781  1
  O  O331  1  0.49179875  0.49399030  0.38427391  1
  O  O332  1  0.48888483  0.49888292  0.87933391  1
  O  O333  1  0.50646732  1.00818888  0.38667833  1
  O  O334  1  0.49651525  0.99417039  0.88166286  1
  O  O335  1  1.00798451  0.49884379  0.38707491  1
  O  O336  1  0.98897402  0.50038477  0.88487179  1
  O  O337  1  0.99751239  0.99125493  0.39105160  1
  O  O338  1  1.00423488  0.98588362  0.88182844  1
  O  O339  1  0.01187834  -0.01021104  0.10871121  1
  O  O340  1  0.00267198  0.00532391  0.61707130  1
  O  O341  1  0.00043997  0.50943758  0.11107837  1
  O  O342  1  0.00833315  0.50323479  0.61268647  1
  O  O343  1  0.51015395  -0.00898851  0.11547721  1
  O  O344  1  0.51170108  0.00776323  0.62185879  1
  O  O345  1  0.51611728  0.48619628  0.11162557  1
  O  O346  1  0.50550743  0.51169803  0.61917800  1
  O  O347  1  0.24429139  0.38267569  0.24001246  1
  O  O348  1  0.23594160  0.38504607  0.75042609  1
  O  O349  1  0.25389807  0.89411588  0.24759571  1
  O  O350  1  0.24185553  0.86404093  0.74075656  1
  O  O351  1  0.74526740  0.38161792  0.24341946  1
  O  O352  1  0.75250539  0.37358390  0.73553518  1
  O  O353  1  0.75232608  0.87894265  0.24233394  1
  O  O354  1  0.74308800  0.87956615  0.75228905  1
  O  O355  1  0.25688542  0.11419586  0.24585176  1
  O  O356  1  0.25797354  0.12953552  0.76176135  1
  O  O357  1  0.23826613  0.61027355  0.25387688  1
  O  O358  1  0.25371827  0.62008307  0.75501603  1
  O  O359  1  0.75115558  0.11848413  0.26369745  1
  O  O360  1  0.76008537  0.11334878  0.74938771  1
  O  O361  1  0.74650219  0.60786838  0.24872811  1
  O  O362  1  0.75724621  0.62574401  0.75876979  1
  O  O363  1  0.38541216  0.11075721  0.36083554  1
  O  O364  1  0.36979263  0.11996366  0.86829601  1
  O  O365  1  0.37266693  0.60743444  0.39573877  1
  O  O366  1  0.36501835  0.61139952  0.86423531  1
  O  O367  1  0.86721816  0.11904567  0.37650643  1
  O  O368  1  0.87744713  0.12907215  0.85826836  1
  O  O369  1  0.86747547  0.63311294  0.36575526  1
  O  O370  1  0.86754255  0.61735157  0.86855442  1
  O  O371  1  0.14019673  0.37753568  0.12147468  1
  O  O372  1  0.12233918  0.38842072  0.62791852  1
  O  O373  1  0.13142849  0.89111849  0.12557335  1
  O  O374  1  0.13344943  0.87612294  0.63403129  1
  O  O375  1  0.63327149  0.37843672  0.12844016  1
  O  O376  1  0.63335027  0.38256855  0.62444183  1
  O  O377  1  0.63987007  0.88217097  0.11776221  1
  O  O378  1  0.61960196  0.88418214  0.63799034  1
  O  O379  1  0.13208739  0.24755309  0.26460121  1
  O  O380  1  0.12602111  0.25908283  0.75264578  1
  O  O381  1  0.11787157  0.75497604  0.26373718  1
  O  O382  1  0.11481677  0.75712253  0.75524418  1
  O  O383  1  0.61900705  0.25612504  0.25533350  1
  O  O384  1  0.63231265  0.25130370  0.76541963  1
  O  O385  1  0.62031016  0.75427405  0.24633312  1
  O  O386  1  0.61675005  0.75730759  0.74461193  1
  O  O387  1  0.37645124  0.24624002  0.24601135  1
  O  O388  1  0.37046185  0.23879820  0.74052803  1
  O  O389  1  0.38434962  0.73237696  0.29893283  1
  O  O390  1  0.38058803  0.73716138  0.76212319  1
  O  O391  1  0.87639122  0.25003264  0.23435857  1
  O  O392  1  0.87676982  0.24264824  0.74149972  1
  O  O393  1  0.88313334  0.75320106  0.23884504  1
  O  O394  1  0.88389458  0.73810830  0.75616731  1
  O  O395  1  0.37740014  0.48945292  0.50115128  1
  O  O396  1  0.38587377  0.50591553  0.98942133  1
  O  O397  1  0.39255856  0.99790880  0.50903931  1
  O  O398  1  0.38403150  1.00465110  0.98743416  1
  O  O399  1  0.88359405  0.49158824  0.50290361  1
  O  O400  1  0.88002072  0.49380053  0.99463742  1
  O  O401  1  0.88052449  0.99169344  0.49669720  1
  O  O402  1  0.88394292  0.98526841  1.00764678  1
  O  O403  1  0.11574766  0.00668172  0.00326839  1
  O  O404  1  0.11703652  -0.00017573  0.50474145  1
  O  O405  1  0.11464368  0.50694228  -0.00373102  1
  O  O406  1  0.12285768  0.50549289  0.50474689  1
  O  O407  1  0.61745704  -0.00342907  0.00736341  1
  O  O408  1  0.61870487  0.00228111  0.50876516  1
  O  O409  1  0.62120274  0.50234432  0.00427225  1
  O  O410  1  0.61774093  0.50677012  0.50913016  1
  O  O411  1  0.36112978  0.35943540  0.12851048  1
  O  O412  1  0.38019306  0.36490933  0.61677423  1
  O  O413  1  0.35289945  0.87807121  0.11181754  1
  O  O414  1  0.37088114  0.87704983  0.61831468  1
  O  O415  1  0.86933234  0.36596314  0.11709327  1
  O  O416  1  0.86926367  0.37026071  0.61652466  1
  O  O417  1  0.86404950  0.86683472  0.11768914  1
  O  O418  1  0.88085188  0.87581748  0.61266134  1
  O  O419  1  0.12493966  0.13851519  0.38287303  1
  O  O420  1  0.13211001  0.13341420  0.87161700  1
  O  O421  1  0.12071702  0.63407601  0.38850439  1
  O  O422  1  0.12769887  0.62852981  0.88055674  1
  O  O423  1  0.63200939  0.13241695  0.38132976  1
  O  O424  1  0.62802817  0.13502944  0.86988004  1
  O  O425  1  0.63560020  0.61189942  0.39209101  1
  O  O426  1  0.63389584  0.61485470  0.88619773  1
