# generated using pymatgen
data_V85Zn86O256
_symmetry_space_group_name_H-M   'P 1'
_cell_length_a   16.93444158
_cell_length_b   16.93239126
_cell_length_c   16.93204130
_cell_angle_alpha   89.97971088
_cell_angle_beta   90.05671204
_cell_angle_gamma   90.06084199
_symmetry_Int_Tables_number   1
_chemical_formula_structural   V85Zn86O256
_chemical_formula_sum   'V85 Zn86 O256'
_cell_volume   4855.09810611
_cell_formula_units_Z   1
loop_
 _symmetry_equiv_pos_site_id
 _symmetry_equiv_pos_as_xyz
  1  'x, y, z'
loop_
 _atom_site_type_symbol
 _atom_site_label
 _atom_site_symmetry_multiplicity
 _atom_site_fract_x
 _atom_site_fract_y
 _atom_site_fract_z
 _atom_site_occupancy
  V  V0  1  0.37253487  0.24841883  0.62250058  1
  V  V1  1  0.49860590  -0.00349444  -0.00063807  1
  V  V2  1  0.35965650  0.49453117  0.87983261  1
  V  V3  1  0.11529798  0.37833508  0.75733369  1
  V  V4  1  -0.00141539  0.88032681  0.37405319  1
  V  V5  1  0.12293263  0.00784294  0.11926870  1
  V  V6  1  0.63117717  0.12020979  0.50412636  1
  V  V7  1  -0.00360624  0.62132415  0.62027821  1
  V  V8  1  0.37227655  0.87551287  0.50135406  1
  V  V9  1  0.87658091  0.49622021  0.38082746  1
  V  V10  1  0.49931129  0.24927192  0.74987846  1
  V  V11  1  0.62746892  0.49934904  0.62901603  1
  V  V12  1  0.87393478  0.75249628  0.12448384  1
  V  V13  1  0.75129004  0.74954788  -0.00203800  1
  V  V14  1  0.62678137  -0.00117553  0.12505097  1
  V  V15  1  0.88048369  0.11492127  0.75154538  1
  V  V16  1  0.87237325  0.01459268  0.37565238  1
  V  V17  1  0.23702633  0.24678067  0.49454845  1
  V  V18  1  0.01193380  0.36950253  0.37163873  1
  V  V19  1  0.49982138  0.75066599  0.25128212  1
  V  V20  1  0.12947639  0.88053230  0.24874905  1
  V  V21  1  0.00385177  0.01030953  0.50021796  1
  V  V22  1  0.50371309  0.11944892  0.62721730  1
  V  V23  1  0.24587232  0.38071938  0.63049444  1
  V  V24  1  -0.00298606  0.62234024  0.12336811  1
  V  V25  1  0.80473036  0.44719711  0.80469069  1
  V  V26  1  0.50214112  0.37369550  0.37709396  1
  V  V27  1  0.87711777  0.87873996  -0.00831074  1
  V  V28  1  0.49806327  0.24755101  0.25266066  1
  V  V29  1  0.74708570  0.50230468  0.24155613  1
  V  V30  1  0.49881233  0.12184570  0.12644576  1
  V  V31  1  0.50557535  0.61914242  0.12345993  1
  V  V32  1  0.74482335  0.87636189  0.61763370  1
  V  V33  1  0.62384288  0.74585422  0.87416544  1
  V  V34  1  -0.00666491  0.49599125  -0.01617291  1
  V  V35  1  0.63523443  0.24954917  0.87468139  1
  V  V36  1  0.62287591  0.88070750  0.74337006  1
  V  V37  1  0.62536253  0.37817494  0.24468560  1
  V  V38  1  0.62307175  0.37802893  0.75143547  1
  V  V39  1  -0.00114221  0.75416193  0.24860762  1
  V  V40  1  0.37321806  0.37215363  0.49982855  1
  V  V41  1  0.24837425  0.87605205  0.12536077  1
  V  V42  1  0.12609554  0.50539574  0.13619414  1
  V  V43  1  0.12915370  0.00699155  0.62520350  1
  V  V44  1  0.75533655  0.11383383  0.87455578  1
  V  V45  1  0.24179764  0.36219232  0.12715698  1
  V  V46  1  0.63025212  0.75200935  0.37972097  1
  V  V47  1  0.75586729  0.35982021  0.12029426  1
  V  V48  1  0.24450509  0.13038565  0.89513492  1
  V  V49  1  0.75129614  0.00811425  0.25316867  1
  V  V50  1  0.62670353  0.12860725  -0.00171330  1
  V  V51  1  0.49884367  0.62178146  0.63056059  1
  V  V52  1  0.87701703  0.75352985  0.62483319  1
  V  V53  1  0.49633426  0.87202732  0.87381706  1
  V  V54  1  0.37450406  0.49952104  0.37419514  1
  V  V55  1  0.49593322  0.00333915  0.49797737  1
  V  V56  1  0.49533959  0.87979557  0.37458931  1
  V  V57  1  0.12758516  0.62029988  -0.00710759  1
  V  V58  1  0.88276745  0.13426923  0.23177909  1
  V  V59  1  0.37178716  0.11296770  0.25630169  1
  V  V60  1  0.75242249  0.62430066  0.86714961  1
  V  V61  1  0.37866204  0.25388623  0.11463720  1
  V  V62  1  0.87079630  0.87222842  0.49567612  1
  V  V63  1  0.75487117  0.24811487  0.49791034  1
  V  V64  1  0.63076874  0.24464378  0.37551141  1
  V  V65  1  0.49445535  0.37370952  0.88454949  1
  V  V66  1  0.36494682  0.12277311  0.75008438  1
  V  V67  1  0.87150758  0.62658433  0.25193563  1
  V  V68  1  0.50211984  0.49850404  0.50171199  1
  V  V69  1  0.24750887  0.74572094  -0.00784699  1
  V  V70  1  -0.00030538  0.87351786  0.86748880  1
  V  V71  1  0.00119715  0.00784760  -0.00424022  1
  V  V72  1  0.11748100  0.62041580  0.49771446  1
  V  V73  1  0.12460315  0.75304342  0.37603767  1
  V  V74  1  0.25059833  0.62763263  0.37580660  1
  V  V75  1  0.88258863  0.63220953  0.75418223  1
  V  V76  1  0.37317250  0.74650812  0.12319026  1
  V  V77  1  0.75054739  0.87746224  0.12355151  1
  V  V78  1  0.49775938  0.74508724  0.75018783  1
  V  V79  1  0.12151310  0.74703863  0.86602923  1
  V  V80  1  0.63122182  0.62877792  0.50262379  1
  V  V81  1  0.75215477  0.37951332  0.62367042  1
  V  V82  1  0.35631315  0.61610437  0.75313699  1
  V  V83  1  0.88045143  0.25077211  0.63417106  1
  V  V84  1  0.24549054  0.11058549  0.37471198  1
  Zn  Zn85  1  0.62636461  0.87806707  0.25171148  1
  Zn  Zn86  1  0.00783207  0.25651943  0.21404923  1
  Zn  Zn87  1  0.00549618  0.24612643  0.77514129  1
  Zn  Zn88  1  0.74866320  -0.00204398  0.74448090  1
  Zn  Zn89  1  0.24189183  0.49461262  0.25577279  1
  Zn  Zn90  1  0.37149996  -0.00086906  0.87520230  1
  Zn  Zn91  1  0.87893317  0.37467710  0.00547947  1
  Zn  Zn92  1  0.12045299  0.49950213  0.62047268  1
  Zn  Zn93  1  0.75112988  0.62701633  0.37842308  1
  Zn  Zn94  1  0.63050021  0.61966115  0.00653065  1
  Zn  Zn95  1  0.24838486  0.87292277  0.62985282  1
  Zn  Zn96  1  0.24980174  0.75170095  0.50165675  1
  Zn  Zn97  1  0.24690913  -0.00388779  0.75674628  1
  Zn  Zn98  1  0.12095129  0.25194687  0.89910911  1
  Zn  Zn99  1  0.00602076  0.13133927  0.62574736  1
  Zn  Zn100  1  0.12551614  0.24484987  0.35871652  1
  Zn  Zn101  1  0.37140317  0.74866994  0.62564518  1
  Zn  Zn102  1  0.88217396  0.37801690  0.50252171  1
  Zn  Zn103  1  0.49844024  0.49536796  0.00264635  1
  Zn  Zn104  1  0.37281925  0.62413143  0.24993783  1
  Zn  Zn105  1  0.37209610  0.87270294  -0.00202923  1
  Zn  Zn106  1  0.12383811  0.87235829  0.74605542  1
  Zn  Zn107  1  0.18988842  0.18683297  0.18872445  1
  Zn  Zn108  1  0.18397293  0.19322680  0.68841385  1
  Zn  Zn109  1  0.18680475  0.68672809  0.18765355  1
  Zn  Zn110  1  0.18527933  0.68978863  0.68130770  1
  Zn  Zn111  1  0.68893497  0.18493647  0.18946821  1
  Zn  Zn112  1  0.69162275  0.18957318  0.68921385  1
  Zn  Zn113  1  0.68637030  0.69077797  0.19119714  1
  Zn  Zn114  1  0.69170227  0.69323419  0.68691116  1
  Zn  Zn115  1  0.31125381  0.30802319  0.30800415  1
  Zn  Zn116  1  0.30935809  0.31039134  0.81329137  1
  Zn  Zn117  1  0.31287917  0.81420398  0.31314563  1
  Zn  Zn118  1  0.31052901  0.80881589  0.80884903  1
  Zn  Zn119  1  0.81453335  0.31245259  0.30921158  1
  Zn  Zn120  1  0.86693870  0.26428656  0.86459613  1
  Zn  Zn121  1  0.81047798  0.81855390  0.31197845  1
  Zn  Zn122  1  0.81222152  0.81287001  0.80808350  1
  Zn  Zn123  1  0.18699493  0.43762212  0.44030321  1
  Zn  Zn124  1  0.18886205  0.41765018  0.95695457  1
  Zn  Zn125  1  0.18535480  0.94090681  0.44042198  1
  Zn  Zn126  1  0.18698521  0.93666689  0.93551294  1
  Zn  Zn127  1  0.69154182  0.43728000  0.43496179  1
  Zn  Zn128  1  0.67729259  0.43822610  0.94673418  1
  Zn  Zn129  1  0.68632776  0.94026380  0.43669603  1
  Zn  Zn130  1  0.68392692  0.93631315  0.93543683  1
  Zn  Zn131  1  0.31365482  0.05987798  0.06788750  1
  Zn  Zn132  1  0.31138720  0.06276937  0.55923743  1
  Zn  Zn133  1  0.30963728  0.55558300  0.05997034  1
  Zn  Zn134  1  0.31178270  0.56345657  0.55922954  1
  Zn  Zn135  1  0.81407764  0.06299341  0.05674126  1
  Zn  Zn136  1  0.81425061  0.06105926  0.56593985  1
  Zn  Zn137  1  0.81199028  0.55968785  0.05925658  1
  Zn  Zn138  1  0.81224293  0.56432164  0.56432268  1
  Zn  Zn139  1  0.43644282  0.43708098  0.19244121  1
  Zn  Zn140  1  0.43361564  0.43710687  0.69302747  1
  Zn  Zn141  1  0.43662449  0.93355403  0.18595662  1
  Zn  Zn142  1  0.43615545  0.93965905  0.68565964  1
  Zn  Zn143  1  0.93672353  0.43752861  0.19105748  1
  Zn  Zn144  1  0.94377479  0.43858709  0.68592401  1
  Zn  Zn145  1  0.93818615  0.94296054  0.18442394  1
  Zn  Zn146  1  0.93997047  0.93924221  0.68354611  1
  Zn  Zn147  1  0.06179462  0.06521473  0.30537037  1
  Zn  Zn148  1  0.06558167  0.06478701  0.81577196  1
  Zn  Zn149  1  0.05532275  0.56457361  0.31631254  1
  Zn  Zn150  1  0.06840333  0.55944023  0.80635660  1
  Zn  Zn151  1  0.56379383  0.06327533  0.31548684  1
  Zn  Zn152  1  0.55976976  0.06112059  0.81251427  1
  Zn  Zn153  1  0.56270060  0.56387262  0.31236390  1
  Zn  Zn154  1  0.56158109  0.55636211  0.81739133  1
  Zn  Zn155  1  0.43480969  0.18622379  0.43677231  1
  Zn  Zn156  1  0.43815745  0.18403672  0.93331173  1
  Zn  Zn157  1  0.44038800  0.68862990  0.44041399  1
  Zn  Zn158  1  0.43125543  0.68011016  0.93664873  1
  Zn  Zn159  1  0.93772037  0.19214184  0.43653108  1
  Zn  Zn160  1  0.95858908  0.21406309  0.99935050  1
  Zn  Zn161  1  0.93614074  0.69048952  0.43679085  1
  Zn  Zn162  1  0.93959049  0.68731717  0.93683156  1
  Zn  Zn163  1  0.07508122  0.31751124  0.05825681  1
  Zn  Zn164  1  0.05993895  0.31679764  0.55529104  1
  Zn  Zn165  1  0.06244213  0.81256331  0.05762983  1
  Zn  Zn166  1  0.06017251  0.81482724  0.56229323  1
  Zn  Zn167  1  0.56454365  0.30990584  0.06394471  1
  Zn  Zn168  1  0.56425945  0.30831596  0.56348259  1
  Zn  Zn169  1  0.56401461  0.80898150  0.06185556  1
  Zn  Zn170  1  0.55736966  0.81084681  0.56269577  1
  O  O171  1  0.13814682  0.10507259  0.12472840  1
  O  O172  1  0.12456614  0.11292914  0.62613141  1
  O  O173  1  0.11252794  0.62505007  0.11814130  1
  O  O174  1  0.11353042  0.62707304  0.61574272  1
  O  O175  1  0.62065022  0.11967584  0.11662674  1
  O  O176  1  0.61599000  0.13459995  0.61635296  1
  O  O177  1  0.60905279  0.63294548  0.12716540  1
  O  O178  1  0.62005149  0.62189926  0.62173425  1
  O  O179  1  0.37999589  0.38097105  0.37901751  1
  O  O180  1  0.38034089  0.38446664  0.86797767  1
  O  O181  1  0.38858615  0.87053804  0.38119515  1
  O  O182  1  0.38664319  0.87276642  0.87581947  1
  O  O183  1  0.87303983  0.38676887  0.37720163  1
  O  O184  1  0.86160030  0.38710776  0.85871811  1
  O  O185  1  0.87897010  0.88478518  0.37942813  1
  O  O186  1  0.88040326  0.86836957  0.88472414  1
  O  O187  1  0.25239745  0.01174657  0.37814402  1
  O  O188  1  0.25203857  0.01209596  0.87629373  1
  O  O189  1  0.25738850  0.50619109  0.37442025  1
  O  O190  1  0.26151547  0.48666003  0.88701125  1
  O  O191  1  0.75898414  -0.00395893  0.36469419  1
  O  O192  1  0.74165213  0.01005012  0.86802040  1
  O  O193  1  0.75935878  0.50167964  0.36481435  1
  O  O194  1  0.74702256  0.50475200  0.87107189  1
  O  O195  1  0.23466614  0.52362313  0.14020147  1
  O  O196  1  0.25029642  0.48271277  0.61525180  1
  O  O197  1  0.24048067  0.98348080  0.11722883  1
  O  O198  1  0.23762244  0.99778284  0.62097595  1
  O  O199  1  0.74999412  0.50156486  0.13858944  1
  O  O200  1  0.74475642  0.48724629  0.61878654  1
  O  O201  1  0.74502703  0.99647714  0.12879058  1
  O  O202  1  0.75241844  0.98308989  0.62572378  1
  O  O203  1  -0.01267467  0.36796689  0.26612259  1
  O  O204  1  0.01070190  0.36970409  0.74688383  1
  O  O205  1  0.00500971  0.87213123  0.25369830  1
  O  O206  1  -0.00225443  0.87949393  0.76402557  1
  O  O207  1  0.50849996  0.36961772  0.25730874  1
  O  O208  1  0.50402476  0.36678794  0.75565700  1
  O  O209  1  0.50173163  0.86932547  0.25757733  1
  O  O210  1  0.50269588  0.86746176  0.75531145  1
  O  O211  1  0.49328643  0.12755317  0.24669978  1
  O  O212  1  0.49355094  0.12870161  0.74326103  1
  O  O213  1  0.49800887  0.63347386  0.24165939  1
  O  O214  1  0.49874858  0.62398966  0.74047133  1
  O  O215  1  0.98527914  0.12583100  0.24613572  1
  O  O216  1  0.99355917  0.12678210  0.74897086  1
  O  O217  1  0.99185049  0.63415964  0.24308534  1
  O  O218  1  0.98807933  0.62078954  0.74102684  1
  O  O219  1  0.38456104  0.24273376  0.01618009  1
  O  O220  1  0.37006637  0.25588575  0.50474412  1
  O  O221  1  0.36561363  0.74830255  0.00598221  1
  O  O222  1  0.37718664  0.76087458  0.50261846  1
  O  O223  1  0.86217366  0.26707557  -0.02314533  1
  O  O224  1  0.86626911  0.25146211  0.50879390  1
  O  O225  1  0.86948377  0.75712919  0.00523653  1
  O  O226  1  0.87592061  0.76571634  0.50184110  1
  O  O227  1  0.13533603  0.25024483  0.49448819  1
  O  O228  1  0.16170825  0.30999763  0.99055998  1
  O  O229  1  0.12386583  0.74398138  0.49059531  1
  O  O230  1  0.12997009  0.74047072  0.99350377  1
  O  O231  1  0.63238625  0.24198086  0.49462158  1
  O  O232  1  0.61901049  0.23578531  0.99144728  1
  O  O233  1  0.61519165  0.74058056  0.49139700  1
  O  O234  1  0.63256947  0.74605029  0.99041640  1
  O  O235  1  0.49596991  0.23979987  0.13152959  1
  O  O236  1  0.49299233  0.24043459  0.62832347  1
  O  O237  1  0.49247269  0.74732682  0.13294467  1
  O  O238  1  0.49582550  0.73831117  0.63251956  1
  O  O239  1  0.99772423  0.25413897  0.10116002  1
  O  O240  1  0.98585081  0.25124889  0.61877897  1
  O  O241  1  0.99400061  0.74288261  0.12736258  1
  O  O242  1  0.98512790  0.74246240  0.61829625  1
  O  O243  1  0.00546219  0.26229308  0.37815913  1
  O  O244  1  0.00550418  0.24475071  0.89051621  1
  O  O245  1  0.00433468  0.75954790  0.36822342  1
  O  O246  1  0.01030184  0.75971132  0.88226134  1
  O  O247  1  0.50770631  0.25534084  0.37265855  1
  O  O248  1  0.50626805  0.25397195  0.86792823  1
  O  O249  1  0.50652593  0.75510707  0.36759732  1
  O  O250  1  0.50511677  0.75183253  0.87208537  1
  O  O251  1  0.26052954  0.13328715  0.48267995  1
  O  O252  1  0.25546054  0.12508839  0.99363213  1
  O  O253  1  0.24299570  0.62760738  0.48948772  1
  O  O254  1  0.23691130  0.63206700  1.00538010  1
  O  O255  1  0.74253582  0.13560126  0.50976604  1
  O  O256  1  0.73988803  0.11591466  0.98556307  1
  O  O257  1  0.73516832  0.62408307  0.50007396  1
  O  O258  1  0.75141437  0.63020581  0.98640330  1
  O  O259  1  0.27435697  0.41075357  0.04556408  1
  O  O260  1  0.25451838  0.36566687  0.50480556  1
  O  O261  1  0.25005762  0.86396601  0.00715729  1
  O  O262  1  0.26496148  0.87745458  0.49542946  1
  O  O263  1  0.74461988  0.38260690  0.02009747  1
  O  O264  1  0.74973532  0.36464624  0.50866909  1
  O  O265  1  0.75719130  0.87191011  0.00119743  1
  O  O266  1  0.75726321  0.87943825  0.50427628  1
  O  O267  1  0.11993373  0.50847183  0.24087639  1
  O  O268  1  0.12125404  0.48658372  0.73660341  1
  O  O269  1  0.11825311  0.98789743  0.23547168  1
  O  O270  1  0.12501550  0.99876190  0.73654418  1
  O  O271  1  0.63253382  0.48886772  0.25890577  1
  O  O272  1  0.62018354  0.49042139  0.74191436  1
  O  O273  1  0.63381253  1.00158549  0.24562399  1
  O  O274  1  0.61971598  0.98351870  0.75164029  1
  O  O275  1  0.37949132  0.01413383  0.24364635  1
  O  O276  1  0.37421605  0.00980630  0.75246034  1
  O  O277  1  0.37659525  0.50421694  0.26508552  1
  O  O278  1  0.37222906  0.50881454  0.76021551  1
  O  O279  1  0.87052102  0.00810383  0.25534612  1
  O  O280  1  0.87324765  0.01098138  0.74570116  1
  O  O281  1  0.86654262  0.50832766  0.25776919  1
  O  O282  1  0.86814290  0.50672773  0.74811717  1
  O  O283  1  0.11407880  0.37924395  0.37169504  1
  O  O284  1  0.13184427  0.38433109  0.85526809  1
  O  O285  1  0.12081461  0.87458088  0.36675437  1
  O  O286  1  0.11685692  0.86499875  0.87383140  1
  O  O287  1  0.62250238  0.36455302  0.36889348  1
  O  O288  1  0.61904907  0.36570025  0.87073233  1
  O  O289  1  0.61343493  0.86879983  0.37680492  1
  O  O290  1  0.61511438  0.86388904  0.86905781  1
  O  O291  1  0.37853658  0.13109074  0.13574025  1
  O  O292  1  0.38168641  0.12902070  0.62999404  1
  O  O293  1  0.38048170  0.63580042  0.12741488  1
  O  O294  1  0.38150997  0.61927240  0.63585990  1
  O  O295  1  0.87315760  0.12357025  0.13271687  1
  O  O296  1  0.87471120  0.13369595  0.63562510  1
  O  O297  1  0.88012201  0.63122433  0.12944349  1
  O  O298  1  0.87675071  0.63388962  0.62887725  1
  O  O299  1  0.26310588  0.25639650  0.12456502  1
  O  O300  1  0.25442443  0.25565777  0.61406552  1
  O  O301  1  0.25565072  0.75502122  0.11843687  1
  O  O302  1  0.25340989  0.75450658  0.61865717  1
  O  O303  1  0.74723010  0.26099829  0.12695814  1
  O  O304  1  0.76030486  0.26089550  0.62267003  1
  O  O305  1  0.75367124  0.75621903  0.11937985  1
  O  O306  1  0.76253680  0.76255838  0.62576812  1
  O  O307  1  0.24793643  0.24461399  0.38028232  1
  O  O308  1  0.25208086  0.23229533  0.87195706  1
  O  O309  1  0.24341428  0.74469591  0.37828832  1
  O  O310  1  0.24229192  0.75254876  0.88687061  1
  O  O311  1  0.74343985  0.25569385  0.38625780  1
  O  O312  1  0.73586933  0.23427294  0.86725727  1
  O  O313  1  0.73401099  0.75124413  0.36834361  1
  O  O314  1  0.74195182  0.74434457  0.87709697  1
  O  O315  1  -0.00154466  0.10557759  -0.00406796  1
  O  O316  1  -0.00757864  0.11336531  0.50184398  1
  O  O317  1  0.00470501  0.61865867  0.00817709  1
  O  O318  1  0.00645539  0.63036098  0.50464761  1
  O  O319  1  0.50661107  0.11447958  0.00347954  1
  O  O320  1  0.50469076  0.11984704  0.50602158  1
  O  O321  1  0.49995422  0.63382223  0.01776526  1
  O  O322  1  0.50644149  0.61913972  0.51302888  1
  O  O323  1  0.49559539  0.37800505  0.49645648  1
  O  O324  1  0.50207034  0.37119171  0.98801811  1
  O  O325  1  0.49373002  0.88370196  0.49515480  1
  O  O326  1  0.50052383  0.87878756  0.99156514  1
  O  O327  1  0.99677522  0.37815924  0.48079553  1
  O  O328  1  1.00009898  0.39498264  1.00033883  1
  O  O329  1  0.99094047  0.88621515  0.49243639  1
  O  O330  1  0.99205186  0.87914484  0.99223774  1
  O  O331  1  0.49467398  0.49513598  0.38162217  1
  O  O332  1  0.48975485  0.48623861  0.87235740  1
  O  O333  1  0.50457896  0.99171335  0.38430863  1
  O  O334  1  0.49882616  0.98940619  0.88266303  1
  O  O335  1  0.98310760  0.49106641  0.36759126  1
  O  O336  1  1.00102847  0.50801267  0.88594057  1
  O  O337  1  0.99398148  0.99812433  0.37964954  1
  O  O338  1  1.00977573  0.98963028  0.88852522  1
  O  O339  1  0.01418292  -0.00655738  0.11315215  1
  O  O340  1  0.00931264  0.00339548  0.61628500  1
  O  O341  1  0.00332301  0.51183285  0.12526289  1
  O  O342  1  -0.00512098  0.51629812  0.61898249  1
  O  O343  1  0.50654060  0.00160728  0.11868605  1
  O  O344  1  0.50068687  0.01302809  0.61829177  1
  O  O345  1  0.49037790  0.51653642  0.12696384  1
  O  O346  1  0.50458390  0.50347078  0.62146571  1
  O  O347  1  0.26427063  0.38143541  0.23048457  1
  O  O348  1  0.24453826  0.36852340  0.73324387  1
  O  O349  1  0.24028156  0.86897069  0.24102761  1
  O  O350  1  0.24576437  0.87876967  0.74898750  1
  O  O351  1  0.74360986  0.38117284  0.24184141  1
  O  O352  1  0.74502399  0.38322184  0.74415010  1
  O  O353  1  0.74922102  0.88803679  0.24155180  1
  O  O354  1  0.73924148  0.87535646  0.74249605  1
  O  O355  1  0.26381966  0.12631499  0.26100046  1
  O  O356  1  0.26022188  0.12321245  0.74513258  1
  O  O357  1  0.25137059  0.62905458  0.26635417  1
  O  O358  1  0.25850567  0.62237510  0.74458973  1
  O  O359  1  0.76046002  0.11424554  0.24617834  1
  O  O360  1  0.75261123  0.11911285  0.75788260  1
  O  O361  1  0.75333736  0.62029286  0.25359917  1
  O  O362  1  0.75870791  0.62930786  0.75997418  1
  O  O363  1  0.37009695  0.12617655  0.36243169  1
  O  O364  1  0.36694539  0.12219565  0.86654447  1
  O  O365  1  0.36817346  0.61810974  0.37865059  1
  O  O366  1  0.37555662  0.61193509  0.86070989  1
  O  O367  1  0.87631813  0.11627976  0.37014445  1
  O  O368  1  0.85734864  0.12737355  0.86787431  1
  O  O369  1  0.87316381  0.61769241  0.37019234  1
  O  O370  1  0.86714004  0.63279787  0.86531708  1
  O  O371  1  0.13888701  0.38954206  0.13179218  1
  O  O372  1  0.13465081  0.37537738  0.62417431  1
  O  O373  1  0.13179476  0.87514048  0.13090168  1
  O  O374  1  0.12358252  0.88631975  0.62619517  1
  O  O375  1  0.63046091  0.36928453  0.13930019  1
  O  O376  1  0.63322189  0.37603727  0.63114508  1
  O  O377  1  0.63151325  0.88093585  0.12559527  1
  O  O378  1  0.63142898  0.86630832  0.63116511  1
  O  O379  1  0.11782836  0.24645416  0.24545153  1
  O  O380  1  0.12154930  0.26531864  0.74944005  1
  O  O381  1  0.11854266  0.75977194  0.25473178  1
  O  O382  1  0.12681324  0.74690251  0.76282523  1
  O  O383  1  0.62014375  0.25253089  0.25880443  1
  O  O384  1  0.61949950  0.25614802  0.75586959  1
  O  O385  1  0.61342086  0.75433627  0.25737636  1
  O  O386  1  0.61799225  0.75716671  0.75645830  1
  O  O387  1  0.38412677  0.23860770  0.24489915  1
  O  O388  1  0.37981674  0.24204395  0.74258733  1
  O  O389  1  0.38499654  0.74928890  0.24404595  1
  O  O390  1  0.38027796  0.73206834  0.75200111  1
  O  O391  1  0.87502075  0.23529692  0.25057752  1
  O  O392  1  0.88077834  0.23801990  0.74964084  1
  O  O393  1  0.87747153  0.74727867  0.24497481  1
  O  O394  1  0.87406020  0.74284968  0.73948892  1
  O  O395  1  0.38093815  0.49403226  0.49108077  1
  O  O396  1  0.38350582  0.51342824  0.98221189  1
  O  O397  1  0.38894909  0.99453078  0.50368404  1
  O  O398  1  0.38807197  0.99549070  1.00164170  1
  O  O399  1  0.86667335  0.50107490  0.48393015  1
  O  O400  1  0.88829002  0.49839512  1.00048257  1
  O  O401  1  0.87920140  0.99406953  0.49217328  1
  O  O402  1  0.88880782  0.98992036  1.00443519  1
  O  O403  1  0.11479347  -0.00959868  0.01118259  1
  O  O404  1  0.11534292  -0.00234008  0.51080915  1
  O  O405  1  0.11548722  0.50729844  0.01104682  1
  O  O406  1  0.12732905  0.51586752  0.50018170  1
  O  O407  1  0.61504606  0.00586386  0.00246362  1
  O  O408  1  0.61730788  0.01473400  0.49545860  1
  O  O409  1  0.61001823  0.51035721  -0.00558201  1
  O  O410  1  0.61981271  0.50573544  0.50580418  1
  O  O411  1  0.38559575  0.35463551  0.13164735  1
  O  O412  1  0.36493944  0.36981024  0.62146485  1
  O  O413  1  0.36772628  0.86297311  0.12349918  1
  O  O414  1  0.37559383  0.87278101  0.61511525  1
  O  O415  1  0.85860639  0.37926117  0.12750431  1
  O  O416  1  0.86836107  0.37102448  0.62456890  1
  O  O417  1  0.87034209  0.87127382  0.11563673  1
  O  O418  1  0.87122882  0.87087736  0.61586174  1
  O  O419  1  0.14137494  0.12173850  0.36759675  1
  O  O420  1  0.14089530  0.12799239  0.87702342  1
  O  O421  1  0.12881944  0.63131851  0.37958784  1
  O  O422  1  0.11866914  0.63050981  0.88470624  1
  O  O423  1  0.62192030  0.13796859  0.38466688  1
  O  O424  1  0.62784374  0.12849866  0.88001766  1
  O  O425  1  0.62299535  0.63308238  0.38513918  1
  O  O426  1  0.63119390  0.63567117  0.86889099  1
